
*** ChampSim Multicore Out-of-Order Simulator ***

Warmup Instructions: 50000000
Simulation Instructions: 100000000
Configuration: 2
Number of CPUs: 1
LLC sets: 2048
LLC ways: 16
Off-chip DRAM Channels: 1 Width: 64-bit Data Rate: 1600 MT/s

CPU 0 runs /datasets/cs240c-wi22-a00-public/data/Assignment2-gz/lbm_1004B.trace.gz
CPU 0 L1D next line prefetcher
CPU 0 L2C IP-based stride prefetcher
Initialize Hawkeye state
Heartbeat CPU 0 instructions: 1000002 cycles: 391414 heartbeat IPC: 2.55484 cumulative IPC: 2.55484 (Simulation time: 0 hr 0 min 38 sec) 
Heartbeat CPU 0 instructions: 2000001 cycles: 782838 heartbeat IPC: 2.55477 cumulative IPC: 2.55481 (Simulation time: 0 hr 1 min 9 sec) 
Heartbeat CPU 0 instructions: 3000001 cycles: 1174187 heartbeat IPC: 2.55526 cumulative IPC: 2.55496 (Simulation time: 0 hr 1 min 40 sec) 
Heartbeat CPU 0 instructions: 4000000 cycles: 1570369 heartbeat IPC: 2.52409 cumulative IPC: 2.54717 (Simulation time: 0 hr 2 min 11 sec) 
Heartbeat CPU 0 instructions: 5000002 cycles: 1961789 heartbeat IPC: 2.55481 cumulative IPC: 2.5487 (Simulation time: 0 hr 2 min 46 sec) 
Heartbeat CPU 0 instructions: 6000002 cycles: 2353157 heartbeat IPC: 2.55514 cumulative IPC: 2.54977 (Simulation time: 0 hr 3 min 21 sec) 
Heartbeat CPU 0 instructions: 7000003 cycles: 2749265 heartbeat IPC: 2.52457 cumulative IPC: 2.54614 (Simulation time: 0 hr 3 min 58 sec) 
Heartbeat CPU 0 instructions: 8000000 cycles: 3140616 heartbeat IPC: 2.55524 cumulative IPC: 2.54727 (Simulation time: 0 hr 4 min 26 sec) 
Heartbeat CPU 0 instructions: 9000003 cycles: 3532040 heartbeat IPC: 2.55478 cumulative IPC: 2.5481 (Simulation time: 0 hr 5 min 0 sec) 
Heartbeat CPU 0 instructions: 10000000 cycles: 3923405 heartbeat IPC: 2.55515 cumulative IPC: 2.54881 (Simulation time: 0 hr 5 min 32 sec) 
Heartbeat CPU 0 instructions: 11000000 cycles: 4319645 heartbeat IPC: 2.52372 cumulative IPC: 2.54651 (Simulation time: 0 hr 6 min 8 sec) 
Heartbeat CPU 0 instructions: 12000000 cycles: 4710973 heartbeat IPC: 2.5554 cumulative IPC: 2.54724 (Simulation time: 0 hr 6 min 48 sec) 
Heartbeat CPU 0 instructions: 13000002 cycles: 5102381 heartbeat IPC: 2.55488 cumulative IPC: 2.54783 (Simulation time: 0 hr 7 min 23 sec) 
Heartbeat CPU 0 instructions: 14000003 cycles: 5498552 heartbeat IPC: 2.52417 cumulative IPC: 2.54613 (Simulation time: 0 hr 8 min 0 sec) 
Heartbeat CPU 0 instructions: 15000003 cycles: 5889984 heartbeat IPC: 2.55472 cumulative IPC: 2.5467 (Simulation time: 0 hr 8 min 37 sec) 
Heartbeat CPU 0 instructions: 16000000 cycles: 6281385 heartbeat IPC: 2.55492 cumulative IPC: 2.54721 (Simulation time: 0 hr 9 min 15 sec) 
Heartbeat CPU 0 instructions: 17000000 cycles: 6677550 heartbeat IPC: 2.5242 cumulative IPC: 2.54584 (Simulation time: 0 hr 9 min 51 sec) 
Heartbeat CPU 0 instructions: 18000000 cycles: 7068933 heartbeat IPC: 2.55504 cumulative IPC: 2.54635 (Simulation time: 0 hr 10 min 21 sec) 
Heartbeat CPU 0 instructions: 19000003 cycles: 7460293 heartbeat IPC: 2.5552 cumulative IPC: 2.54682 (Simulation time: 0 hr 10 min 55 sec) 
Heartbeat CPU 0 instructions: 20000000 cycles: 7851689 heartbeat IPC: 2.55495 cumulative IPC: 2.54722 (Simulation time: 0 hr 11 min 31 sec) 
Heartbeat CPU 0 instructions: 21000003 cycles: 8247850 heartbeat IPC: 2.52423 cumulative IPC: 2.54612 (Simulation time: 0 hr 12 min 1 sec) 
Heartbeat CPU 0 instructions: 22000002 cycles: 8639313 heartbeat IPC: 2.55452 cumulative IPC: 2.5465 (Simulation time: 0 hr 12 min 35 sec) 
Heartbeat CPU 0 instructions: 23000001 cycles: 9030654 heartbeat IPC: 2.55531 cumulative IPC: 2.54688 (Simulation time: 0 hr 13 min 10 sec) 
Heartbeat CPU 0 instructions: 24000000 cycles: 9426872 heartbeat IPC: 2.52386 cumulative IPC: 2.54591 (Simulation time: 0 hr 13 min 43 sec) 
Heartbeat CPU 0 instructions: 25000003 cycles: 9818277 heartbeat IPC: 2.55491 cumulative IPC: 2.54627 (Simulation time: 0 hr 14 min 16 sec) 
Heartbeat CPU 0 instructions: 26000002 cycles: 10209668 heartbeat IPC: 2.55499 cumulative IPC: 2.54661 (Simulation time: 0 hr 14 min 49 sec) 
Heartbeat CPU 0 instructions: 27000001 cycles: 10601034 heartbeat IPC: 2.55515 cumulative IPC: 2.54692 (Simulation time: 0 hr 15 min 22 sec) 
Heartbeat CPU 0 instructions: 28000000 cycles: 10997218 heartbeat IPC: 2.52408 cumulative IPC: 2.5461 (Simulation time: 0 hr 15 min 55 sec) 
Heartbeat CPU 0 instructions: 29000002 cycles: 11388619 heartbeat IPC: 2.55493 cumulative IPC: 2.5464 (Simulation time: 0 hr 16 min 27 sec) 
Heartbeat CPU 0 instructions: 30000003 cycles: 11780012 heartbeat IPC: 2.55498 cumulative IPC: 2.54669 (Simulation time: 0 hr 17 min 1 sec) 
Heartbeat CPU 0 instructions: 31000003 cycles: 12176238 heartbeat IPC: 2.52381 cumulative IPC: 2.54594 (Simulation time: 0 hr 17 min 36 sec) 
Heartbeat CPU 0 instructions: 32000000 cycles: 12567621 heartbeat IPC: 2.55503 cumulative IPC: 2.54623 (Simulation time: 0 hr 18 min 10 sec) 
Heartbeat CPU 0 instructions: 33000003 cycles: 12959058 heartbeat IPC: 2.5547 cumulative IPC: 2.54648 (Simulation time: 0 hr 18 min 42 sec) 
Heartbeat CPU 0 instructions: 34000002 cycles: 13355165 heartbeat IPC: 2.52457 cumulative IPC: 2.54583 (Simulation time: 0 hr 19 min 16 sec) 
Heartbeat CPU 0 instructions: 35000003 cycles: 13746584 heartbeat IPC: 2.55481 cumulative IPC: 2.54609 (Simulation time: 0 hr 19 min 45 sec) 
Heartbeat CPU 0 instructions: 36000000 cycles: 14137986 heartbeat IPC: 2.55491 cumulative IPC: 2.54633 (Simulation time: 0 hr 20 min 15 sec) 
Heartbeat CPU 0 instructions: 37000002 cycles: 14529395 heartbeat IPC: 2.55488 cumulative IPC: 2.54656 (Simulation time: 0 hr 20 min 47 sec) 
Heartbeat CPU 0 instructions: 38000000 cycles: 14925588 heartbeat IPC: 2.52402 cumulative IPC: 2.54596 (Simulation time: 0 hr 21 min 18 sec) 
Heartbeat CPU 0 instructions: 39000003 cycles: 15316911 heartbeat IPC: 2.55544 cumulative IPC: 2.54621 (Simulation time: 0 hr 21 min 53 sec) 
Heartbeat CPU 0 instructions: 40000000 cycles: 15708307 heartbeat IPC: 2.55495 cumulative IPC: 2.54642 (Simulation time: 0 hr 22 min 22 sec) 
Heartbeat CPU 0 instructions: 41000002 cycles: 16104512 heartbeat IPC: 2.52395 cumulative IPC: 2.54587 (Simulation time: 0 hr 22 min 52 sec) 
Heartbeat CPU 0 instructions: 42000003 cycles: 16495949 heartbeat IPC: 2.55469 cumulative IPC: 2.54608 (Simulation time: 0 hr 23 min 22 sec) 
Heartbeat CPU 0 instructions: 43000000 cycles: 16887317 heartbeat IPC: 2.55513 cumulative IPC: 2.54629 (Simulation time: 0 hr 23 min 53 sec) 
Heartbeat CPU 0 instructions: 44000000 cycles: 17283466 heartbeat IPC: 2.5243 cumulative IPC: 2.54579 (Simulation time: 0 hr 24 min 24 sec) 
Heartbeat CPU 0 instructions: 45000003 cycles: 17674848 heartbeat IPC: 2.55506 cumulative IPC: 2.54599 (Simulation time: 0 hr 24 min 56 sec) 
Heartbeat CPU 0 instructions: 46000003 cycles: 18066202 heartbeat IPC: 2.55523 cumulative IPC: 2.54619 (Simulation time: 0 hr 25 min 28 sec) 
Heartbeat CPU 0 instructions: 47000002 cycles: 18457601 heartbeat IPC: 2.55493 cumulative IPC: 2.54638 (Simulation time: 0 hr 26 min 3 sec) 
Heartbeat CPU 0 instructions: 48000000 cycles: 18853774 heartbeat IPC: 2.52414 cumulative IPC: 2.54591 (Simulation time: 0 hr 26 min 41 sec) 
Heartbeat CPU 0 instructions: 49000000 cycles: 19245200 heartbeat IPC: 2.55476 cumulative IPC: 2.54609 (Simulation time: 0 hr 27 min 9 sec) 
Heartbeat CPU 0 instructions: 50000003 cycles: 19636534 heartbeat IPC: 2.55537 cumulative IPC: 2.54627 (Simulation time: 0 hr 27 min 39 sec) 

Warmup complete CPU 0 instructions: 50000003 cycles: 19636534 (Simulation time: 0 hr 27 min 39 sec) 

Heartbeat CPU 0 instructions: 51000001 cycles: 21120621 heartbeat IPC: 0.673814 cumulative IPC: 0.673814 (Simulation time: 0 hr 28 min 19 sec) 
Heartbeat CPU 0 instructions: 52000000 cycles: 22516523 heartbeat IPC: 0.716382 cumulative IPC: 0.694446 (Simulation time: 0 hr 28 min 53 sec) 
Heartbeat CPU 0 instructions: 53000002 cycles: 23941059 heartbeat IPC: 0.701984 cumulative IPC: 0.696941 (Simulation time: 0 hr 29 min 28 sec) 
Heartbeat CPU 0 instructions: 54000002 cycles: 25299950 heartbeat IPC: 0.735894 cumulative IPC: 0.706287 (Simulation time: 0 hr 30 min 4 sec) 
Heartbeat CPU 0 instructions: 55000001 cycles: 26747253 heartbeat IPC: 0.69094 cumulative IPC: 0.703164 (Simulation time: 0 hr 30 min 45 sec) 
Heartbeat CPU 0 instructions: 56000000 cycles: 28221313 heartbeat IPC: 0.678398 cumulative IPC: 0.698911 (Simulation time: 0 hr 31 min 25 sec) 
Heartbeat CPU 0 instructions: 57000003 cycles: 29687461 heartbeat IPC: 0.682061 cumulative IPC: 0.696453 (Simulation time: 0 hr 32 min 5 sec) 
Heartbeat CPU 0 instructions: 58000003 cycles: 31175797 heartbeat IPC: 0.671891 cumulative IPC: 0.693285 (Simulation time: 0 hr 32 min 45 sec) 
Heartbeat CPU 0 instructions: 59000002 cycles: 32621656 heartbeat IPC: 0.69163 cumulative IPC: 0.693101 (Simulation time: 0 hr 33 min 18 sec) 
Heartbeat CPU 0 instructions: 60000000 cycles: 34053921 heartbeat IPC: 0.698193 cumulative IPC: 0.693607 (Simulation time: 0 hr 34 min 5 sec) 
Heartbeat CPU 0 instructions: 61000003 cycles: 35462961 heartbeat IPC: 0.709705 cumulative IPC: 0.69504 (Simulation time: 0 hr 34 min 44 sec) 
Heartbeat CPU 0 instructions: 62000001 cycles: 36838752 heartbeat IPC: 0.726853 cumulative IPC: 0.697584 (Simulation time: 0 hr 35 min 31 sec) 
Heartbeat CPU 0 instructions: 63000001 cycles: 38230839 heartbeat IPC: 0.718346 cumulative IPC: 0.699139 (Simulation time: 0 hr 36 min 8 sec) 
Heartbeat CPU 0 instructions: 64000000 cycles: 39628185 heartbeat IPC: 0.715642 cumulative IPC: 0.700292 (Simulation time: 0 hr 36 min 48 sec) 
Heartbeat CPU 0 instructions: 65000000 cycles: 41080833 heartbeat IPC: 0.688398 cumulative IPC: 0.699486 (Simulation time: 0 hr 37 min 23 sec) 
Heartbeat CPU 0 instructions: 66000000 cycles: 42471299 heartbeat IPC: 0.719183 cumulative IPC: 0.700686 (Simulation time: 0 hr 37 min 57 sec) 
Heartbeat CPU 0 instructions: 67000000 cycles: 43808684 heartbeat IPC: 0.747728 cumulative IPC: 0.703289 (Simulation time: 0 hr 38 min 39 sec) 
Heartbeat CPU 0 instructions: 68000000 cycles: 45199727 heartbeat IPC: 0.718885 cumulative IPC: 0.704137 (Simulation time: 0 hr 39 min 13 sec) 
Heartbeat CPU 0 instructions: 69000000 cycles: 46597638 heartbeat IPC: 0.715353 cumulative IPC: 0.704719 (Simulation time: 0 hr 39 min 50 sec) 
Heartbeat CPU 0 instructions: 70000000 cycles: 48064319 heartbeat IPC: 0.681812 cumulative IPC: 0.703537 (Simulation time: 0 hr 40 min 25 sec) 
Heartbeat CPU 0 instructions: 71000002 cycles: 49581793 heartbeat IPC: 0.658991 cumulative IPC: 0.70128 (Simulation time: 0 hr 41 min 7 sec) 
Heartbeat CPU 0 instructions: 72000000 cycles: 51905630 heartbeat IPC: 0.430322 cumulative IPC: 0.681767 (Simulation time: 0 hr 42 min 5 sec) 
Heartbeat CPU 0 instructions: 73000002 cycles: 54956337 heartbeat IPC: 0.327794 cumulative IPC: 0.651193 (Simulation time: 0 hr 43 min 1 sec) 
Heartbeat CPU 0 instructions: 74000002 cycles: 61339646 heartbeat IPC: 0.156659 cumulative IPC: 0.575497 (Simulation time: 0 hr 44 min 38 sec) 
Heartbeat CPU 0 instructions: 75000003 cycles: 63682016 heartbeat IPC: 0.426918 cumulative IPC: 0.567595 (Simulation time: 0 hr 45 min 33 sec) 
Heartbeat CPU 0 instructions: 76000000 cycles: 65641218 heartbeat IPC: 0.51041 cumulative IPC: 0.56516 (Simulation time: 0 hr 46 min 17 sec) 
Heartbeat CPU 0 instructions: 77000000 cycles: 67096225 heartbeat IPC: 0.687282 cumulative IPC: 0.568904 (Simulation time: 0 hr 46 min 59 sec) 
Heartbeat CPU 0 instructions: 78000002 cycles: 68565320 heartbeat IPC: 0.680693 cumulative IPC: 0.57226 (Simulation time: 0 hr 47 min 43 sec) 
Heartbeat CPU 0 instructions: 79000002 cycles: 70058334 heartbeat IPC: 0.669786 cumulative IPC: 0.575148 (Simulation time: 0 hr 48 min 24 sec) 
Heartbeat CPU 0 instructions: 80000000 cycles: 71449268 heartbeat IPC: 0.71894 cumulative IPC: 0.579008 (Simulation time: 0 hr 49 min 5 sec) 
Heartbeat CPU 0 instructions: 81000001 cycles: 72731036 heartbeat IPC: 0.780173 cumulative IPC: 0.583865 (Simulation time: 0 hr 49 min 46 sec) 
Heartbeat CPU 0 instructions: 82000002 cycles: 74076639 heartbeat IPC: 0.743162 cumulative IPC: 0.587802 (Simulation time: 0 hr 50 min 24 sec) 
Heartbeat CPU 0 instructions: 83000003 cycles: 75635881 heartbeat IPC: 0.641338 cumulative IPC: 0.589293 (Simulation time: 0 hr 50 min 59 sec) 
Heartbeat CPU 0 instructions: 84000000 cycles: 77044245 heartbeat IPC: 0.710042 cumulative IPC: 0.592255 (Simulation time: 0 hr 51 min 37 sec) 
Heartbeat CPU 0 instructions: 85000000 cycles: 78371054 heartbeat IPC: 0.753688 cumulative IPC: 0.595902 (Simulation time: 0 hr 52 min 12 sec) 
Heartbeat CPU 0 instructions: 86000000 cycles: 79878466 heartbeat IPC: 0.663389 cumulative IPC: 0.59759 (Simulation time: 0 hr 52 min 53 sec) 
Heartbeat CPU 0 instructions: 87000002 cycles: 81321682 heartbeat IPC: 0.692898 cumulative IPC: 0.59982 (Simulation time: 0 hr 53 min 31 sec) 
Heartbeat CPU 0 instructions: 88000000 cycles: 82719871 heartbeat IPC: 0.715209 cumulative IPC: 0.602378 (Simulation time: 0 hr 54 min 5 sec) 
Heartbeat CPU 0 instructions: 89000003 cycles: 84107679 heartbeat IPC: 0.720563 cumulative IPC: 0.604922 (Simulation time: 0 hr 54 min 40 sec) 
Heartbeat CPU 0 instructions: 90000002 cycles: 85578940 heartbeat IPC: 0.679688 cumulative IPC: 0.60659 (Simulation time: 0 hr 55 min 18 sec) 
Heartbeat CPU 0 instructions: 91000001 cycles: 86965690 heartbeat IPC: 0.72111 cumulative IPC: 0.608949 (Simulation time: 0 hr 55 min 58 sec) 
Heartbeat CPU 0 instructions: 92000000 cycles: 88298000 heartbeat IPC: 0.750575 cumulative IPC: 0.611697 (Simulation time: 0 hr 56 min 32 sec) 
Heartbeat CPU 0 instructions: 93000003 cycles: 89761237 heartbeat IPC: 0.683418 cumulative IPC: 0.613193 (Simulation time: 0 hr 57 min 7 sec) 
Heartbeat CPU 0 instructions: 94000003 cycles: 91183399 heartbeat IPC: 0.703155 cumulative IPC: 0.614982 (Simulation time: 0 hr 57 min 48 sec) 
Heartbeat CPU 0 instructions: 95000000 cycles: 92556422 heartbeat IPC: 0.728318 cumulative IPC: 0.617116 (Simulation time: 0 hr 58 min 24 sec) 
Heartbeat CPU 0 instructions: 96000000 cycles: 93967747 heartbeat IPC: 0.708554 cumulative IPC: 0.618852 (Simulation time: 0 hr 58 min 59 sec) 
Heartbeat CPU 0 instructions: 97000002 cycles: 95436918 heartbeat IPC: 0.680657 cumulative IPC: 0.62005 (Simulation time: 0 hr 59 min 34 sec) 
Heartbeat CPU 0 instructions: 98000001 cycles: 96898727 heartbeat IPC: 0.684083 cumulative IPC: 0.621261 (Simulation time: 1 hr 0 min 8 sec) 
Heartbeat CPU 0 instructions: 99000000 cycles: 98276531 heartbeat IPC: 0.725792 cumulative IPC: 0.623093 (Simulation time: 1 hr 0 min 44 sec) 
Heartbeat CPU 0 instructions: 100000000 cycles: 99669865 heartbeat IPC: 0.717703 cumulative IPC: 0.62474 (Simulation time: 1 hr 1 min 20 sec) 
Heartbeat CPU 0 instructions: 101000000 cycles: 101131968 heartbeat IPC: 0.683946 cumulative IPC: 0.625802 (Simulation time: 1 hr 1 min 56 sec) 
Heartbeat CPU 0 instructions: 102000000 cycles: 102602643 heartbeat IPC: 0.67996 cumulative IPC: 0.626762 (Simulation time: 1 hr 2 min 35 sec) 
Heartbeat CPU 0 instructions: 103000001 cycles: 104055971 heartbeat IPC: 0.688077 cumulative IPC: 0.627817 (Simulation time: 1 hr 3 min 15 sec) 
Heartbeat CPU 0 instructions: 104000000 cycles: 105431070 heartbeat IPC: 0.72722 cumulative IPC: 0.629411 (Simulation time: 1 hr 3 min 57 sec) 
Heartbeat CPU 0 instructions: 105000001 cycles: 106847024 heartbeat IPC: 0.706238 cumulative IPC: 0.630658 (Simulation time: 1 hr 4 min 41 sec) 
Heartbeat CPU 0 instructions: 106000000 cycles: 108242614 heartbeat IPC: 0.716542 cumulative IPC: 0.632011 (Simulation time: 1 hr 5 min 20 sec) 
Heartbeat CPU 0 instructions: 107000000 cycles: 109781450 heartbeat IPC: 0.649842 cumulative IPC: 0.632315 (Simulation time: 1 hr 6 min 6 sec) 
Heartbeat CPU 0 instructions: 108000000 cycles: 111228205 heartbeat IPC: 0.691202 cumulative IPC: 0.633245 (Simulation time: 1 hr 6 min 49 sec) 
Heartbeat CPU 0 instructions: 109000003 cycles: 112593801 heartbeat IPC: 0.732283 cumulative IPC: 0.6347 (Simulation time: 1 hr 7 min 29 sec) 
Heartbeat CPU 0 instructions: 110000001 cycles: 113920376 heartbeat IPC: 0.753819 cumulative IPC: 0.636376 (Simulation time: 1 hr 8 min 10 sec) 
Heartbeat CPU 0 instructions: 111000003 cycles: 115373807 heartbeat IPC: 0.688029 cumulative IPC: 0.63716 (Simulation time: 1 hr 8 min 50 sec) 
Heartbeat CPU 0 instructions: 112000000 cycles: 116841970 heartbeat IPC: 0.681121 cumulative IPC: 0.637824 (Simulation time: 1 hr 9 min 27 sec) 
Heartbeat CPU 0 instructions: 113000001 cycles: 118293770 heartbeat IPC: 0.688801 cumulative IPC: 0.638575 (Simulation time: 1 hr 10 min 7 sec) 
Heartbeat CPU 0 instructions: 114000001 cycles: 119774057 heartbeat IPC: 0.675545 cumulative IPC: 0.639121 (Simulation time: 1 hr 10 min 51 sec) 
Heartbeat CPU 0 instructions: 115000000 cycles: 121164741 heartbeat IPC: 0.71907 cumulative IPC: 0.640216 (Simulation time: 1 hr 11 min 26 sec) 
Heartbeat CPU 0 instructions: 116000000 cycles: 122663959 heartbeat IPC: 0.667014 cumulative IPC: 0.640606 (Simulation time: 1 hr 12 min 3 sec) 
Heartbeat CPU 0 instructions: 117000000 cycles: 124217881 heartbeat IPC: 0.643533 cumulative IPC: 0.64065 (Simulation time: 1 hr 12 min 39 sec) 
Heartbeat CPU 0 instructions: 118000002 cycles: 125687717 heartbeat IPC: 0.680349 cumulative IPC: 0.6412 (Simulation time: 1 hr 13 min 15 sec) 
Heartbeat CPU 0 instructions: 119000002 cycles: 127069347 heartbeat IPC: 0.723783 cumulative IPC: 0.642262 (Simulation time: 1 hr 13 min 49 sec) 
Heartbeat CPU 0 instructions: 120000000 cycles: 128580065 heartbeat IPC: 0.661936 cumulative IPC: 0.642535 (Simulation time: 1 hr 14 min 25 sec) 
Heartbeat CPU 0 instructions: 121000002 cycles: 130041313 heartbeat IPC: 0.684348 cumulative IPC: 0.643088 (Simulation time: 1 hr 15 min 11 sec) 
Heartbeat CPU 0 instructions: 122000002 cycles: 131431181 heartbeat IPC: 0.719493 cumulative IPC: 0.644038 (Simulation time: 1 hr 15 min 53 sec) 
Heartbeat CPU 0 instructions: 123000002 cycles: 132921930 heartbeat IPC: 0.670804 cumulative IPC: 0.64439 (Simulation time: 1 hr 16 min 37 sec) 
Heartbeat CPU 0 instructions: 124000000 cycles: 134477157 heartbeat IPC: 0.642992 cumulative IPC: 0.644371 (Simulation time: 1 hr 17 min 18 sec) 
Heartbeat CPU 0 instructions: 125000000 cycles: 135927713 heartbeat IPC: 0.689391 cumulative IPC: 0.644933 (Simulation time: 1 hr 17 min 59 sec) 
Heartbeat CPU 0 instructions: 126000002 cycles: 137425788 heartbeat IPC: 0.667525 cumulative IPC: 0.64522 (Simulation time: 1 hr 18 min 42 sec) 
Heartbeat CPU 0 instructions: 127000000 cycles: 139089295 heartbeat IPC: 0.601138 cumulative IPC: 0.644606 (Simulation time: 1 hr 19 min 22 sec) 
Heartbeat CPU 0 instructions: 128000000 cycles: 140495509 heartbeat IPC: 0.711129 cumulative IPC: 0.64538 (Simulation time: 1 hr 19 min 59 sec) 
Heartbeat CPU 0 instructions: 129000000 cycles: 141973233 heartbeat IPC: 0.676716 cumulative IPC: 0.645759 (Simulation time: 1 hr 20 min 36 sec) 
Heartbeat CPU 0 instructions: 130000000 cycles: 143637621 heartbeat IPC: 0.600821 cumulative IPC: 0.645156 (Simulation time: 1 hr 21 min 15 sec) 
Heartbeat CPU 0 instructions: 131000000 cycles: 145082018 heartbeat IPC: 0.69233 cumulative IPC: 0.645699 (Simulation time: 1 hr 21 min 51 sec) 
Heartbeat CPU 0 instructions: 132000000 cycles: 146512265 heartbeat IPC: 0.69918 cumulative IPC: 0.646302 (Simulation time: 1 hr 22 min 22 sec) 
Heartbeat CPU 0 instructions: 133000001 cycles: 148170129 heartbeat IPC: 0.603186 cumulative IPC: 0.645746 (Simulation time: 1 hr 22 min 59 sec) 
Heartbeat CPU 0 instructions: 134000000 cycles: 149562955 heartbeat IPC: 0.717964 cumulative IPC: 0.64652 (Simulation time: 1 hr 23 min 33 sec) 
Heartbeat CPU 0 instructions: 135000003 cycles: 151073632 heartbeat IPC: 0.661957 cumulative IPC: 0.646697 (Simulation time: 1 hr 24 min 3 sec) 
Heartbeat CPU 0 instructions: 136000000 cycles: 152704951 heartbeat IPC: 0.612999 cumulative IPC: 0.646284 (Simulation time: 1 hr 24 min 31 sec) 
Heartbeat CPU 0 instructions: 137000000 cycles: 154058524 heartbeat IPC: 0.738785 cumulative IPC: 0.647215 (Simulation time: 1 hr 24 min 55 sec) 
Heartbeat CPU 0 instructions: 138000003 cycles: 155465646 heartbeat IPC: 0.710673 cumulative IPC: 0.647873 (Simulation time: 1 hr 25 min 21 sec) 
Heartbeat CPU 0 instructions: 139000000 cycles: 157134969 heartbeat IPC: 0.599043 cumulative IPC: 0.64728 (Simulation time: 1 hr 25 min 52 sec) 
Heartbeat CPU 0 instructions: 140000000 cycles: 158609642 heartbeat IPC: 0.678116 cumulative IPC: 0.647607 (Simulation time: 1 hr 26 min 27 sec) 
Heartbeat CPU 0 instructions: 141000001 cycles: 160103734 heartbeat IPC: 0.669303 cumulative IPC: 0.647838 (Simulation time: 1 hr 26 min 58 sec) 
Heartbeat CPU 0 instructions: 142000003 cycles: 161789584 heartbeat IPC: 0.593174 cumulative IPC: 0.64719 (Simulation time: 1 hr 27 min 25 sec) 
Heartbeat CPU 0 instructions: 143000000 cycles: 163249608 heartbeat IPC: 0.684918 cumulative IPC: 0.647573 (Simulation time: 1 hr 27 min 51 sec) 
Heartbeat CPU 0 instructions: 144000000 cycles: 164709725 heartbeat IPC: 0.684877 cumulative IPC: 0.647949 (Simulation time: 1 hr 28 min 17 sec) 
Heartbeat CPU 0 instructions: 145000000 cycles: 166396076 heartbeat IPC: 0.592996 cumulative IPC: 0.647317 (Simulation time: 1 hr 28 min 42 sec) 
Heartbeat CPU 0 instructions: 146000003 cycles: 167771087 heartbeat IPC: 0.727269 cumulative IPC: 0.648059 (Simulation time: 1 hr 29 min 4 sec) 
Heartbeat CPU 0 instructions: 147000000 cycles: 169182686 heartbeat IPC: 0.708414 cumulative IPC: 0.648629 (Simulation time: 1 hr 29 min 27 sec) 
Heartbeat CPU 0 instructions: 148000000 cycles: 170937677 heartbeat IPC: 0.569803 cumulative IPC: 0.647715 (Simulation time: 1 hr 29 min 54 sec) 
Heartbeat CPU 0 instructions: 149000001 cycles: 172367161 heartbeat IPC: 0.699554 cumulative IPC: 0.6482 (Simulation time: 1 hr 30 min 17 sec) 
Heartbeat CPU 0 instructions: 150000000 cycles: 173808969 heartbeat IPC: 0.693573 cumulative IPC: 0.648624 (Simulation time: 1 hr 30 min 41 sec) 
Finished CPU 0 instructions: 100000003 cycles: 154172475 cummulative IPC: 0.648624 (Simulation time: 1 hr 30 min 41 sec) 

ChampSim completed all CPUs

Region of Interest Statistics

CPU 0 cummulative IPC: 0.648624 instructions: 100000003 cycles: 154172475
LLC TOTAL     ACCESS:    5972948  HIT:    1918546  MISS:    4054402
LLC LOAD      ACCESS:     433514  HIT:      16071  MISS:     417443
LLC RFO       ACCESS:    2551860  HIT:     658633  MISS:    1893227
LLC PREFETCH  ACCESS:     435412  HIT:      20900  MISS:     414512
LLC WRITEBACK ACCESS:    2552162  HIT:    1222942  MISS:    1329220
OPTgen accesses: 66961
OPTgen hits: 21944
OPTgen hit rate: 32.7713


