
*** ChampSim Multicore Out-of-Order Simulator ***

Warmup Instructions: 50000000
Simulation Instructions: 100000000
Configuration: 2
Number of CPUs: 1
LLC sets: 2048
LLC ways: 16
Off-chip DRAM Channels: 1 Width: 64-bit Data Rate: 1600 MT/s

CPU 0 runs /datasets/cs240c-wi22-a00-public/data/Assignment2-gz/gcc_13B.trace.gz
CPU 0 L1D next line prefetcher
CPU 0 L2C IP-based stride prefetcher
Initialize Hawkeye state
Heartbeat CPU 0 instructions: 1000000 cycles: 633312 heartbeat IPC: 1.579 cumulative IPC: 1.579 (Simulation time: 0 hr 0 min 45 sec) 
Heartbeat CPU 0 instructions: 2000001 cycles: 1243574 heartbeat IPC: 1.63864 cumulative IPC: 1.60827 (Simulation time: 0 hr 1 min 34 sec) 
Heartbeat CPU 0 instructions: 3000001 cycles: 1717445 heartbeat IPC: 2.11028 cumulative IPC: 1.74678 (Simulation time: 0 hr 2 min 16 sec) 
Heartbeat CPU 0 instructions: 4000000 cycles: 2191038 heartbeat IPC: 2.11152 cumulative IPC: 1.82562 (Simulation time: 0 hr 3 min 0 sec) 
Heartbeat CPU 0 instructions: 5000002 cycles: 2665153 heartbeat IPC: 2.1092 cumulative IPC: 1.87607 (Simulation time: 0 hr 3 min 35 sec) 
Heartbeat CPU 0 instructions: 6000002 cycles: 3139017 heartbeat IPC: 2.11031 cumulative IPC: 1.91143 (Simulation time: 0 hr 4 min 11 sec) 
Heartbeat CPU 0 instructions: 7000001 cycles: 3614392 heartbeat IPC: 2.1036 cumulative IPC: 1.9367 (Simulation time: 0 hr 4 min 47 sec) 
Heartbeat CPU 0 instructions: 8000000 cycles: 4091520 heartbeat IPC: 2.09587 cumulative IPC: 1.95526 (Simulation time: 0 hr 5 min 31 sec) 
Heartbeat CPU 0 instructions: 9000001 cycles: 4832515 heartbeat IPC: 1.34954 cumulative IPC: 1.86238 (Simulation time: 0 hr 6 min 13 sec) 
Heartbeat CPU 0 instructions: 10000001 cycles: 5537351 heartbeat IPC: 1.41877 cumulative IPC: 1.80592 (Simulation time: 0 hr 6 min 53 sec) 
Heartbeat CPU 0 instructions: 11000002 cycles: 6158357 heartbeat IPC: 1.61029 cumulative IPC: 1.78619 (Simulation time: 0 hr 7 min 37 sec) 
Heartbeat CPU 0 instructions: 12000000 cycles: 6772193 heartbeat IPC: 1.6291 cumulative IPC: 1.77195 (Simulation time: 0 hr 8 min 24 sec) 
Heartbeat CPU 0 instructions: 13000000 cycles: 7378192 heartbeat IPC: 1.65017 cumulative IPC: 1.76195 (Simulation time: 0 hr 9 min 7 sec) 
Heartbeat CPU 0 instructions: 14000000 cycles: 8017919 heartbeat IPC: 1.56317 cumulative IPC: 1.74609 (Simulation time: 0 hr 9 min 53 sec) 
Heartbeat CPU 0 instructions: 15000001 cycles: 8617130 heartbeat IPC: 1.66886 cumulative IPC: 1.74072 (Simulation time: 0 hr 10 min 34 sec) 
Heartbeat CPU 0 instructions: 16000000 cycles: 9090306 heartbeat IPC: 2.11338 cumulative IPC: 1.76012 (Simulation time: 0 hr 11 min 9 sec) 
Heartbeat CPU 0 instructions: 17000000 cycles: 9564127 heartbeat IPC: 2.1105 cumulative IPC: 1.77748 (Simulation time: 0 hr 11 min 47 sec) 
Heartbeat CPU 0 instructions: 18000000 cycles: 10037953 heartbeat IPC: 2.11048 cumulative IPC: 1.79319 (Simulation time: 0 hr 12 min 25 sec) 
Heartbeat CPU 0 instructions: 19000002 cycles: 10511842 heartbeat IPC: 2.1102 cumulative IPC: 1.80749 (Simulation time: 0 hr 13 min 7 sec) 
Heartbeat CPU 0 instructions: 20000000 cycles: 10987673 heartbeat IPC: 2.10158 cumulative IPC: 1.82022 (Simulation time: 0 hr 13 min 47 sec) 
Heartbeat CPU 0 instructions: 21000001 cycles: 11469020 heartbeat IPC: 2.07751 cumulative IPC: 1.83102 (Simulation time: 0 hr 14 min 26 sec) 
Heartbeat CPU 0 instructions: 22000000 cycles: 12206133 heartbeat IPC: 1.35664 cumulative IPC: 1.80237 (Simulation time: 0 hr 15 min 14 sec) 
Heartbeat CPU 0 instructions: 23000002 cycles: 12903228 heartbeat IPC: 1.43453 cumulative IPC: 1.7825 (Simulation time: 0 hr 15 min 56 sec) 
Heartbeat CPU 0 instructions: 24000000 cycles: 13522818 heartbeat IPC: 1.61397 cumulative IPC: 1.77478 (Simulation time: 0 hr 16 min 37 sec) 
Heartbeat CPU 0 instructions: 25000000 cycles: 14137601 heartbeat IPC: 1.62659 cumulative IPC: 1.76833 (Simulation time: 0 hr 17 min 17 sec) 
Heartbeat CPU 0 instructions: 26000002 cycles: 14744524 heartbeat IPC: 1.64766 cumulative IPC: 1.76337 (Simulation time: 0 hr 18 min 1 sec) 
Heartbeat CPU 0 instructions: 27000001 cycles: 15394967 heartbeat IPC: 1.53741 cumulative IPC: 1.75382 (Simulation time: 0 hr 18 min 42 sec) 
Heartbeat CPU 0 instructions: 28000000 cycles: 15977447 heartbeat IPC: 1.7168 cumulative IPC: 1.75247 (Simulation time: 0 hr 19 min 21 sec) 
Heartbeat CPU 0 instructions: 29000001 cycles: 16450930 heartbeat IPC: 2.11201 cumulative IPC: 1.76282 (Simulation time: 0 hr 20 min 2 sec) 
Heartbeat CPU 0 instructions: 30000000 cycles: 16924501 heartbeat IPC: 2.11161 cumulative IPC: 1.77258 (Simulation time: 0 hr 20 min 39 sec) 
Heartbeat CPU 0 instructions: 31000000 cycles: 17398484 heartbeat IPC: 2.10978 cumulative IPC: 1.78176 (Simulation time: 0 hr 21 min 20 sec) 
Heartbeat CPU 0 instructions: 32000000 cycles: 17872418 heartbeat IPC: 2.11 cumulative IPC: 1.79047 (Simulation time: 0 hr 21 min 54 sec) 
Heartbeat CPU 0 instructions: 33000002 cycles: 18348125 heartbeat IPC: 2.10214 cumulative IPC: 1.79855 (Simulation time: 0 hr 22 min 29 sec) 
Heartbeat CPU 0 instructions: 34000001 cycles: 18822039 heartbeat IPC: 2.11009 cumulative IPC: 1.80639 (Simulation time: 0 hr 23 min 5 sec) 
Heartbeat CPU 0 instructions: 35000000 cycles: 19466854 heartbeat IPC: 1.55083 cumulative IPC: 1.79793 (Simulation time: 0 hr 23 min 50 sec) 
Heartbeat CPU 0 instructions: 36000000 cycles: 20151393 heartbeat IPC: 1.46084 cumulative IPC: 1.78648 (Simulation time: 0 hr 24 min 31 sec) 
Heartbeat CPU 0 instructions: 37000003 cycles: 20836218 heartbeat IPC: 1.46023 cumulative IPC: 1.77575 (Simulation time: 0 hr 25 min 19 sec) 
Heartbeat CPU 0 instructions: 38000000 cycles: 21521415 heartbeat IPC: 1.45943 cumulative IPC: 1.76568 (Simulation time: 0 hr 25 min 59 sec) 
Heartbeat CPU 0 instructions: 39000002 cycles: 22205883 heartbeat IPC: 1.46099 cumulative IPC: 1.75629 (Simulation time: 0 hr 26 min 40 sec) 
Heartbeat CPU 0 instructions: 40000000 cycles: 22891327 heartbeat IPC: 1.45891 cumulative IPC: 1.74739 (Simulation time: 0 hr 27 min 16 sec) 
Heartbeat CPU 0 instructions: 41000000 cycles: 23576581 heartbeat IPC: 1.45931 cumulative IPC: 1.73901 (Simulation time: 0 hr 27 min 57 sec) 
Heartbeat CPU 0 instructions: 42000000 cycles: 24261243 heartbeat IPC: 1.46057 cumulative IPC: 1.73116 (Simulation time: 0 hr 28 min 32 sec) 
Heartbeat CPU 0 instructions: 43000002 cycles: 24946319 heartbeat IPC: 1.45969 cumulative IPC: 1.7237 (Simulation time: 0 hr 29 min 11 sec) 
Heartbeat CPU 0 instructions: 44000000 cycles: 25631393 heartbeat IPC: 1.45969 cumulative IPC: 1.71664 (Simulation time: 0 hr 29 min 53 sec) 
Heartbeat CPU 0 instructions: 45000000 cycles: 26317143 heartbeat IPC: 1.45826 cumulative IPC: 1.70991 (Simulation time: 0 hr 30 min 31 sec) 
Heartbeat CPU 0 instructions: 46000002 cycles: 27002396 heartbeat IPC: 1.45932 cumulative IPC: 1.70355 (Simulation time: 0 hr 31 min 11 sec) 
Heartbeat CPU 0 instructions: 47000001 cycles: 27687086 heartbeat IPC: 1.46051 cumulative IPC: 1.69754 (Simulation time: 0 hr 31 min 47 sec) 
Heartbeat CPU 0 instructions: 48000000 cycles: 28371378 heartbeat IPC: 1.46136 cumulative IPC: 1.69185 (Simulation time: 0 hr 32 min 25 sec) 
Heartbeat CPU 0 instructions: 49000000 cycles: 29056578 heartbeat IPC: 1.45943 cumulative IPC: 1.68637 (Simulation time: 0 hr 33 min 8 sec) 
Heartbeat CPU 0 instructions: 50000003 cycles: 29740878 heartbeat IPC: 1.46135 cumulative IPC: 1.68119 (Simulation time: 0 hr 33 min 47 sec) 

Warmup complete CPU 0 instructions: 50000003 cycles: 29740878 (Simulation time: 0 hr 33 min 47 sec) 

Heartbeat CPU 0 instructions: 51000001 cycles: 33321506 heartbeat IPC: 0.27928 cumulative IPC: 0.27928 (Simulation time: 0 hr 34 min 32 sec) 
Heartbeat CPU 0 instructions: 52000000 cycles: 36887230 heartbeat IPC: 0.280448 cumulative IPC: 0.279863 (Simulation time: 0 hr 35 min 18 sec) 
Heartbeat CPU 0 instructions: 53000001 cycles: 40469020 heartbeat IPC: 0.27919 cumulative IPC: 0.279638 (Simulation time: 0 hr 35 min 59 sec) 
Heartbeat CPU 0 instructions: 54000000 cycles: 44043124 heartbeat IPC: 0.27979 cumulative IPC: 0.279676 (Simulation time: 0 hr 36 min 38 sec) 
Heartbeat CPU 0 instructions: 55000000 cycles: 47627174 heartbeat IPC: 0.279014 cumulative IPC: 0.279543 (Simulation time: 0 hr 37 min 19 sec) 
Heartbeat CPU 0 instructions: 56000000 cycles: 51200207 heartbeat IPC: 0.279874 cumulative IPC: 0.279599 (Simulation time: 0 hr 38 min 9 sec) 
Heartbeat CPU 0 instructions: 57000002 cycles: 54740272 heartbeat IPC: 0.282481 cumulative IPC: 0.280007 (Simulation time: 0 hr 38 min 51 sec) 
Heartbeat CPU 0 instructions: 58000001 cycles: 58286246 heartbeat IPC: 0.28201 cumulative IPC: 0.280256 (Simulation time: 0 hr 39 min 35 sec) 
Heartbeat CPU 0 instructions: 59000003 cycles: 61805462 heartbeat IPC: 0.284155 cumulative IPC: 0.280684 (Simulation time: 0 hr 40 min 27 sec) 
Heartbeat CPU 0 instructions: 60000000 cycles: 65320685 heartbeat IPC: 0.284476 cumulative IPC: 0.281058 (Simulation time: 0 hr 41 min 9 sec) 
Heartbeat CPU 0 instructions: 61000000 cycles: 68832080 heartbeat IPC: 0.284787 cumulative IPC: 0.281393 (Simulation time: 0 hr 41 min 54 sec) 
Heartbeat CPU 0 instructions: 62000003 cycles: 72340515 heartbeat IPC: 0.285028 cumulative IPC: 0.281693 (Simulation time: 0 hr 42 min 43 sec) 
Heartbeat CPU 0 instructions: 63000001 cycles: 75850833 heartbeat IPC: 0.284874 cumulative IPC: 0.281935 (Simulation time: 0 hr 43 min 27 sec) 
Heartbeat CPU 0 instructions: 64000000 cycles: 79380149 heartbeat IPC: 0.283341 cumulative IPC: 0.282035 (Simulation time: 0 hr 44 min 15 sec) 
Heartbeat CPU 0 instructions: 65000000 cycles: 82949146 heartbeat IPC: 0.280191 cumulative IPC: 0.281911 (Simulation time: 0 hr 45 min 3 sec) 
Heartbeat CPU 0 instructions: 66000000 cycles: 86524510 heartbeat IPC: 0.279692 cumulative IPC: 0.281771 (Simulation time: 0 hr 45 min 57 sec) 
Heartbeat CPU 0 instructions: 67000001 cycles: 90134221 heartbeat IPC: 0.277031 cumulative IPC: 0.281488 (Simulation time: 0 hr 46 min 40 sec) 
Heartbeat CPU 0 instructions: 68000000 cycles: 93776948 heartbeat IPC: 0.274519 cumulative IPC: 0.281092 (Simulation time: 0 hr 47 min 29 sec) 
Heartbeat CPU 0 instructions: 69000003 cycles: 97497029 heartbeat IPC: 0.268812 cumulative IPC: 0.280417 (Simulation time: 0 hr 48 min 23 sec) 
Heartbeat CPU 0 instructions: 70000000 cycles: 101304672 heartbeat IPC: 0.262629 cumulative IPC: 0.279471 (Simulation time: 0 hr 49 min 15 sec) 
Heartbeat CPU 0 instructions: 71000002 cycles: 104907916 heartbeat IPC: 0.277528 cumulative IPC: 0.279378 (Simulation time: 0 hr 49 min 59 sec) 
Heartbeat CPU 0 instructions: 72000000 cycles: 108473514 heartbeat IPC: 0.280457 cumulative IPC: 0.279427 (Simulation time: 0 hr 50 min 48 sec) 
Heartbeat CPU 0 instructions: 73000003 cycles: 112046162 heartbeat IPC: 0.279905 cumulative IPC: 0.279447 (Simulation time: 0 hr 51 min 41 sec) 
Heartbeat CPU 0 instructions: 74000000 cycles: 115637928 heartbeat IPC: 0.278414 cumulative IPC: 0.279404 (Simulation time: 0 hr 52 min 32 sec) 
Heartbeat CPU 0 instructions: 75000000 cycles: 119232393 heartbeat IPC: 0.278206 cumulative IPC: 0.279356 (Simulation time: 0 hr 53 min 16 sec) 
Heartbeat CPU 0 instructions: 76000000 cycles: 122850934 heartbeat IPC: 0.276354 cumulative IPC: 0.279239 (Simulation time: 0 hr 54 min 0 sec) 
Heartbeat CPU 0 instructions: 77000000 cycles: 126444048 heartbeat IPC: 0.27831 cumulative IPC: 0.279205 (Simulation time: 0 hr 54 min 45 sec) 
Heartbeat CPU 0 instructions: 78000003 cycles: 129986178 heartbeat IPC: 0.282317 cumulative IPC: 0.279315 (Simulation time: 0 hr 55 min 36 sec) 
Heartbeat CPU 0 instructions: 79000000 cycles: 133558553 heartbeat IPC: 0.279925 cumulative IPC: 0.279336 (Simulation time: 0 hr 56 min 25 sec) 
Heartbeat CPU 0 instructions: 80000000 cycles: 137097613 heartbeat IPC: 0.282561 cumulative IPC: 0.279442 (Simulation time: 0 hr 57 min 17 sec) 
Heartbeat CPU 0 instructions: 81000001 cycles: 140624374 heartbeat IPC: 0.283547 cumulative IPC: 0.279573 (Simulation time: 0 hr 58 min 7 sec) 
Heartbeat CPU 0 instructions: 82000000 cycles: 144155537 heartbeat IPC: 0.283193 cumulative IPC: 0.279684 (Simulation time: 0 hr 58 min 54 sec) 
Heartbeat CPU 0 instructions: 83000003 cycles: 147706638 heartbeat IPC: 0.281604 cumulative IPC: 0.279742 (Simulation time: 0 hr 59 min 40 sec) 
Heartbeat CPU 0 instructions: 84000000 cycles: 151240166 heartbeat IPC: 0.283002 cumulative IPC: 0.279837 (Simulation time: 1 hr 0 min 31 sec) 
Heartbeat CPU 0 instructions: 85000000 cycles: 154768998 heartbeat IPC: 0.28338 cumulative IPC: 0.279937 (Simulation time: 1 hr 1 min 23 sec) 
Heartbeat CPU 0 instructions: 86000001 cycles: 158310381 heartbeat IPC: 0.282376 cumulative IPC: 0.280004 (Simulation time: 1 hr 2 min 8 sec) 
Heartbeat CPU 0 instructions: 87000001 cycles: 161858086 heartbeat IPC: 0.281872 cumulative IPC: 0.280054 (Simulation time: 1 hr 2 min 53 sec) 
Heartbeat CPU 0 instructions: 88000000 cycles: 165395141 heartbeat IPC: 0.282721 cumulative IPC: 0.280124 (Simulation time: 1 hr 3 min 46 sec) 
Heartbeat CPU 0 instructions: 89000003 cycles: 168931116 heartbeat IPC: 0.282808 cumulative IPC: 0.280192 (Simulation time: 1 hr 4 min 33 sec) 
Heartbeat CPU 0 instructions: 90000000 cycles: 172468333 heartbeat IPC: 0.282707 cumulative IPC: 0.280254 (Simulation time: 1 hr 5 min 20 sec) 
Heartbeat CPU 0 instructions: 91000000 cycles: 175994299 heartbeat IPC: 0.28361 cumulative IPC: 0.280335 (Simulation time: 1 hr 6 min 10 sec) 
Heartbeat CPU 0 instructions: 92000000 cycles: 179501907 heartbeat IPC: 0.285095 cumulative IPC: 0.280447 (Simulation time: 1 hr 7 min 8 sec) 
Heartbeat CPU 0 instructions: 93000001 cycles: 183013816 heartbeat IPC: 0.284746 cumulative IPC: 0.280545 (Simulation time: 1 hr 8 min 7 sec) 
Heartbeat CPU 0 instructions: 94000003 cycles: 186516148 heartbeat IPC: 0.285525 cumulative IPC: 0.280657 (Simulation time: 1 hr 9 min 1 sec) 
Heartbeat CPU 0 instructions: 95000002 cycles: 190023663 heartbeat IPC: 0.285102 cumulative IPC: 0.280754 (Simulation time: 1 hr 9 min 59 sec) 
Heartbeat CPU 0 instructions: 96000000 cycles: 193514818 heartbeat IPC: 0.286438 cumulative IPC: 0.280875 (Simulation time: 1 hr 10 min 46 sec) 
Heartbeat CPU 0 instructions: 97000000 cycles: 197006087 heartbeat IPC: 0.286429 cumulative IPC: 0.280991 (Simulation time: 1 hr 11 min 32 sec) 
Heartbeat CPU 0 instructions: 98000000 cycles: 200491132 heartbeat IPC: 0.28694 cumulative IPC: 0.281112 (Simulation time: 1 hr 12 min 17 sec) 
Heartbeat CPU 0 instructions: 99000000 cycles: 203996351 heartbeat IPC: 0.285289 cumulative IPC: 0.281196 (Simulation time: 1 hr 13 min 5 sec) 
Heartbeat CPU 0 instructions: 100000000 cycles: 207531383 heartbeat IPC: 0.282883 cumulative IPC: 0.28123 (Simulation time: 1 hr 13 min 47 sec) 
Heartbeat CPU 0 instructions: 101000003 cycles: 211043657 heartbeat IPC: 0.284717 cumulative IPC: 0.281297 (Simulation time: 1 hr 14 min 32 sec) 
Heartbeat CPU 0 instructions: 102000000 cycles: 215068682 heartbeat IPC: 0.248445 cumulative IPC: 0.280584 (Simulation time: 1 hr 15 min 21 sec) 
Heartbeat CPU 0 instructions: 103000002 cycles: 219386387 heartbeat IPC: 0.231605 cumulative IPC: 0.279469 (Simulation time: 1 hr 16 min 6 sec) 
Heartbeat CPU 0 instructions: 104000000 cycles: 223487180 heartbeat IPC: 0.243855 cumulative IPC: 0.278715 (Simulation time: 1 hr 16 min 51 sec) 
Heartbeat CPU 0 instructions: 105000000 cycles: 227384394 heartbeat IPC: 0.256594 cumulative IPC: 0.278279 (Simulation time: 1 hr 17 min 30 sec) 
Heartbeat CPU 0 instructions: 106000002 cycles: 231243764 heartbeat IPC: 0.25911 cumulative IPC: 0.277912 (Simulation time: 1 hr 18 min 10 sec) 
Heartbeat CPU 0 instructions: 107000001 cycles: 235154418 heartbeat IPC: 0.255711 cumulative IPC: 0.277489 (Simulation time: 1 hr 18 min 54 sec) 
Heartbeat CPU 0 instructions: 108000000 cycles: 238948304 heartbeat IPC: 0.263582 cumulative IPC: 0.277237 (Simulation time: 1 hr 19 min 37 sec) 
Heartbeat CPU 0 instructions: 109000000 cycles: 242654368 heartbeat IPC: 0.269828 cumulative IPC: 0.277108 (Simulation time: 1 hr 20 min 15 sec) 
Heartbeat CPU 0 instructions: 110000002 cycles: 246329242 heartbeat IPC: 0.272119 cumulative IPC: 0.277023 (Simulation time: 1 hr 20 min 55 sec) 
Heartbeat CPU 0 instructions: 111000000 cycles: 249975089 heartbeat IPC: 0.274284 cumulative IPC: 0.276978 (Simulation time: 1 hr 21 min 31 sec) 
Heartbeat CPU 0 instructions: 112000000 cycles: 253616480 heartbeat IPC: 0.27462 cumulative IPC: 0.27694 (Simulation time: 1 hr 22 min 16 sec) 
Heartbeat CPU 0 instructions: 113000001 cycles: 257257972 heartbeat IPC: 0.274613 cumulative IPC: 0.276902 (Simulation time: 1 hr 22 min 55 sec) 
Heartbeat CPU 0 instructions: 114000000 cycles: 260885234 heartbeat IPC: 0.27569 cumulative IPC: 0.276883 (Simulation time: 1 hr 23 min 31 sec) 
Heartbeat CPU 0 instructions: 115000003 cycles: 264445155 heartbeat IPC: 0.280906 cumulative IPC: 0.276944 (Simulation time: 1 hr 24 min 14 sec) 
Heartbeat CPU 0 instructions: 116000000 cycles: 267963008 heartbeat IPC: 0.284263 cumulative IPC: 0.277052 (Simulation time: 1 hr 24 min 52 sec) 
Heartbeat CPU 0 instructions: 117000001 cycles: 271478575 heartbeat IPC: 0.284449 cumulative IPC: 0.27716 (Simulation time: 1 hr 25 min 21 sec) 
Heartbeat CPU 0 instructions: 118000000 cycles: 274995817 heartbeat IPC: 0.284313 cumulative IPC: 0.277263 (Simulation time: 1 hr 25 min 54 sec) 
Heartbeat CPU 0 instructions: 119000001 cycles: 278702088 heartbeat IPC: 0.269813 cumulative IPC: 0.277152 (Simulation time: 1 hr 26 min 25 sec) 
Heartbeat CPU 0 instructions: 120000000 cycles: 283660351 heartbeat IPC: 0.201683 cumulative IPC: 0.275678 (Simulation time: 1 hr 26 min 59 sec) 
Heartbeat CPU 0 instructions: 121000001 cycles: 289571638 heartbeat IPC: 0.169168 cumulative IPC: 0.273255 (Simulation time: 1 hr 27 min 35 sec) 
Heartbeat CPU 0 instructions: 122000000 cycles: 295219145 heartbeat IPC: 0.177069 cumulative IPC: 0.271209 (Simulation time: 1 hr 28 min 12 sec) 
Heartbeat CPU 0 instructions: 123000001 cycles: 300851776 heartbeat IPC: 0.177537 cumulative IPC: 0.269262 (Simulation time: 1 hr 28 min 47 sec) 
Heartbeat CPU 0 instructions: 124000000 cycles: 306401134 heartbeat IPC: 0.180201 cumulative IPC: 0.267476 (Simulation time: 1 hr 29 min 21 sec) 
Heartbeat CPU 0 instructions: 125000003 cycles: 311856230 heartbeat IPC: 0.183315 cumulative IPC: 0.265849 (Simulation time: 1 hr 29 min 58 sec) 
Heartbeat CPU 0 instructions: 126000000 cycles: 317295994 heartbeat IPC: 0.183831 cumulative IPC: 0.264297 (Simulation time: 1 hr 30 min 31 sec) 
Heartbeat CPU 0 instructions: 127000003 cycles: 322742730 heartbeat IPC: 0.183597 cumulative IPC: 0.262797 (Simulation time: 1 hr 31 min 4 sec) 
Heartbeat CPU 0 instructions: 128000000 cycles: 328077962 heartbeat IPC: 0.187433 cumulative IPC: 0.261449 (Simulation time: 1 hr 31 min 36 sec) 
Heartbeat CPU 0 instructions: 129000002 cycles: 333282938 heartbeat IPC: 0.192124 cumulative IPC: 0.26026 (Simulation time: 1 hr 32 min 7 sec) 
Heartbeat CPU 0 instructions: 130000000 cycles: 338466536 heartbeat IPC: 0.192916 cumulative IPC: 0.25913 (Simulation time: 1 hr 32 min 38 sec) 
Heartbeat CPU 0 instructions: 131000001 cycles: 343837774 heartbeat IPC: 0.186177 cumulative IPC: 0.257882 (Simulation time: 1 hr 33 min 7 sec) 
Heartbeat CPU 0 instructions: 132000000 cycles: 349388546 heartbeat IPC: 0.180155 cumulative IPC: 0.256532 (Simulation time: 1 hr 33 min 36 sec) 
Heartbeat CPU 0 instructions: 133000001 cycles: 355020713 heartbeat IPC: 0.177552 cumulative IPC: 0.255165 (Simulation time: 1 hr 34 min 7 sec) 
Heartbeat CPU 0 instructions: 134000002 cycles: 360227190 heartbeat IPC: 0.192069 cumulative IPC: 0.254171 (Simulation time: 1 hr 34 min 38 sec) 
Heartbeat CPU 0 instructions: 135000000 cycles: 365373193 heartbeat IPC: 0.194325 cumulative IPC: 0.253253 (Simulation time: 1 hr 35 min 4 sec) 
Heartbeat CPU 0 instructions: 136000000 cycles: 370535823 heartbeat IPC: 0.1937 cumulative IPC: 0.252351 (Simulation time: 1 hr 35 min 28 sec) 
Heartbeat CPU 0 instructions: 137000001 cycles: 375596850 heartbeat IPC: 0.197589 cumulative IPC: 0.25155 (Simulation time: 1 hr 35 min 54 sec) 
Heartbeat CPU 0 instructions: 138000002 cycles: 380562452 heartbeat IPC: 0.201386 cumulative IPC: 0.25084 (Simulation time: 1 hr 36 min 18 sec) 
Heartbeat CPU 0 instructions: 139000000 cycles: 385525181 heartbeat IPC: 0.201502 cumulative IPC: 0.250152 (Simulation time: 1 hr 36 min 43 sec) 
Heartbeat CPU 0 instructions: 140000000 cycles: 390485047 heartbeat IPC: 0.201618 cumulative IPC: 0.249484 (Simulation time: 1 hr 37 min 6 sec) 
Heartbeat CPU 0 instructions: 141000000 cycles: 395453365 heartbeat IPC: 0.201275 cumulative IPC: 0.248829 (Simulation time: 1 hr 37 min 30 sec) 
Heartbeat CPU 0 instructions: 142000000 cycles: 400360755 heartbeat IPC: 0.203774 cumulative IPC: 0.248233 (Simulation time: 1 hr 37 min 50 sec) 
Heartbeat CPU 0 instructions: 143000000 cycles: 405239033 heartbeat IPC: 0.20499 cumulative IPC: 0.247671 (Simulation time: 1 hr 38 min 8 sec) 
Heartbeat CPU 0 instructions: 144000000 cycles: 410106112 heartbeat IPC: 0.205462 cumulative IPC: 0.247131 (Simulation time: 1 hr 38 min 25 sec) 
Heartbeat CPU 0 instructions: 145000000 cycles: 414952987 heartbeat IPC: 0.206318 cumulative IPC: 0.246617 (Simulation time: 1 hr 38 min 41 sec) 
Heartbeat CPU 0 instructions: 146000000 cycles: 419878034 heartbeat IPC: 0.203044 cumulative IPC: 0.246067 (Simulation time: 1 hr 38 min 57 sec) 
Heartbeat CPU 0 instructions: 147000000 cycles: 423527855 heartbeat IPC: 0.273986 cumulative IPC: 0.246326 (Simulation time: 1 hr 39 min 14 sec) 
Heartbeat CPU 0 instructions: 148000000 cycles: 428661769 heartbeat IPC: 0.194783 cumulative IPC: 0.245663 (Simulation time: 1 hr 39 min 27 sec) 
Heartbeat CPU 0 instructions: 149000003 cycles: 433573996 heartbeat IPC: 0.203574 cumulative IPC: 0.245151 (Simulation time: 1 hr 39 min 41 sec) 
Heartbeat CPU 0 instructions: 150000001 cycles: 437913024 heartbeat IPC: 0.230466 cumulative IPC: 0.244995 (Simulation time: 1 hr 39 min 54 sec) 
Finished CPU 0 instructions: 100000002 cycles: 408172147 cummulative IPC: 0.244995 (Simulation time: 1 hr 39 min 54 sec) 

ChampSim completed all CPUs

Region of Interest Statistics

CPU 0 cummulative IPC: 0.244995 instructions: 100000002 cycles: 408172147
LLC TOTAL     ACCESS:    1690044  HIT:     122621  MISS:    1567423
LLC LOAD      ACCESS:     565218  HIT:      26784  MISS:     538434
LLC RFO       ACCESS:      88718  HIT:        627  MISS:      88091
LLC PREFETCH  ACCESS:     720307  HIT:      27536  MISS:     692771
LLC WRITEBACK ACCESS:     315801  HIT:      67674  MISS:     248127
OPTgen accesses: 23985
OPTgen hits: 4069
OPTgen hit rate: 16.9648


