
*** ChampSim Multicore Out-of-Order Simulator ***

Warmup Instructions: 50000000
Simulation Instructions: 100000000
Configuration: 2
Number of CPUs: 1
LLC sets: 2048
LLC ways: 16
Off-chip DRAM Channels: 1 Width: 64-bit Data Rate: 1600 MT/s

CPU 0 runs /datasets/cs240c-wi22-a00-public/data/Assignment2-gz/bzip2_281B.trace.gz
CPU 0 L1D next line prefetcher
CPU 0 L2C IP-based stride prefetcher
Initialize Hawkeye state
Heartbeat CPU 0 instructions: 1000000 cycles: 445877 heartbeat IPC: 2.24277 cumulative IPC: 2.24277 (Simulation time: 0 hr 0 min 32 sec) 
Heartbeat CPU 0 instructions: 2000003 cycles: 900175 heartbeat IPC: 2.20121 cumulative IPC: 2.22179 (Simulation time: 0 hr 1 min 5 sec) 
Heartbeat CPU 0 instructions: 3000002 cycles: 1315067 heartbeat IPC: 2.41026 cumulative IPC: 2.28125 (Simulation time: 0 hr 1 min 38 sec) 
Heartbeat CPU 0 instructions: 4000000 cycles: 1753556 heartbeat IPC: 2.28055 cumulative IPC: 2.28108 (Simulation time: 0 hr 2 min 8 sec) 
Heartbeat CPU 0 instructions: 5000002 cycles: 2175545 heartbeat IPC: 2.36973 cumulative IPC: 2.29828 (Simulation time: 0 hr 2 min 41 sec) 
Heartbeat CPU 0 instructions: 6000000 cycles: 2666194 heartbeat IPC: 2.03811 cumulative IPC: 2.2504 (Simulation time: 0 hr 3 min 19 sec) 
Heartbeat CPU 0 instructions: 7000001 cycles: 3193462 heartbeat IPC: 1.89657 cumulative IPC: 2.19198 (Simulation time: 0 hr 4 min 0 sec) 
Heartbeat CPU 0 instructions: 8000000 cycles: 3726055 heartbeat IPC: 1.8776 cumulative IPC: 2.14704 (Simulation time: 0 hr 4 min 35 sec) 
Heartbeat CPU 0 instructions: 9000000 cycles: 4232472 heartbeat IPC: 1.97466 cumulative IPC: 2.12642 (Simulation time: 0 hr 5 min 11 sec) 
Heartbeat CPU 0 instructions: 10000002 cycles: 4685414 heartbeat IPC: 2.20779 cumulative IPC: 2.13428 (Simulation time: 0 hr 5 min 43 sec) 
Heartbeat CPU 0 instructions: 11000000 cycles: 5132849 heartbeat IPC: 2.23496 cumulative IPC: 2.14306 (Simulation time: 0 hr 6 min 15 sec) 
Heartbeat CPU 0 instructions: 12000000 cycles: 5613900 heartbeat IPC: 2.07878 cumulative IPC: 2.13755 (Simulation time: 0 hr 6 min 55 sec) 
Heartbeat CPU 0 instructions: 13000001 cycles: 6025301 heartbeat IPC: 2.43072 cumulative IPC: 2.15757 (Simulation time: 0 hr 7 min 28 sec) 
Heartbeat CPU 0 instructions: 14000003 cycles: 6483761 heartbeat IPC: 2.18122 cumulative IPC: 2.15924 (Simulation time: 0 hr 8 min 0 sec) 
Heartbeat CPU 0 instructions: 15000003 cycles: 6944034 heartbeat IPC: 2.17262 cumulative IPC: 2.16013 (Simulation time: 0 hr 8 min 31 sec) 
Heartbeat CPU 0 instructions: 16000000 cycles: 7339867 heartbeat IPC: 2.52631 cumulative IPC: 2.17988 (Simulation time: 0 hr 9 min 1 sec) 
Heartbeat CPU 0 instructions: 17000000 cycles: 7729047 heartbeat IPC: 2.56951 cumulative IPC: 2.1995 (Simulation time: 0 hr 9 min 29 sec) 
Heartbeat CPU 0 instructions: 18000002 cycles: 8185071 heartbeat IPC: 2.19287 cumulative IPC: 2.19913 (Simulation time: 0 hr 10 min 7 sec) 
Heartbeat CPU 0 instructions: 19000000 cycles: 8631006 heartbeat IPC: 2.24247 cumulative IPC: 2.20137 (Simulation time: 0 hr 10 min 38 sec) 
Heartbeat CPU 0 instructions: 20000000 cycles: 9076004 heartbeat IPC: 2.2472 cumulative IPC: 2.20361 (Simulation time: 0 hr 11 min 14 sec) 
Heartbeat CPU 0 instructions: 21000000 cycles: 9463083 heartbeat IPC: 2.58345 cumulative IPC: 2.21915 (Simulation time: 0 hr 11 min 45 sec) 
Heartbeat CPU 0 instructions: 22000003 cycles: 9838936 heartbeat IPC: 2.66062 cumulative IPC: 2.23601 (Simulation time: 0 hr 12 min 12 sec) 
Heartbeat CPU 0 instructions: 23000001 cycles: 10291915 heartbeat IPC: 2.2076 cumulative IPC: 2.23476 (Simulation time: 0 hr 12 min 42 sec) 
Heartbeat CPU 0 instructions: 24000000 cycles: 10746543 heartbeat IPC: 2.1996 cumulative IPC: 2.23328 (Simulation time: 0 hr 13 min 16 sec) 
Heartbeat CPU 0 instructions: 25000001 cycles: 11090039 heartbeat IPC: 2.91124 cumulative IPC: 2.25428 (Simulation time: 0 hr 13 min 46 sec) 
Heartbeat CPU 0 instructions: 26000003 cycles: 11527678 heartbeat IPC: 2.28499 cumulative IPC: 2.25544 (Simulation time: 0 hr 14 min 28 sec) 
Heartbeat CPU 0 instructions: 27000003 cycles: 12000194 heartbeat IPC: 2.11633 cumulative IPC: 2.24996 (Simulation time: 0 hr 15 min 8 sec) 
Heartbeat CPU 0 instructions: 28000000 cycles: 12326696 heartbeat IPC: 3.06276 cumulative IPC: 2.27149 (Simulation time: 0 hr 15 min 37 sec) 
Heartbeat CPU 0 instructions: 29000001 cycles: 12623573 heartbeat IPC: 3.3684 cumulative IPC: 2.29729 (Simulation time: 0 hr 16 min 1 sec) 
Heartbeat CPU 0 instructions: 30000000 cycles: 12920447 heartbeat IPC: 3.36843 cumulative IPC: 2.3219 (Simulation time: 0 hr 16 min 24 sec) 
Heartbeat CPU 0 instructions: 31000000 cycles: 13262836 heartbeat IPC: 2.92065 cumulative IPC: 2.33736 (Simulation time: 0 hr 16 min 48 sec) 
Heartbeat CPU 0 instructions: 32000000 cycles: 13609379 heartbeat IPC: 2.88564 cumulative IPC: 2.35132 (Simulation time: 0 hr 17 min 15 sec) 
Heartbeat CPU 0 instructions: 33000001 cycles: 13967898 heartbeat IPC: 2.78926 cumulative IPC: 2.36256 (Simulation time: 0 hr 17 min 44 sec) 
Heartbeat CPU 0 instructions: 34000001 cycles: 14311493 heartbeat IPC: 2.9104 cumulative IPC: 2.37571 (Simulation time: 0 hr 18 min 7 sec) 
Heartbeat CPU 0 instructions: 35000003 cycles: 14652580 heartbeat IPC: 2.93181 cumulative IPC: 2.38866 (Simulation time: 0 hr 18 min 32 sec) 
Heartbeat CPU 0 instructions: 36000000 cycles: 14990948 heartbeat IPC: 2.95535 cumulative IPC: 2.40145 (Simulation time: 0 hr 18 min 55 sec) 
Heartbeat CPU 0 instructions: 37000000 cycles: 15330064 heartbeat IPC: 2.94884 cumulative IPC: 2.41356 (Simulation time: 0 hr 19 min 18 sec) 
Heartbeat CPU 0 instructions: 38000002 cycles: 15672121 heartbeat IPC: 2.9235 cumulative IPC: 2.42469 (Simulation time: 0 hr 19 min 42 sec) 
Heartbeat CPU 0 instructions: 39000001 cycles: 16011838 heartbeat IPC: 2.94362 cumulative IPC: 2.4357 (Simulation time: 0 hr 20 min 6 sec) 
Heartbeat CPU 0 instructions: 40000000 cycles: 16368175 heartbeat IPC: 2.80633 cumulative IPC: 2.44377 (Simulation time: 0 hr 20 min 30 sec) 
Heartbeat CPU 0 instructions: 41000000 cycles: 16711650 heartbeat IPC: 2.91142 cumulative IPC: 2.45338 (Simulation time: 0 hr 20 min 58 sec) 
Heartbeat CPU 0 instructions: 42000002 cycles: 17053274 heartbeat IPC: 2.9272 cumulative IPC: 2.46287 (Simulation time: 0 hr 21 min 24 sec) 
Heartbeat CPU 0 instructions: 43000000 cycles: 17389309 heartbeat IPC: 2.97587 cumulative IPC: 2.47278 (Simulation time: 0 hr 21 min 47 sec) 
Heartbeat CPU 0 instructions: 44000000 cycles: 17730072 heartbeat IPC: 2.93459 cumulative IPC: 2.48166 (Simulation time: 0 hr 22 min 15 sec) 
Heartbeat CPU 0 instructions: 45000001 cycles: 18066678 heartbeat IPC: 2.97084 cumulative IPC: 2.49077 (Simulation time: 0 hr 22 min 39 sec) 
Heartbeat CPU 0 instructions: 46000000 cycles: 18420121 heartbeat IPC: 2.82931 cumulative IPC: 2.49727 (Simulation time: 0 hr 23 min 5 sec) 
Heartbeat CPU 0 instructions: 47000003 cycles: 18769791 heartbeat IPC: 2.85985 cumulative IPC: 2.50402 (Simulation time: 0 hr 23 min 30 sec) 
Heartbeat CPU 0 instructions: 48000000 cycles: 19119714 heartbeat IPC: 2.85776 cumulative IPC: 2.5105 (Simulation time: 0 hr 23 min 57 sec) 
Heartbeat CPU 0 instructions: 49000003 cycles: 19475118 heartbeat IPC: 2.81371 cumulative IPC: 2.51603 (Simulation time: 0 hr 24 min 24 sec) 
Heartbeat CPU 0 instructions: 50000003 cycles: 19823379 heartbeat IPC: 2.87141 cumulative IPC: 2.52227 (Simulation time: 0 hr 24 min 50 sec) 

Warmup complete CPU 0 instructions: 50000003 cycles: 19823379 (Simulation time: 0 hr 24 min 50 sec) 

Heartbeat CPU 0 instructions: 51000002 cycles: 20780749 heartbeat IPC: 1.04453 cumulative IPC: 1.04453 (Simulation time: 0 hr 25 min 19 sec) 
Heartbeat CPU 0 instructions: 52000000 cycles: 21746096 heartbeat IPC: 1.03589 cumulative IPC: 1.04019 (Simulation time: 0 hr 25 min 50 sec) 
Heartbeat CPU 0 instructions: 53000001 cycles: 22724090 heartbeat IPC: 1.0225 cumulative IPC: 1.03423 (Simulation time: 0 hr 26 min 23 sec) 
Heartbeat CPU 0 instructions: 54000003 cycles: 23704428 heartbeat IPC: 1.02006 cumulative IPC: 1.03065 (Simulation time: 0 hr 26 min 56 sec) 
Heartbeat CPU 0 instructions: 55000000 cycles: 24668234 heartbeat IPC: 1.03755 cumulative IPC: 1.03202 (Simulation time: 0 hr 27 min 29 sec) 
Heartbeat CPU 0 instructions: 56000000 cycles: 25644296 heartbeat IPC: 1.02453 cumulative IPC: 1.03076 (Simulation time: 0 hr 28 min 3 sec) 
Heartbeat CPU 0 instructions: 57000002 cycles: 26611519 heartbeat IPC: 1.03389 cumulative IPC: 1.03121 (Simulation time: 0 hr 28 min 36 sec) 
Heartbeat CPU 0 instructions: 58000003 cycles: 27584321 heartbeat IPC: 1.02796 cumulative IPC: 1.0308 (Simulation time: 0 hr 29 min 14 sec) 
Heartbeat CPU 0 instructions: 59000003 cycles: 28612839 heartbeat IPC: 0.972273 cumulative IPC: 1.02395 (Simulation time: 0 hr 29 min 46 sec) 
Heartbeat CPU 0 instructions: 60000000 cycles: 29821955 heartbeat IPC: 0.827048 cumulative IPC: 1.00014 (Simulation time: 0 hr 30 min 31 sec) 
Heartbeat CPU 0 instructions: 61000000 cycles: 31029450 heartbeat IPC: 0.828161 cumulative IPC: 0.98161 (Simulation time: 0 hr 31 min 9 sec) 
Heartbeat CPU 0 instructions: 62000003 cycles: 32254583 heartbeat IPC: 0.81624 cumulative IPC: 0.965313 (Simulation time: 0 hr 31 min 47 sec) 
Heartbeat CPU 0 instructions: 63000001 cycles: 33486848 heartbeat IPC: 0.811512 cumulative IPC: 0.951442 (Simulation time: 0 hr 32 min 24 sec) 
Heartbeat CPU 0 instructions: 64000000 cycles: 34807885 heartbeat IPC: 0.75698 cumulative IPC: 0.934298 (Simulation time: 0 hr 32 min 59 sec) 
Heartbeat CPU 0 instructions: 65000001 cycles: 36011939 heartbeat IPC: 0.830528 cumulative IPC: 0.92658 (Simulation time: 0 hr 33 min 34 sec) 
Heartbeat CPU 0 instructions: 66000003 cycles: 37213849 heartbeat IPC: 0.832011 cumulative IPC: 0.920044 (Simulation time: 0 hr 34 min 11 sec) 
Heartbeat CPU 0 instructions: 67000000 cycles: 38425118 heartbeat IPC: 0.825578 cumulative IPC: 0.913893 (Simulation time: 0 hr 34 min 50 sec) 
Heartbeat CPU 0 instructions: 68000000 cycles: 39738760 heartbeat IPC: 0.761242 cumulative IPC: 0.903824 (Simulation time: 0 hr 35 min 24 sec) 
Heartbeat CPU 0 instructions: 69000000 cycles: 40935217 heartbeat IPC: 0.835801 cumulative IPC: 0.899969 (Simulation time: 0 hr 36 min 2 sec) 
Heartbeat CPU 0 instructions: 70000002 cycles: 42137431 heartbeat IPC: 0.8318 cumulative IPC: 0.896296 (Simulation time: 0 hr 36 min 37 sec) 
Heartbeat CPU 0 instructions: 71000003 cycles: 43344061 heartbeat IPC: 0.828755 cumulative IPC: 0.892831 (Simulation time: 0 hr 37 min 23 sec) 
Heartbeat CPU 0 instructions: 72000000 cycles: 44552062 heartbeat IPC: 0.827811 cumulative IPC: 0.889655 (Simulation time: 0 hr 37 min 58 sec) 
Heartbeat CPU 0 instructions: 73000002 cycles: 45855457 heartbeat IPC: 0.767229 cumulative IPC: 0.883525 (Simulation time: 0 hr 38 min 31 sec) 
Heartbeat CPU 0 instructions: 74000000 cycles: 47054946 heartbeat IPC: 0.833687 cumulative IPC: 0.88133 (Simulation time: 0 hr 39 min 7 sec) 
Heartbeat CPU 0 instructions: 75000001 cycles: 48256335 heartbeat IPC: 0.832371 cumulative IPC: 0.879261 (Simulation time: 0 hr 39 min 43 sec) 
Heartbeat CPU 0 instructions: 76000000 cycles: 49465632 heartbeat IPC: 0.826926 cumulative IPC: 0.877126 (Simulation time: 0 hr 40 min 27 sec) 
Heartbeat CPU 0 instructions: 77000001 cycles: 50722736 heartbeat IPC: 0.79548 cumulative IPC: 0.873805 (Simulation time: 0 hr 41 min 0 sec) 
Heartbeat CPU 0 instructions: 78000003 cycles: 51889231 heartbeat IPC: 0.857271 cumulative IPC: 0.873203 (Simulation time: 0 hr 41 min 24 sec) 
Heartbeat CPU 0 instructions: 79000000 cycles: 52808109 heartbeat IPC: 1.08828 cumulative IPC: 0.879195 (Simulation time: 0 hr 41 min 52 sec) 
Heartbeat CPU 0 instructions: 80000000 cycles: 53711556 heartbeat IPC: 1.10687 cumulative IPC: 0.885264 (Simulation time: 0 hr 42 min 17 sec) 
Heartbeat CPU 0 instructions: 81000000 cycles: 54557299 heartbeat IPC: 1.18239 cumulative IPC: 0.892499 (Simulation time: 0 hr 42 min 45 sec) 
Heartbeat CPU 0 instructions: 82000001 cycles: 55449323 heartbeat IPC: 1.12105 cumulative IPC: 0.898222 (Simulation time: 0 hr 43 min 13 sec) 
Heartbeat CPU 0 instructions: 83000000 cycles: 56373395 heartbeat IPC: 1.08217 cumulative IPC: 0.902872 (Simulation time: 0 hr 43 min 43 sec) 
Heartbeat CPU 0 instructions: 84000000 cycles: 57290229 heartbeat IPC: 1.09071 cumulative IPC: 0.907469 (Simulation time: 0 hr 44 min 8 sec) 
Heartbeat CPU 0 instructions: 85000002 cycles: 58224860 heartbeat IPC: 1.06994 cumulative IPC: 0.911423 (Simulation time: 0 hr 44 min 42 sec) 
Heartbeat CPU 0 instructions: 86000002 cycles: 59153883 heartbeat IPC: 1.0764 cumulative IPC: 0.91532 (Simulation time: 0 hr 45 min 20 sec) 
Heartbeat CPU 0 instructions: 87000002 cycles: 60082896 heartbeat IPC: 1.07641 cumulative IPC: 0.919037 (Simulation time: 0 hr 46 min 0 sec) 
Heartbeat CPU 0 instructions: 88000000 cycles: 61135494 heartbeat IPC: 0.950028 cumulative IPC: 0.919827 (Simulation time: 0 hr 46 min 43 sec) 
Heartbeat CPU 0 instructions: 89000002 cycles: 62233409 heartbeat IPC: 0.910819 cumulative IPC: 0.919594 (Simulation time: 0 hr 47 min 26 sec) 
Heartbeat CPU 0 instructions: 90000001 cycles: 63327464 heartbeat IPC: 0.91403 cumulative IPC: 0.919454 (Simulation time: 0 hr 48 min 12 sec) 
Heartbeat CPU 0 instructions: 91000001 cycles: 64430384 heartbeat IPC: 0.906684 cumulative IPC: 0.919138 (Simulation time: 0 hr 48 min 51 sec) 
Heartbeat CPU 0 instructions: 92000000 cycles: 65520098 heartbeat IPC: 0.917671 cumulative IPC: 0.919103 (Simulation time: 0 hr 49 min 32 sec) 
Heartbeat CPU 0 instructions: 93000001 cycles: 66605463 heartbeat IPC: 0.92135 cumulative IPC: 0.919155 (Simulation time: 0 hr 50 min 19 sec) 
Heartbeat CPU 0 instructions: 94000001 cycles: 67690883 heartbeat IPC: 0.921302 cumulative IPC: 0.919204 (Simulation time: 0 hr 50 min 59 sec) 
Heartbeat CPU 0 instructions: 95000000 cycles: 68781778 heartbeat IPC: 0.916678 cumulative IPC: 0.919148 (Simulation time: 0 hr 51 min 44 sec) 
Heartbeat CPU 0 instructions: 96000000 cycles: 69870816 heartbeat IPC: 0.918242 cumulative IPC: 0.919128 (Simulation time: 0 hr 52 min 18 sec) 
Heartbeat CPU 0 instructions: 97000002 cycles: 70958454 heartbeat IPC: 0.919425 cumulative IPC: 0.919134 (Simulation time: 0 hr 52 min 58 sec) 
Heartbeat CPU 0 instructions: 98000002 cycles: 72049359 heartbeat IPC: 0.91667 cumulative IPC: 0.919083 (Simulation time: 0 hr 53 min 37 sec) 
Heartbeat CPU 0 instructions: 99000000 cycles: 73139221 heartbeat IPC: 0.917545 cumulative IPC: 0.919051 (Simulation time: 0 hr 54 min 24 sec) 
Heartbeat CPU 0 instructions: 100000000 cycles: 74228423 heartbeat IPC: 0.918103 cumulative IPC: 0.919032 (Simulation time: 0 hr 55 min 3 sec) 
Heartbeat CPU 0 instructions: 101000000 cycles: 75320571 heartbeat IPC: 0.915627 cumulative IPC: 0.918965 (Simulation time: 0 hr 55 min 38 sec) 
Heartbeat CPU 0 instructions: 102000000 cycles: 76418670 heartbeat IPC: 0.910665 cumulative IPC: 0.918804 (Simulation time: 0 hr 56 min 16 sec) 
Heartbeat CPU 0 instructions: 103000002 cycles: 77515438 heartbeat IPC: 0.911772 cumulative IPC: 0.918671 (Simulation time: 0 hr 56 min 55 sec) 
Heartbeat CPU 0 instructions: 104000000 cycles: 78608732 heartbeat IPC: 0.914665 cumulative IPC: 0.918596 (Simulation time: 0 hr 57 min 36 sec) 
Heartbeat CPU 0 instructions: 105000003 cycles: 79702661 heartbeat IPC: 0.914139 cumulative IPC: 0.918515 (Simulation time: 0 hr 58 min 9 sec) 
Heartbeat CPU 0 instructions: 106000002 cycles: 80803152 heartbeat IPC: 0.908684 cumulative IPC: 0.918337 (Simulation time: 0 hr 58 min 53 sec) 
Heartbeat CPU 0 instructions: 107000001 cycles: 81890156 heartbeat IPC: 0.919959 cumulative IPC: 0.918366 (Simulation time: 0 hr 59 min 27 sec) 
Heartbeat CPU 0 instructions: 108000000 cycles: 82984526 heartbeat IPC: 0.913767 cumulative IPC: 0.918286 (Simulation time: 1 hr 0 min 1 sec) 
Heartbeat CPU 0 instructions: 109000001 cycles: 84079599 heartbeat IPC: 0.913182 cumulative IPC: 0.918199 (Simulation time: 1 hr 0 min 34 sec) 
Heartbeat CPU 0 instructions: 110000002 cycles: 85179220 heartbeat IPC: 0.909405 cumulative IPC: 0.918051 (Simulation time: 1 hr 1 min 13 sec) 
Heartbeat CPU 0 instructions: 111000000 cycles: 86269733 heartbeat IPC: 0.916998 cumulative IPC: 0.918034 (Simulation time: 1 hr 1 min 51 sec) 
Heartbeat CPU 0 instructions: 112000000 cycles: 87361013 heartbeat IPC: 0.916355 cumulative IPC: 0.918007 (Simulation time: 1 hr 2 min 30 sec) 
Heartbeat CPU 0 instructions: 113000002 cycles: 88451371 heartbeat IPC: 0.917132 cumulative IPC: 0.917993 (Simulation time: 1 hr 3 min 9 sec) 
Heartbeat CPU 0 instructions: 114000001 cycles: 89545007 heartbeat IPC: 0.91438 cumulative IPC: 0.917936 (Simulation time: 1 hr 3 min 42 sec) 
Heartbeat CPU 0 instructions: 115000001 cycles: 90634419 heartbeat IPC: 0.917926 cumulative IPC: 0.917936 (Simulation time: 1 hr 4 min 19 sec) 
Heartbeat CPU 0 instructions: 116000000 cycles: 91721778 heartbeat IPC: 0.919659 cumulative IPC: 0.917962 (Simulation time: 1 hr 4 min 53 sec) 
Heartbeat CPU 0 instructions: 117000001 cycles: 92809137 heartbeat IPC: 0.91966 cumulative IPC: 0.917987 (Simulation time: 1 hr 5 min 27 sec) 
Heartbeat CPU 0 instructions: 118000000 cycles: 93897336 heartbeat IPC: 0.918949 cumulative IPC: 0.918001 (Simulation time: 1 hr 6 min 4 sec) 
Heartbeat CPU 0 instructions: 119000000 cycles: 94986754 heartbeat IPC: 0.917921 cumulative IPC: 0.918 (Simulation time: 1 hr 6 min 41 sec) 
Heartbeat CPU 0 instructions: 120000000 cycles: 96076210 heartbeat IPC: 0.917889 cumulative IPC: 0.917999 (Simulation time: 1 hr 7 min 15 sec) 
Heartbeat CPU 0 instructions: 121000000 cycles: 97164619 heartbeat IPC: 0.918772 cumulative IPC: 0.91801 (Simulation time: 1 hr 7 min 52 sec) 
Heartbeat CPU 0 instructions: 122000000 cycles: 98256530 heartbeat IPC: 0.915826 cumulative IPC: 0.917979 (Simulation time: 1 hr 8 min 26 sec) 
Heartbeat CPU 0 instructions: 123000001 cycles: 99351555 heartbeat IPC: 0.913222 cumulative IPC: 0.917914 (Simulation time: 1 hr 8 min 59 sec) 
Heartbeat CPU 0 instructions: 124000000 cycles: 100449525 heartbeat IPC: 0.910771 cumulative IPC: 0.917816 (Simulation time: 1 hr 9 min 33 sec) 
Heartbeat CPU 0 instructions: 125000002 cycles: 101542902 heartbeat IPC: 0.914599 cumulative IPC: 0.917773 (Simulation time: 1 hr 10 min 14 sec) 
Heartbeat CPU 0 instructions: 126000002 cycles: 102633729 heartbeat IPC: 0.916736 cumulative IPC: 0.91776 (Simulation time: 1 hr 10 min 53 sec) 
Heartbeat CPU 0 instructions: 127000003 cycles: 103722732 heartbeat IPC: 0.918272 cumulative IPC: 0.917766 (Simulation time: 1 hr 11 min 34 sec) 
Heartbeat CPU 0 instructions: 128000000 cycles: 104813081 heartbeat IPC: 0.917135 cumulative IPC: 0.917758 (Simulation time: 1 hr 12 min 8 sec) 
Heartbeat CPU 0 instructions: 129000001 cycles: 105902375 heartbeat IPC: 0.918027 cumulative IPC: 0.917762 (Simulation time: 1 hr 12 min 41 sec) 
Heartbeat CPU 0 instructions: 130000001 cycles: 106990781 heartbeat IPC: 0.918775 cumulative IPC: 0.917774 (Simulation time: 1 hr 13 min 16 sec) 
Heartbeat CPU 0 instructions: 131000001 cycles: 108084788 heartbeat IPC: 0.914071 cumulative IPC: 0.917728 (Simulation time: 1 hr 13 min 50 sec) 
Heartbeat CPU 0 instructions: 132000000 cycles: 109179843 heartbeat IPC: 0.913195 cumulative IPC: 0.917673 (Simulation time: 1 hr 14 min 22 sec) 
Heartbeat CPU 0 instructions: 133000002 cycles: 110284711 heartbeat IPC: 0.905087 cumulative IPC: 0.917519 (Simulation time: 1 hr 14 min 55 sec) 
Heartbeat CPU 0 instructions: 134000000 cycles: 111380399 heartbeat IPC: 0.912667 cumulative IPC: 0.917461 (Simulation time: 1 hr 15 min 36 sec) 
Heartbeat CPU 0 instructions: 135000003 cycles: 112483184 heartbeat IPC: 0.906798 cumulative IPC: 0.917334 (Simulation time: 1 hr 16 min 14 sec) 
Heartbeat CPU 0 instructions: 136000000 cycles: 113583560 heartbeat IPC: 0.908778 cumulative IPC: 0.917234 (Simulation time: 1 hr 16 min 46 sec) 
Heartbeat CPU 0 instructions: 137000001 cycles: 114680006 heartbeat IPC: 0.912039 cumulative IPC: 0.917174 (Simulation time: 1 hr 17 min 24 sec) 
Heartbeat CPU 0 instructions: 138000000 cycles: 115794608 heartbeat IPC: 0.89718 cumulative IPC: 0.916941 (Simulation time: 1 hr 18 min 1 sec) 
Heartbeat CPU 0 instructions: 139000002 cycles: 116428805 heartbeat IPC: 1.5768 cumulative IPC: 0.921273 (Simulation time: 1 hr 18 min 38 sec) 
Heartbeat CPU 0 instructions: 140000000 cycles: 117060593 heartbeat IPC: 1.58281 cumulative IPC: 0.925572 (Simulation time: 1 hr 19 min 14 sec) 
Heartbeat CPU 0 instructions: 141000000 cycles: 117692433 heartbeat IPC: 1.58268 cumulative IPC: 0.929814 (Simulation time: 1 hr 19 min 50 sec) 
Heartbeat CPU 0 instructions: 142000002 cycles: 118325219 heartbeat IPC: 1.58032 cumulative IPC: 0.933993 (Simulation time: 1 hr 20 min 25 sec) 
Heartbeat CPU 0 instructions: 143000002 cycles: 118963585 heartbeat IPC: 1.5665 cumulative IPC: 0.938065 (Simulation time: 1 hr 21 min 2 sec) 
Heartbeat CPU 0 instructions: 144000000 cycles: 119604283 heartbeat IPC: 1.56079 cumulative IPC: 0.942064 (Simulation time: 1 hr 21 min 33 sec) 
Heartbeat CPU 0 instructions: 145000001 cycles: 120243602 heartbeat IPC: 1.56417 cumulative IPC: 0.946025 (Simulation time: 1 hr 22 min 10 sec) 
Heartbeat CPU 0 instructions: 146000002 cycles: 120882215 heartbeat IPC: 1.5659 cumulative IPC: 0.949942 (Simulation time: 1 hr 22 min 43 sec) 
Heartbeat CPU 0 instructions: 147000002 cycles: 122219234 heartbeat IPC: 0.747933 cumulative IPC: 0.947304 (Simulation time: 1 hr 23 min 16 sec) 
Heartbeat CPU 0 instructions: 148000000 cycles: 122736534 heartbeat IPC: 1.93311 cumulative IPC: 0.952259 (Simulation time: 1 hr 23 min 45 sec) 
Heartbeat CPU 0 instructions: 149000000 cycles: 123246616 heartbeat IPC: 1.96047 cumulative IPC: 0.957232 (Simulation time: 1 hr 24 min 11 sec) 
Heartbeat CPU 0 instructions: 150000003 cycles: 123758652 heartbeat IPC: 1.95299 cumulative IPC: 0.962137 (Simulation time: 1 hr 24 min 39 sec) 
Finished CPU 0 instructions: 100000000 cycles: 103935273 cummulative IPC: 0.962137 (Simulation time: 1 hr 24 min 39 sec) 

ChampSim completed all CPUs

Region of Interest Statistics

CPU 0 cummulative IPC: 0.962137 instructions: 100000000 cycles: 103935273
LLC TOTAL     ACCESS:     678834  HIT:     550008  MISS:     128826
LLC LOAD      ACCESS:     201694  HIT:     200248  MISS:       1446
LLC RFO       ACCESS:      77431  HIT:      17124  MISS:      60307
LLC PREFETCH  ACCESS:     319041  HIT:     267767  MISS:      51274
LLC WRITEBACK ACCESS:      80668  HIT:      64869  MISS:      15799
OPTgen accesses: 19490
OPTgen hits: 22380
OPTgen hit rate: 114.828


