
*** ChampSim Multicore Out-of-Order Simulator ***

Warmup Instructions: 50000000
Simulation Instructions: 100000000
Configuration: 2
Number of CPUs: 1
LLC sets: 2048
LLC ways: 16
Off-chip DRAM Channels: 1 Width: 64-bit Data Rate: 1600 MT/s

CPU 0 runs /datasets/cs240c-wi22-a00-public/data/Assignment2-gz/omnetpp_17B.trace.gz
CPU 0 L1D next line prefetcher
CPU 0 L2C IP-based stride prefetcher
Initialize Hawkeye state
Heartbeat CPU 0 instructions: 1000000 cycles: 559560 heartbeat IPC: 1.78712 cumulative IPC: 1.78712 (Simulation time: 0 hr 0 min 34 sec) 
Heartbeat CPU 0 instructions: 2000002 cycles: 1133716 heartbeat IPC: 1.74169 cumulative IPC: 1.76411 (Simulation time: 0 hr 1 min 6 sec) 
Heartbeat CPU 0 instructions: 3000001 cycles: 1769024 heartbeat IPC: 1.57404 cumulative IPC: 1.69585 (Simulation time: 0 hr 1 min 35 sec) 
Heartbeat CPU 0 instructions: 4000000 cycles: 2333917 heartbeat IPC: 1.77024 cumulative IPC: 1.71386 (Simulation time: 0 hr 2 min 10 sec) 
Heartbeat CPU 0 instructions: 5000002 cycles: 2892922 heartbeat IPC: 1.7889 cumulative IPC: 1.72836 (Simulation time: 0 hr 2 min 45 sec) 
Heartbeat CPU 0 instructions: 6000000 cycles: 3471607 heartbeat IPC: 1.72805 cumulative IPC: 1.72831 (Simulation time: 0 hr 3 min 20 sec) 
Heartbeat CPU 0 instructions: 7000000 cycles: 4036093 heartbeat IPC: 1.77152 cumulative IPC: 1.73435 (Simulation time: 0 hr 3 min 58 sec) 
Heartbeat CPU 0 instructions: 8000000 cycles: 4697827 heartbeat IPC: 1.51118 cumulative IPC: 1.70291 (Simulation time: 0 hr 4 min 31 sec) 
Heartbeat CPU 0 instructions: 9000000 cycles: 5359632 heartbeat IPC: 1.51102 cumulative IPC: 1.67922 (Simulation time: 0 hr 5 min 5 sec) 
Heartbeat CPU 0 instructions: 10000001 cycles: 6021201 heartbeat IPC: 1.51156 cumulative IPC: 1.6608 (Simulation time: 0 hr 5 min 36 sec) 
Heartbeat CPU 0 instructions: 11000001 cycles: 6682591 heartbeat IPC: 1.51197 cumulative IPC: 1.64607 (Simulation time: 0 hr 6 min 8 sec) 
Heartbeat CPU 0 instructions: 12000000 cycles: 7343367 heartbeat IPC: 1.51337 cumulative IPC: 1.63413 (Simulation time: 0 hr 6 min 35 sec) 
Heartbeat CPU 0 instructions: 13000001 cycles: 8002067 heartbeat IPC: 1.51814 cumulative IPC: 1.62458 (Simulation time: 0 hr 7 min 3 sec) 
Heartbeat CPU 0 instructions: 14000000 cycles: 8663356 heartbeat IPC: 1.5122 cumulative IPC: 1.616 (Simulation time: 0 hr 7 min 34 sec) 
Heartbeat CPU 0 instructions: 15000000 cycles: 9325071 heartbeat IPC: 1.51122 cumulative IPC: 1.60857 (Simulation time: 0 hr 8 min 5 sec) 
Heartbeat CPU 0 instructions: 16000000 cycles: 9986982 heartbeat IPC: 1.51078 cumulative IPC: 1.60209 (Simulation time: 0 hr 8 min 39 sec) 
Heartbeat CPU 0 instructions: 17000000 cycles: 10652708 heartbeat IPC: 1.50212 cumulative IPC: 1.59584 (Simulation time: 0 hr 9 min 10 sec) 
Heartbeat CPU 0 instructions: 18000001 cycles: 11319265 heartbeat IPC: 1.50025 cumulative IPC: 1.59021 (Simulation time: 0 hr 9 min 39 sec) 
Heartbeat CPU 0 instructions: 19000002 cycles: 11988072 heartbeat IPC: 1.4952 cumulative IPC: 1.58491 (Simulation time: 0 hr 10 min 7 sec) 
Heartbeat CPU 0 instructions: 20000000 cycles: 12559853 heartbeat IPC: 1.74892 cumulative IPC: 1.59238 (Simulation time: 0 hr 10 min 39 sec) 
Heartbeat CPU 0 instructions: 21000000 cycles: 13148912 heartbeat IPC: 1.69762 cumulative IPC: 1.59709 (Simulation time: 0 hr 11 min 11 sec) 
Heartbeat CPU 0 instructions: 22000001 cycles: 13760828 heartbeat IPC: 1.63421 cumulative IPC: 1.59874 (Simulation time: 0 hr 11 min 42 sec) 
Heartbeat CPU 0 instructions: 23000000 cycles: 14318714 heartbeat IPC: 1.79248 cumulative IPC: 1.60629 (Simulation time: 0 hr 12 min 16 sec) 
Heartbeat CPU 0 instructions: 24000000 cycles: 14878366 heartbeat IPC: 1.78682 cumulative IPC: 1.61308 (Simulation time: 0 hr 12 min 46 sec) 
Heartbeat CPU 0 instructions: 25000001 cycles: 15461907 heartbeat IPC: 1.71368 cumulative IPC: 1.61688 (Simulation time: 0 hr 13 min 14 sec) 
Heartbeat CPU 0 instructions: 26000001 cycles: 16078776 heartbeat IPC: 1.62109 cumulative IPC: 1.61704 (Simulation time: 0 hr 13 min 44 sec) 
Heartbeat CPU 0 instructions: 27000000 cycles: 16638408 heartbeat IPC: 1.78689 cumulative IPC: 1.62275 (Simulation time: 0 hr 14 min 15 sec) 
Heartbeat CPU 0 instructions: 28000000 cycles: 17196708 heartbeat IPC: 1.79115 cumulative IPC: 1.62822 (Simulation time: 0 hr 14 min 50 sec) 
Heartbeat CPU 0 instructions: 29000000 cycles: 17775402 heartbeat IPC: 1.72803 cumulative IPC: 1.63147 (Simulation time: 0 hr 15 min 23 sec) 
Heartbeat CPU 0 instructions: 30000000 cycles: 18397953 heartbeat IPC: 1.60629 cumulative IPC: 1.63062 (Simulation time: 0 hr 15 min 52 sec) 
Heartbeat CPU 0 instructions: 31000000 cycles: 18959386 heartbeat IPC: 1.78116 cumulative IPC: 1.63507 (Simulation time: 0 hr 16 min 26 sec) 
Heartbeat CPU 0 instructions: 32000000 cycles: 19516681 heartbeat IPC: 1.79438 cumulative IPC: 1.63962 (Simulation time: 0 hr 16 min 57 sec) 
Heartbeat CPU 0 instructions: 33000001 cycles: 20088527 heartbeat IPC: 1.74872 cumulative IPC: 1.64273 (Simulation time: 0 hr 17 min 27 sec) 
Heartbeat CPU 0 instructions: 34000001 cycles: 20724229 heartbeat IPC: 1.57306 cumulative IPC: 1.64059 (Simulation time: 0 hr 17 min 54 sec) 
Heartbeat CPU 0 instructions: 35000002 cycles: 21289457 heartbeat IPC: 1.7692 cumulative IPC: 1.64401 (Simulation time: 0 hr 18 min 23 sec) 
Heartbeat CPU 0 instructions: 36000000 cycles: 21849183 heartbeat IPC: 1.78658 cumulative IPC: 1.64766 (Simulation time: 0 hr 18 min 51 sec) 
Heartbeat CPU 0 instructions: 37000001 cycles: 22427354 heartbeat IPC: 1.72959 cumulative IPC: 1.64977 (Simulation time: 0 hr 19 min 19 sec) 
Heartbeat CPU 0 instructions: 38000002 cycles: 23056394 heartbeat IPC: 1.58973 cumulative IPC: 1.64813 (Simulation time: 0 hr 19 min 46 sec) 
Heartbeat CPU 0 instructions: 39000000 cycles: 23619099 heartbeat IPC: 1.77713 cumulative IPC: 1.65121 (Simulation time: 0 hr 20 min 13 sec) 
Heartbeat CPU 0 instructions: 40000000 cycles: 24179200 heartbeat IPC: 1.78539 cumulative IPC: 1.65431 (Simulation time: 0 hr 20 min 43 sec) 
Heartbeat CPU 0 instructions: 41000002 cycles: 24762284 heartbeat IPC: 1.71502 cumulative IPC: 1.65574 (Simulation time: 0 hr 21 min 15 sec) 
Heartbeat CPU 0 instructions: 42000000 cycles: 25389264 heartbeat IPC: 1.59494 cumulative IPC: 1.65424 (Simulation time: 0 hr 21 min 42 sec) 
Heartbeat CPU 0 instructions: 43000001 cycles: 25876631 heartbeat IPC: 2.05184 cumulative IPC: 1.66173 (Simulation time: 0 hr 22 min 23 sec) 
Heartbeat CPU 0 instructions: 44000000 cycles: 26537328 heartbeat IPC: 1.51355 cumulative IPC: 1.65804 (Simulation time: 0 hr 22 min 56 sec) 
Heartbeat CPU 0 instructions: 45000003 cycles: 27198971 heartbeat IPC: 1.51139 cumulative IPC: 1.65447 (Simulation time: 0 hr 23 min 24 sec) 
Heartbeat CPU 0 instructions: 46000000 cycles: 27861346 heartbeat IPC: 1.50971 cumulative IPC: 1.65103 (Simulation time: 0 hr 23 min 54 sec) 
Heartbeat CPU 0 instructions: 47000001 cycles: 28524360 heartbeat IPC: 1.50827 cumulative IPC: 1.64771 (Simulation time: 0 hr 24 min 23 sec) 
Heartbeat CPU 0 instructions: 48000000 cycles: 29187111 heartbeat IPC: 1.50886 cumulative IPC: 1.64456 (Simulation time: 0 hr 24 min 53 sec) 
Heartbeat CPU 0 instructions: 49000000 cycles: 29848609 heartbeat IPC: 1.51172 cumulative IPC: 1.64162 (Simulation time: 0 hr 25 min 22 sec) 
Heartbeat CPU 0 instructions: 50000000 cycles: 30510800 heartbeat IPC: 1.51014 cumulative IPC: 1.63876 (Simulation time: 0 hr 25 min 54 sec) 

Warmup complete CPU 0 instructions: 50000002 cycles: 30510801 (Simulation time: 0 hr 25 min 54 sec) 

Heartbeat CPU 0 instructions: 51000002 cycles: 31554153 heartbeat IPC: 0.95845 cumulative IPC: 0.958449 (Simulation time: 0 hr 26 min 27 sec) 
Heartbeat CPU 0 instructions: 52000000 cycles: 32598392 heartbeat IPC: 0.957633 cumulative IPC: 0.958041 (Simulation time: 0 hr 26 min 58 sec) 
Heartbeat CPU 0 instructions: 53000001 cycles: 33640884 heartbeat IPC: 0.959241 cumulative IPC: 0.958441 (Simulation time: 0 hr 27 min 27 sec) 
Heartbeat CPU 0 instructions: 54000002 cycles: 34709272 heartbeat IPC: 0.935991 cumulative IPC: 0.952728 (Simulation time: 0 hr 27 min 58 sec) 
Heartbeat CPU 0 instructions: 55000003 cycles: 35749492 heartbeat IPC: 0.961336 cumulative IPC: 0.954437 (Simulation time: 0 hr 28 min 26 sec) 
Heartbeat CPU 0 instructions: 56000000 cycles: 38046039 heartbeat IPC: 0.435435 cumulative IPC: 0.796259 (Simulation time: 0 hr 29 min 8 sec) 
Heartbeat CPU 0 instructions: 57000003 cycles: 40108442 heartbeat IPC: 0.484873 cumulative IPC: 0.729346 (Simulation time: 0 hr 29 min 44 sec) 
Heartbeat CPU 0 instructions: 58000000 cycles: 43456957 heartbeat IPC: 0.298639 cumulative IPC: 0.617944 (Simulation time: 0 hr 30 min 21 sec) 
Heartbeat CPU 0 instructions: 59000003 cycles: 46788293 heartbeat IPC: 0.300181 cumulative IPC: 0.552911 (Simulation time: 0 hr 31 min 2 sec) 
Heartbeat CPU 0 instructions: 60000000 cycles: 49249415 heartbeat IPC: 0.406318 cumulative IPC: 0.533657 (Simulation time: 0 hr 31 min 35 sec) 
Heartbeat CPU 0 instructions: 61000001 cycles: 51155131 heartbeat IPC: 0.524738 cumulative IPC: 0.532834 (Simulation time: 0 hr 32 min 5 sec) 
Heartbeat CPU 0 instructions: 62000001 cycles: 54509644 heartbeat IPC: 0.298106 cumulative IPC: 0.500024 (Simulation time: 0 hr 32 min 42 sec) 
Heartbeat CPU 0 instructions: 63000000 cycles: 57868614 heartbeat IPC: 0.29771 cumulative IPC: 0.475184 (Simulation time: 0 hr 33 min 24 sec) 
Heartbeat CPU 0 instructions: 64000000 cycles: 60524302 heartbeat IPC: 0.37655 cumulative IPC: 0.466457 (Simulation time: 0 hr 34 min 2 sec) 
Heartbeat CPU 0 instructions: 65000000 cycles: 62248932 heartbeat IPC: 0.579835 cumulative IPC: 0.472618 (Simulation time: 0 hr 34 min 36 sec) 
Heartbeat CPU 0 instructions: 66000000 cycles: 65607154 heartbeat IPC: 0.297777 cumulative IPC: 0.455888 (Simulation time: 0 hr 35 min 18 sec) 
Heartbeat CPU 0 instructions: 67000001 cycles: 69003441 heartbeat IPC: 0.294439 cumulative IPC: 0.441643 (Simulation time: 0 hr 35 min 57 sec) 
Heartbeat CPU 0 instructions: 68000000 cycles: 71887757 heartbeat IPC: 0.346702 cumulative IPC: 0.435025 (Simulation time: 0 hr 36 min 34 sec) 
Heartbeat CPU 0 instructions: 69000001 cycles: 73440002 heartbeat IPC: 0.644229 cumulative IPC: 0.442589 (Simulation time: 0 hr 37 min 3 sec) 
Heartbeat CPU 0 instructions: 70000001 cycles: 76809984 heartbeat IPC: 0.296737 cumulative IPC: 0.431973 (Simulation time: 0 hr 37 min 38 sec) 
Heartbeat CPU 0 instructions: 71000001 cycles: 80191591 heartbeat IPC: 0.295717 cumulative IPC: 0.422699 (Simulation time: 0 hr 38 min 20 sec) 
Heartbeat CPU 0 instructions: 72000000 cycles: 83068688 heartbeat IPC: 0.347572 cumulative IPC: 0.418586 (Simulation time: 0 hr 39 min 2 sec) 
Heartbeat CPU 0 instructions: 73000000 cycles: 84620463 heartbeat IPC: 0.644423 cumulative IPC: 0.425063 (Simulation time: 0 hr 39 min 37 sec) 
Heartbeat CPU 0 instructions: 74000003 cycles: 88002560 heartbeat IPC: 0.295675 cumulative IPC: 0.417451 (Simulation time: 0 hr 40 min 13 sec) 
Heartbeat CPU 0 instructions: 75000001 cycles: 91380637 heartbeat IPC: 0.296026 cumulative IPC: 0.410712 (Simulation time: 0 hr 40 min 53 sec) 
Heartbeat CPU 0 instructions: 76000000 cycles: 94133544 heartbeat IPC: 0.363252 cumulative IPC: 0.408659 (Simulation time: 0 hr 41 min 30 sec) 
Heartbeat CPU 0 instructions: 77000001 cycles: 95788983 heartbeat IPC: 0.60407 cumulative IPC: 0.413614 (Simulation time: 0 hr 41 min 59 sec) 
Heartbeat CPU 0 instructions: 78000000 cycles: 99163962 heartbeat IPC: 0.296298 cumulative IPC: 0.407847 (Simulation time: 0 hr 42 min 34 sec) 
Heartbeat CPU 0 instructions: 79000000 cycles: 102699442 heartbeat IPC: 0.282847 cumulative IPC: 0.401725 (Simulation time: 0 hr 43 min 9 sec) 
Heartbeat CPU 0 instructions: 80000000 cycles: 104597066 heartbeat IPC: 0.526975 cumulative IPC: 0.404933 (Simulation time: 0 hr 43 min 42 sec) 
Heartbeat CPU 0 instructions: 81000001 cycles: 107110263 heartbeat IPC: 0.3979 cumulative IPC: 0.404703 (Simulation time: 0 hr 44 min 14 sec) 
Heartbeat CPU 0 instructions: 82000000 cycles: 110509434 heartbeat IPC: 0.294189 cumulative IPC: 0.400007 (Simulation time: 0 hr 44 min 53 sec) 
Heartbeat CPU 0 instructions: 83000000 cycles: 113886245 heartbeat IPC: 0.296137 cumulative IPC: 0.3958 (Simulation time: 0 hr 45 min 37 sec) 
Heartbeat CPU 0 instructions: 84000000 cycles: 115744969 heartbeat IPC: 0.538004 cumulative IPC: 0.398901 (Simulation time: 0 hr 46 min 11 sec) 
Heartbeat CPU 0 instructions: 85000003 cycles: 118286936 heartbeat IPC: 0.393397 cumulative IPC: 0.398742 (Simulation time: 0 hr 46 min 42 sec) 
Heartbeat CPU 0 instructions: 86000001 cycles: 121681290 heartbeat IPC: 0.294606 cumulative IPC: 0.394865 (Simulation time: 0 hr 47 min 25 sec) 
Heartbeat CPU 0 instructions: 87000000 cycles: 125067401 heartbeat IPC: 0.295324 cumulative IPC: 0.3913 (Simulation time: 0 hr 48 min 5 sec) 
Heartbeat CPU 0 instructions: 88000000 cycles: 126774746 heartbeat IPC: 0.585705 cumulative IPC: 0.394748 (Simulation time: 0 hr 48 min 39 sec) 
Heartbeat CPU 0 instructions: 89000000 cycles: 131657090 heartbeat IPC: 0.20482 cumulative IPC: 0.38558 (Simulation time: 0 hr 49 min 28 sec) 
Heartbeat CPU 0 instructions: 90000002 cycles: 132700534 heartbeat IPC: 0.958367 cumulative IPC: 0.391429 (Simulation time: 0 hr 49 min 58 sec) 
Heartbeat CPU 0 instructions: 91000001 cycles: 133744927 heartbeat IPC: 0.957493 cumulative IPC: 0.397155 (Simulation time: 0 hr 50 min 29 sec) 
Heartbeat CPU 0 instructions: 92000000 cycles: 134788572 heartbeat IPC: 0.958179 cumulative IPC: 0.40277 (Simulation time: 0 hr 50 min 59 sec) 
Heartbeat CPU 0 instructions: 93000002 cycles: 135832912 heartbeat IPC: 0.957545 cumulative IPC: 0.408271 (Simulation time: 0 hr 51 min 27 sec) 
Heartbeat CPU 0 instructions: 94000001 cycles: 136876740 heartbeat IPC: 0.958011 cumulative IPC: 0.413666 (Simulation time: 0 hr 51 min 54 sec) 
Heartbeat CPU 0 instructions: 95000000 cycles: 137921004 heartbeat IPC: 0.957611 cumulative IPC: 0.418955 (Simulation time: 0 hr 52 min 20 sec) 
Heartbeat CPU 0 instructions: 96000000 cycles: 138965874 heartbeat IPC: 0.957057 cumulative IPC: 0.424139 (Simulation time: 0 hr 52 min 49 sec) 
Heartbeat CPU 0 instructions: 97000002 cycles: 140036966 heartbeat IPC: 0.933628 cumulative IPC: 0.429121 (Simulation time: 0 hr 53 min 23 sec) 
Heartbeat CPU 0 instructions: 98000000 cycles: 141082592 heartbeat IPC: 0.956363 cumulative IPC: 0.434107 (Simulation time: 0 hr 53 min 54 sec) 
Heartbeat CPU 0 instructions: 99000003 cycles: 142120929 heartbeat IPC: 0.963081 cumulative IPC: 0.439028 (Simulation time: 0 hr 54 min 22 sec) 
Heartbeat CPU 0 instructions: 100000000 cycles: 143157493 heartbeat IPC: 0.964723 cumulative IPC: 0.443866 (Simulation time: 0 hr 54 min 48 sec) 
Heartbeat CPU 0 instructions: 101000001 cycles: 144198803 heartbeat IPC: 0.96033 cumulative IPC: 0.448596 (Simulation time: 0 hr 55 min 17 sec) 
Heartbeat CPU 0 instructions: 102000001 cycles: 147522735 heartbeat IPC: 0.300849 cumulative IPC: 0.444399 (Simulation time: 0 hr 55 min 55 sec) 
Heartbeat CPU 0 instructions: 103000001 cycles: 148944775 heartbeat IPC: 0.703215 cumulative IPC: 0.447507 (Simulation time: 0 hr 56 min 30 sec) 
Heartbeat CPU 0 instructions: 104000000 cycles: 151970675 heartbeat IPC: 0.33048 cumulative IPC: 0.444591 (Simulation time: 0 hr 57 min 10 sec) 
Heartbeat CPU 0 instructions: 105000000 cycles: 155331823 heartbeat IPC: 0.297517 cumulative IPC: 0.440631 (Simulation time: 0 hr 57 min 52 sec) 
Heartbeat CPU 0 instructions: 106000000 cycles: 158629695 heartbeat IPC: 0.303226 cumulative IPC: 0.437094 (Simulation time: 0 hr 58 min 28 sec) 
Heartbeat CPU 0 instructions: 107000001 cycles: 160215314 heartbeat IPC: 0.630669 cumulative IPC: 0.43946 (Simulation time: 0 hr 58 min 56 sec) 
Heartbeat CPU 0 instructions: 108000000 cycles: 163062300 heartbeat IPC: 0.351248 cumulative IPC: 0.437566 (Simulation time: 0 hr 59 min 28 sec) 
Heartbeat CPU 0 instructions: 109000000 cycles: 166419751 heartbeat IPC: 0.297845 cumulative IPC: 0.434114 (Simulation time: 1 hr 0 min 4 sec) 
Heartbeat CPU 0 instructions: 110000000 cycles: 169770063 heartbeat IPC: 0.29848 cumulative IPC: 0.430851 (Simulation time: 1 hr 0 min 44 sec) 
Heartbeat CPU 0 instructions: 111000000 cycles: 171506768 heartbeat IPC: 0.575803 cumulative IPC: 0.432636 (Simulation time: 1 hr 1 min 14 sec) 
Heartbeat CPU 0 instructions: 112000000 cycles: 174169677 heartbeat IPC: 0.375529 cumulative IPC: 0.431578 (Simulation time: 1 hr 1 min 47 sec) 
Heartbeat CPU 0 instructions: 113000001 cycles: 177527311 heartbeat IPC: 0.297829 cumulative IPC: 0.428523 (Simulation time: 1 hr 2 min 22 sec) 
Heartbeat CPU 0 instructions: 114000001 cycles: 180893368 heartbeat IPC: 0.297083 cumulative IPC: 0.425581 (Simulation time: 1 hr 3 min 1 sec) 
Heartbeat CPU 0 instructions: 115000002 cycles: 182815979 heartbeat IPC: 0.520127 cumulative IPC: 0.426775 (Simulation time: 1 hr 3 min 32 sec) 
Heartbeat CPU 0 instructions: 116000000 cycles: 185304201 heartbeat IPC: 0.401893 cumulative IPC: 0.426375 (Simulation time: 1 hr 4 min 6 sec) 
Heartbeat CPU 0 instructions: 117000000 cycles: 188672670 heartbeat IPC: 0.296871 cumulative IPC: 0.423617 (Simulation time: 1 hr 4 min 44 sec) 
Heartbeat CPU 0 instructions: 118000001 cycles: 192082769 heartbeat IPC: 0.293247 cumulative IPC: 0.420865 (Simulation time: 1 hr 5 min 20 sec) 
Heartbeat CPU 0 instructions: 119000002 cycles: 193894330 heartbeat IPC: 0.552011 cumulative IPC: 0.422319 (Simulation time: 1 hr 5 min 51 sec) 
Heartbeat CPU 0 instructions: 120000000 cycles: 196462860 heartbeat IPC: 0.389327 cumulative IPC: 0.421809 (Simulation time: 1 hr 6 min 25 sec) 
Heartbeat CPU 0 instructions: 121000000 cycles: 199829885 heartbeat IPC: 0.296998 cumulative IPC: 0.419327 (Simulation time: 1 hr 7 min 0 sec) 
Heartbeat CPU 0 instructions: 122000000 cycles: 203207461 heartbeat IPC: 0.29607 cumulative IPC: 0.416916 (Simulation time: 1 hr 7 min 38 sec) 
Heartbeat CPU 0 instructions: 123000002 cycles: 204922772 heartbeat IPC: 0.582986 cumulative IPC: 0.418549 (Simulation time: 1 hr 8 min 7 sec) 
Heartbeat CPU 0 instructions: 124000000 cycles: 207605392 heartbeat IPC: 0.372769 cumulative IPC: 0.417856 (Simulation time: 1 hr 8 min 43 sec) 
Heartbeat CPU 0 instructions: 125000000 cycles: 211142619 heartbeat IPC: 0.282707 cumulative IPC: 0.415209 (Simulation time: 1 hr 9 min 25 sec) 
Heartbeat CPU 0 instructions: 126000001 cycles: 214379013 heartbeat IPC: 0.308986 cumulative IPC: 0.41334 (Simulation time: 1 hr 10 min 5 sec) 
Heartbeat CPU 0 instructions: 127000002 cycles: 215540751 heartbeat IPC: 0.86078 cumulative IPC: 0.416149 (Simulation time: 1 hr 10 min 39 sec) 
Heartbeat CPU 0 instructions: 128000000 cycles: 218921793 heartbeat IPC: 0.295766 cumulative IPC: 0.413989 (Simulation time: 1 hr 11 min 15 sec) 
Heartbeat CPU 0 instructions: 129000000 cycles: 222278844 heartbeat IPC: 0.297881 cumulative IPC: 0.411956 (Simulation time: 1 hr 11 min 50 sec) 
Heartbeat CPU 0 instructions: 130000001 cycles: 225498775 heartbeat IPC: 0.310566 cumulative IPC: 0.410282 (Simulation time: 1 hr 12 min 33 sec) 
Heartbeat CPU 0 instructions: 131000002 cycles: 226698633 heartbeat IPC: 0.833433 cumulative IPC: 0.41287 (Simulation time: 1 hr 13 min 2 sec) 
Heartbeat CPU 0 instructions: 132000000 cycles: 230082415 heartbeat IPC: 0.295527 cumulative IPC: 0.41088 (Simulation time: 1 hr 13 min 48 sec) 
Heartbeat CPU 0 instructions: 133000000 cycles: 233453349 heartbeat IPC: 0.296654 cumulative IPC: 0.408983 (Simulation time: 1 hr 14 min 29 sec) 
Heartbeat CPU 0 instructions: 134000000 cycles: 236530451 heartbeat IPC: 0.324981 cumulative IPC: 0.407728 (Simulation time: 1 hr 15 min 2 sec) 
Heartbeat CPU 0 instructions: 135000001 cycles: 240046285 heartbeat IPC: 0.284428 cumulative IPC: 0.405659 (Simulation time: 1 hr 15 min 36 sec) 
Heartbeat CPU 0 instructions: 136000000 cycles: 241090271 heartbeat IPC: 0.957866 cumulative IPC: 0.408397 (Simulation time: 1 hr 16 min 10 sec) 
Heartbeat CPU 0 instructions: 137000001 cycles: 242135488 heartbeat IPC: 0.95674 cumulative IPC: 0.411105 (Simulation time: 1 hr 16 min 39 sec) 
Heartbeat CPU 0 instructions: 138000001 cycles: 243180192 heartbeat IPC: 0.957209 cumulative IPC: 0.413788 (Simulation time: 1 hr 17 min 8 sec) 
Heartbeat CPU 0 instructions: 139000001 cycles: 244225593 heartbeat IPC: 0.956571 cumulative IPC: 0.416443 (Simulation time: 1 hr 17 min 33 sec) 
Heartbeat CPU 0 instructions: 140000000 cycles: 245272117 heartbeat IPC: 0.955543 cumulative IPC: 0.41907 (Simulation time: 1 hr 18 min 4 sec) 
Heartbeat CPU 0 instructions: 141000001 cycles: 246342552 heartbeat IPC: 0.934201 cumulative IPC: 0.421625 (Simulation time: 1 hr 18 min 35 sec) 
Heartbeat CPU 0 instructions: 142000002 cycles: 247386426 heartbeat IPC: 0.957971 cumulative IPC: 0.424206 (Simulation time: 1 hr 19 min 2 sec) 
Heartbeat CPU 0 instructions: 143000001 cycles: 248431580 heartbeat IPC: 0.956796 cumulative IPC: 0.426761 (Simulation time: 1 hr 19 min 31 sec) 
Heartbeat CPU 0 instructions: 144000000 cycles: 249475362 heartbeat IPC: 0.958054 cumulative IPC: 0.429293 (Simulation time: 1 hr 19 min 59 sec) 
Heartbeat CPU 0 instructions: 145000003 cycles: 250518071 heartbeat IPC: 0.959043 cumulative IPC: 0.431804 (Simulation time: 1 hr 20 min 26 sec) 
Heartbeat CPU 0 instructions: 146000001 cycles: 251559617 heartbeat IPC: 0.960109 cumulative IPC: 0.434293 (Simulation time: 1 hr 20 min 54 sec) 
Heartbeat CPU 0 instructions: 147000000 cycles: 252601414 heartbeat IPC: 0.959879 cumulative IPC: 0.436759 (Simulation time: 1 hr 21 min 22 sec) 
Heartbeat CPU 0 instructions: 148000000 cycles: 255973984 heartbeat IPC: 0.29651 cumulative IPC: 0.434661 (Simulation time: 1 hr 22 min 1 sec) 
Heartbeat CPU 0 instructions: 149000000 cycles: 258680185 heartbeat IPC: 0.369522 cumulative IPC: 0.433888 (Simulation time: 1 hr 22 min 35 sec) 
Heartbeat CPU 0 instructions: 150000000 cycles: 260359666 heartbeat IPC: 0.595422 cumulative IPC: 0.435068 (Simulation time: 1 hr 23 min 1 sec) 
Finished CPU 0 instructions: 100000002 cycles: 229848871 cummulative IPC: 0.435068 (Simulation time: 1 hr 23 min 1 sec) 

ChampSim completed all CPUs

Region of Interest Statistics

CPU 0 cummulative IPC: 0.435068 instructions: 100000002 cycles: 229848871
LLC TOTAL     ACCESS:    3408689  HIT:    1097435  MISS:    2311254
LLC LOAD      ACCESS:    1622363  HIT:    1020956  MISS:     601407
LLC RFO       ACCESS:       5352  HIT:       2100  MISS:       3252
LLC PREFETCH  ACCESS:    1763573  HIT:      62645  MISS:    1700928
LLC WRITEBACK ACCESS:      17401  HIT:      11734  MISS:       5667
OPTgen accesses: 38950
OPTgen hits: 31707
OPTgen hit rate: 81.4044


