
*** ChampSim Multicore Out-of-Order Simulator ***

Warmup Instructions: 50000000
Simulation Instructions: 100000000
Configuration: 2
Number of CPUs: 1
LLC sets: 2048
LLC ways: 16
Off-chip DRAM Channels: 1 Width: 64-bit Data Rate: 1600 MT/s

CPU 0 runs /datasets/cs240c-wi22-a00-public/data/Assignment2-gz/omnetpp_340B.trace.gz
CPU 0 L1D next line prefetcher
CPU 0 L2C IP-based stride prefetcher
Initialize Hawkeye state
Heartbeat CPU 0 instructions: 1000001 cycles: 576945 heartbeat IPC: 1.73327 cumulative IPC: 1.73327 (Simulation time: 0 hr 0 min 43 sec) 
Heartbeat CPU 0 instructions: 2000000 cycles: 1160881 heartbeat IPC: 1.71251 cumulative IPC: 1.72283 (Simulation time: 0 hr 1 min 31 sec) 
Heartbeat CPU 0 instructions: 3000001 cycles: 1758199 heartbeat IPC: 1.67415 cumulative IPC: 1.70629 (Simulation time: 0 hr 2 min 13 sec) 
Heartbeat CPU 0 instructions: 4000000 cycles: 2379253 heartbeat IPC: 1.61016 cumulative IPC: 1.6812 (Simulation time: 0 hr 2 min 54 sec) 
Heartbeat CPU 0 instructions: 5000002 cycles: 2954794 heartbeat IPC: 1.7375 cumulative IPC: 1.69217 (Simulation time: 0 hr 3 min 32 sec) 
Heartbeat CPU 0 instructions: 6000003 cycles: 3556245 heartbeat IPC: 1.66265 cumulative IPC: 1.68717 (Simulation time: 0 hr 4 min 12 sec) 
Heartbeat CPU 0 instructions: 7000003 cycles: 4205656 heartbeat IPC: 1.53986 cumulative IPC: 1.66443 (Simulation time: 0 hr 4 min 54 sec) 
Heartbeat CPU 0 instructions: 8000000 cycles: 4800173 heartbeat IPC: 1.68203 cumulative IPC: 1.66661 (Simulation time: 0 hr 5 min 37 sec) 
Heartbeat CPU 0 instructions: 9000002 cycles: 5433431 heartbeat IPC: 1.57914 cumulative IPC: 1.65641 (Simulation time: 0 hr 6 min 21 sec) 
Heartbeat CPU 0 instructions: 10000002 cycles: 6028009 heartbeat IPC: 1.68187 cumulative IPC: 1.65892 (Simulation time: 0 hr 7 min 1 sec) 
Heartbeat CPU 0 instructions: 11000003 cycles: 6627489 heartbeat IPC: 1.66811 cumulative IPC: 1.65975 (Simulation time: 0 hr 7 min 45 sec) 
Heartbeat CPU 0 instructions: 12000000 cycles: 7229946 heartbeat IPC: 1.65986 cumulative IPC: 1.65976 (Simulation time: 0 hr 8 min 29 sec) 
Heartbeat CPU 0 instructions: 13000002 cycles: 7833525 heartbeat IPC: 1.65679 cumulative IPC: 1.65953 (Simulation time: 0 hr 9 min 10 sec) 
Heartbeat CPU 0 instructions: 14000000 cycles: 8429335 heartbeat IPC: 1.67838 cumulative IPC: 1.66087 (Simulation time: 0 hr 9 min 53 sec) 
Heartbeat CPU 0 instructions: 15000001 cycles: 9020973 heartbeat IPC: 1.69022 cumulative IPC: 1.66279 (Simulation time: 0 hr 10 min 33 sec) 
Heartbeat CPU 0 instructions: 16000000 cycles: 9644161 heartbeat IPC: 1.60465 cumulative IPC: 1.65903 (Simulation time: 0 hr 11 min 14 sec) 
Heartbeat CPU 0 instructions: 17000000 cycles: 10250013 heartbeat IPC: 1.65057 cumulative IPC: 1.65853 (Simulation time: 0 hr 11 min 56 sec) 
Heartbeat CPU 0 instructions: 18000000 cycles: 10870402 heartbeat IPC: 1.61189 cumulative IPC: 1.65587 (Simulation time: 0 hr 12 min 39 sec) 
Heartbeat CPU 0 instructions: 19000000 cycles: 11501934 heartbeat IPC: 1.58345 cumulative IPC: 1.6519 (Simulation time: 0 hr 13 min 24 sec) 
Heartbeat CPU 0 instructions: 20000000 cycles: 12088067 heartbeat IPC: 1.7061 cumulative IPC: 1.65452 (Simulation time: 0 hr 14 min 5 sec) 
Heartbeat CPU 0 instructions: 21000000 cycles: 12685571 heartbeat IPC: 1.67363 cumulative IPC: 1.65542 (Simulation time: 0 hr 14 min 47 sec) 
Heartbeat CPU 0 instructions: 22000001 cycles: 13299996 heartbeat IPC: 1.62754 cumulative IPC: 1.65414 (Simulation time: 0 hr 15 min 28 sec) 
Heartbeat CPU 0 instructions: 23000001 cycles: 13921990 heartbeat IPC: 1.60773 cumulative IPC: 1.65206 (Simulation time: 0 hr 16 min 13 sec) 
Heartbeat CPU 0 instructions: 24000000 cycles: 14544979 heartbeat IPC: 1.60516 cumulative IPC: 1.65005 (Simulation time: 0 hr 16 min 54 sec) 
Heartbeat CPU 0 instructions: 25000001 cycles: 15162036 heartbeat IPC: 1.6206 cumulative IPC: 1.64886 (Simulation time: 0 hr 17 min 39 sec) 
Heartbeat CPU 0 instructions: 26000001 cycles: 15752836 heartbeat IPC: 1.69262 cumulative IPC: 1.6505 (Simulation time: 0 hr 18 min 20 sec) 
Heartbeat CPU 0 instructions: 27000000 cycles: 16323625 heartbeat IPC: 1.75196 cumulative IPC: 1.65404 (Simulation time: 0 hr 18 min 59 sec) 
Heartbeat CPU 0 instructions: 28000000 cycles: 16919085 heartbeat IPC: 1.67937 cumulative IPC: 1.65494 (Simulation time: 0 hr 19 min 45 sec) 
Heartbeat CPU 0 instructions: 29000003 cycles: 17542786 heartbeat IPC: 1.60334 cumulative IPC: 1.6531 (Simulation time: 0 hr 20 min 28 sec) 
Heartbeat CPU 0 instructions: 30000003 cycles: 18119942 heartbeat IPC: 1.73263 cumulative IPC: 1.65563 (Simulation time: 0 hr 21 min 12 sec) 
Heartbeat CPU 0 instructions: 31000001 cycles: 18728866 heartbeat IPC: 1.64224 cumulative IPC: 1.6552 (Simulation time: 0 hr 21 min 58 sec) 
Heartbeat CPU 0 instructions: 32000000 cycles: 19334218 heartbeat IPC: 1.65193 cumulative IPC: 1.6551 (Simulation time: 0 hr 22 min 39 sec) 
Heartbeat CPU 0 instructions: 33000001 cycles: 19914167 heartbeat IPC: 1.72429 cumulative IPC: 1.65711 (Simulation time: 0 hr 23 min 25 sec) 
Heartbeat CPU 0 instructions: 34000001 cycles: 20565030 heartbeat IPC: 1.53642 cumulative IPC: 1.65329 (Simulation time: 0 hr 24 min 10 sec) 
Heartbeat CPU 0 instructions: 35000002 cycles: 21145376 heartbeat IPC: 1.72311 cumulative IPC: 1.65521 (Simulation time: 0 hr 24 min 49 sec) 
Heartbeat CPU 0 instructions: 36000000 cycles: 21754669 heartbeat IPC: 1.64124 cumulative IPC: 1.65482 (Simulation time: 0 hr 25 min 33 sec) 
Heartbeat CPU 0 instructions: 37000002 cycles: 22393595 heartbeat IPC: 1.56513 cumulative IPC: 1.65226 (Simulation time: 0 hr 26 min 16 sec) 
Heartbeat CPU 0 instructions: 38000000 cycles: 22976420 heartbeat IPC: 1.71578 cumulative IPC: 1.65387 (Simulation time: 0 hr 27 min 3 sec) 
Heartbeat CPU 0 instructions: 39000001 cycles: 23645014 heartbeat IPC: 1.49568 cumulative IPC: 1.6494 (Simulation time: 0 hr 27 min 48 sec) 
Heartbeat CPU 0 instructions: 40000000 cycles: 24234871 heartbeat IPC: 1.69532 cumulative IPC: 1.65051 (Simulation time: 0 hr 28 min 29 sec) 
Heartbeat CPU 0 instructions: 41000000 cycles: 24823257 heartbeat IPC: 1.69956 cumulative IPC: 1.65168 (Simulation time: 0 hr 29 min 16 sec) 
Heartbeat CPU 0 instructions: 42000001 cycles: 25450989 heartbeat IPC: 1.59304 cumulative IPC: 1.65023 (Simulation time: 0 hr 30 min 2 sec) 
Heartbeat CPU 0 instructions: 43000003 cycles: 26056866 heartbeat IPC: 1.6505 cumulative IPC: 1.65024 (Simulation time: 0 hr 30 min 42 sec) 
Heartbeat CPU 0 instructions: 44000000 cycles: 26610450 heartbeat IPC: 1.80641 cumulative IPC: 1.65349 (Simulation time: 0 hr 31 min 22 sec) 
Heartbeat CPU 0 instructions: 45000003 cycles: 27169833 heartbeat IPC: 1.78769 cumulative IPC: 1.65625 (Simulation time: 0 hr 32 min 2 sec) 
Heartbeat CPU 0 instructions: 46000001 cycles: 27785089 heartbeat IPC: 1.62534 cumulative IPC: 1.65556 (Simulation time: 0 hr 32 min 41 sec) 
Heartbeat CPU 0 instructions: 47000000 cycles: 28358528 heartbeat IPC: 1.74386 cumulative IPC: 1.65735 (Simulation time: 0 hr 33 min 18 sec) 
Heartbeat CPU 0 instructions: 48000000 cycles: 28960601 heartbeat IPC: 1.66093 cumulative IPC: 1.65742 (Simulation time: 0 hr 33 min 57 sec) 
Heartbeat CPU 0 instructions: 49000000 cycles: 29540206 heartbeat IPC: 1.72531 cumulative IPC: 1.65876 (Simulation time: 0 hr 34 min 39 sec) 
Heartbeat CPU 0 instructions: 50000000 cycles: 30183609 heartbeat IPC: 1.55424 cumulative IPC: 1.65653 (Simulation time: 0 hr 35 min 24 sec) 

Warmup complete CPU 0 instructions: 50000004 cycles: 30183610 (Simulation time: 0 hr 35 min 24 sec) 

Heartbeat CPU 0 instructions: 51000003 cycles: 33957527 heartbeat IPC: 0.264977 cumulative IPC: 0.264976 (Simulation time: 0 hr 36 min 18 sec) 
Heartbeat CPU 0 instructions: 52000000 cycles: 37970204 heartbeat IPC: 0.249209 cumulative IPC: 0.256851 (Simulation time: 0 hr 37 min 19 sec) 
Heartbeat CPU 0 instructions: 53000000 cycles: 42527171 heartbeat IPC: 0.219444 cumulative IPC: 0.243041 (Simulation time: 0 hr 38 min 12 sec) 
Heartbeat CPU 0 instructions: 54000002 cycles: 46607740 heartbeat IPC: 0.245064 cumulative IPC: 0.243544 (Simulation time: 0 hr 39 min 2 sec) 
Heartbeat CPU 0 instructions: 55000001 cycles: 50453608 heartbeat IPC: 0.260019 cumulative IPC: 0.24667 (Simulation time: 0 hr 39 min 51 sec) 
Heartbeat CPU 0 instructions: 56000000 cycles: 54708325 heartbeat IPC: 0.235033 cumulative IPC: 0.244651 (Simulation time: 0 hr 40 min 39 sec) 
Heartbeat CPU 0 instructions: 57000001 cycles: 58773240 heartbeat IPC: 0.246008 cumulative IPC: 0.244844 (Simulation time: 0 hr 41 min 31 sec) 
Heartbeat CPU 0 instructions: 58000000 cycles: 62023939 heartbeat IPC: 0.307626 cumulative IPC: 0.251254 (Simulation time: 0 hr 42 min 25 sec) 
Heartbeat CPU 0 instructions: 59000003 cycles: 65948036 heartbeat IPC: 0.254836 cumulative IPC: 0.251647 (Simulation time: 0 hr 43 min 22 sec) 
Heartbeat CPU 0 instructions: 60000000 cycles: 70317634 heartbeat IPC: 0.228853 cumulative IPC: 0.249165 (Simulation time: 0 hr 44 min 27 sec) 
Heartbeat CPU 0 instructions: 61000001 cycles: 74742093 heartbeat IPC: 0.226017 cumulative IPC: 0.246867 (Simulation time: 0 hr 45 min 26 sec) 
Heartbeat CPU 0 instructions: 62000000 cycles: 79190067 heartbeat IPC: 0.224821 cumulative IPC: 0.244866 (Simulation time: 0 hr 46 min 28 sec) 
Heartbeat CPU 0 instructions: 63000001 cycles: 82875306 heartbeat IPC: 0.271353 cumulative IPC: 0.246718 (Simulation time: 0 hr 47 min 20 sec) 
Heartbeat CPU 0 instructions: 64000000 cycles: 86687549 heartbeat IPC: 0.262313 cumulative IPC: 0.24777 (Simulation time: 0 hr 48 min 7 sec) 
Heartbeat CPU 0 instructions: 65000001 cycles: 90138081 heartbeat IPC: 0.289811 cumulative IPC: 0.25019 (Simulation time: 0 hr 48 min 53 sec) 
Heartbeat CPU 0 instructions: 66000002 cycles: 94162620 heartbeat IPC: 0.248476 cumulative IPC: 0.250082 (Simulation time: 0 hr 49 min 47 sec) 
Heartbeat CPU 0 instructions: 67000002 cycles: 97908612 heartbeat IPC: 0.266952 cumulative IPC: 0.251015 (Simulation time: 0 hr 50 min 46 sec) 
Heartbeat CPU 0 instructions: 68000000 cycles: 101779931 heartbeat IPC: 0.258309 cumulative IPC: 0.25141 (Simulation time: 0 hr 51 min 41 sec) 
Heartbeat CPU 0 instructions: 69000000 cycles: 105785715 heartbeat IPC: 0.249639 cumulative IPC: 0.251316 (Simulation time: 0 hr 52 min 33 sec) 
Heartbeat CPU 0 instructions: 70000001 cycles: 109490009 heartbeat IPC: 0.269957 cumulative IPC: 0.252186 (Simulation time: 0 hr 53 min 19 sec) 
Heartbeat CPU 0 instructions: 71000003 cycles: 113419191 heartbeat IPC: 0.254506 cumulative IPC: 0.252296 (Simulation time: 0 hr 54 min 10 sec) 
Heartbeat CPU 0 instructions: 72000000 cycles: 117851439 heartbeat IPC: 0.225618 cumulative IPC: 0.250947 (Simulation time: 0 hr 55 min 12 sec) 
Heartbeat CPU 0 instructions: 73000002 cycles: 121859393 heartbeat IPC: 0.249504 cumulative IPC: 0.250884 (Simulation time: 0 hr 56 min 5 sec) 
Heartbeat CPU 0 instructions: 74000000 cycles: 125664522 heartbeat IPC: 0.262803 cumulative IPC: 0.251359 (Simulation time: 0 hr 57 min 4 sec) 
Heartbeat CPU 0 instructions: 75000003 cycles: 129683146 heartbeat IPC: 0.248842 cumulative IPC: 0.251257 (Simulation time: 0 hr 58 min 3 sec) 
Heartbeat CPU 0 instructions: 76000000 cycles: 133469589 heartbeat IPC: 0.264099 cumulative IPC: 0.251728 (Simulation time: 0 hr 58 min 59 sec) 
Heartbeat CPU 0 instructions: 77000002 cycles: 138119033 heartbeat IPC: 0.21508 cumulative IPC: 0.25015 (Simulation time: 1 hr 0 min 2 sec) 
Heartbeat CPU 0 instructions: 78000003 cycles: 141924888 heartbeat IPC: 0.262753 cumulative IPC: 0.250579 (Simulation time: 1 hr 1 min 2 sec) 
Heartbeat CPU 0 instructions: 79000002 cycles: 145788184 heartbeat IPC: 0.258846 cumulative IPC: 0.250855 (Simulation time: 1 hr 2 min 4 sec) 
Heartbeat CPU 0 instructions: 80000000 cycles: 149595265 heartbeat IPC: 0.262668 cumulative IPC: 0.251232 (Simulation time: 1 hr 2 min 56 sec) 
Heartbeat CPU 0 instructions: 81000002 cycles: 153688204 heartbeat IPC: 0.244324 cumulative IPC: 0.251003 (Simulation time: 1 hr 3 min 54 sec) 
Heartbeat CPU 0 instructions: 82000000 cycles: 158113448 heartbeat IPC: 0.225976 cumulative IPC: 0.250137 (Simulation time: 1 hr 4 min 48 sec) 
Heartbeat CPU 0 instructions: 83000002 cycles: 161806784 heartbeat IPC: 0.270758 cumulative IPC: 0.250716 (Simulation time: 1 hr 5 min 38 sec) 
Heartbeat CPU 0 instructions: 84000000 cycles: 165750887 heartbeat IPC: 0.253543 cumulative IPC: 0.250798 (Simulation time: 1 hr 6 min 37 sec) 
Heartbeat CPU 0 instructions: 85000000 cycles: 169512695 heartbeat IPC: 0.26583 cumulative IPC: 0.251204 (Simulation time: 1 hr 7 min 42 sec) 
Heartbeat CPU 0 instructions: 86000000 cycles: 173369631 heartbeat IPC: 0.259273 cumulative IPC: 0.251421 (Simulation time: 1 hr 8 min 37 sec) 
Heartbeat CPU 0 instructions: 87000001 cycles: 177160093 heartbeat IPC: 0.26382 cumulative IPC: 0.251741 (Simulation time: 1 hr 9 min 38 sec) 
Heartbeat CPU 0 instructions: 88000000 cycles: 180983956 heartbeat IPC: 0.261515 cumulative IPC: 0.251989 (Simulation time: 1 hr 10 min 32 sec) 
Heartbeat CPU 0 instructions: 89000003 cycles: 184502461 heartbeat IPC: 0.284212 cumulative IPC: 0.252723 (Simulation time: 1 hr 11 min 33 sec) 
Heartbeat CPU 0 instructions: 90000000 cycles: 188381667 heartbeat IPC: 0.257784 cumulative IPC: 0.252848 (Simulation time: 1 hr 12 min 18 sec) 
Heartbeat CPU 0 instructions: 91000001 cycles: 191988670 heartbeat IPC: 0.277239 cumulative IPC: 0.253391 (Simulation time: 1 hr 13 min 13 sec) 
Heartbeat CPU 0 instructions: 92000000 cycles: 196032699 heartbeat IPC: 0.247278 cumulative IPC: 0.253242 (Simulation time: 1 hr 14 min 7 sec) 
Heartbeat CPU 0 instructions: 93000001 cycles: 200481729 heartbeat IPC: 0.224768 cumulative IPC: 0.252498 (Simulation time: 1 hr 15 min 2 sec) 
Heartbeat CPU 0 instructions: 94000001 cycles: 204332200 heartbeat IPC: 0.259708 cumulative IPC: 0.252658 (Simulation time: 1 hr 15 min 53 sec) 
Heartbeat CPU 0 instructions: 95000000 cycles: 208349273 heartbeat IPC: 0.248937 cumulative IPC: 0.252574 (Simulation time: 1 hr 16 min 43 sec) 
Heartbeat CPU 0 instructions: 96000000 cycles: 212716660 heartbeat IPC: 0.22897 cumulative IPC: 0.252009 (Simulation time: 1 hr 17 min 46 sec) 
Heartbeat CPU 0 instructions: 97000000 cycles: 216315340 heartbeat IPC: 0.27788 cumulative IPC: 0.252509 (Simulation time: 1 hr 18 min 39 sec) 
Heartbeat CPU 0 instructions: 98000000 cycles: 220527434 heartbeat IPC: 0.237412 cumulative IPC: 0.252175 (Simulation time: 1 hr 19 min 33 sec) 
Heartbeat CPU 0 instructions: 99000000 cycles: 225042733 heartbeat IPC: 0.221469 cumulative IPC: 0.251464 (Simulation time: 1 hr 20 min 21 sec) 
Heartbeat CPU 0 instructions: 100000000 cycles: 229089698 heartbeat IPC: 0.247099 cumulative IPC: 0.251375 (Simulation time: 1 hr 21 min 6 sec) 
Heartbeat CPU 0 instructions: 101000000 cycles: 232955337 heartbeat IPC: 0.258689 cumulative IPC: 0.251514 (Simulation time: 1 hr 21 min 56 sec) 
Heartbeat CPU 0 instructions: 102000003 cycles: 237114731 heartbeat IPC: 0.24042 cumulative IPC: 0.251291 (Simulation time: 1 hr 22 min 48 sec) 
Heartbeat CPU 0 instructions: 103000000 cycles: 240882971 heartbeat IPC: 0.265375 cumulative IPC: 0.251543 (Simulation time: 1 hr 23 min 35 sec) 
Heartbeat CPU 0 instructions: 104000000 cycles: 244655904 heartbeat IPC: 0.265046 cumulative IPC: 0.251781 (Simulation time: 1 hr 24 min 27 sec) 
Heartbeat CPU 0 instructions: 105000003 cycles: 248723739 heartbeat IPC: 0.245832 cumulative IPC: 0.25167 (Simulation time: 1 hr 25 min 5 sec) 
Heartbeat CPU 0 instructions: 106000001 cycles: 252368736 heartbeat IPC: 0.274348 cumulative IPC: 0.252042 (Simulation time: 1 hr 25 min 41 sec) 
Heartbeat CPU 0 instructions: 107000000 cycles: 256557968 heartbeat IPC: 0.238707 cumulative IPC: 0.251795 (Simulation time: 1 hr 26 min 19 sec) 
Heartbeat CPU 0 instructions: 108000000 cycles: 260532654 heartbeat IPC: 0.251592 cumulative IPC: 0.251792 (Simulation time: 1 hr 26 min 59 sec) 
Heartbeat CPU 0 instructions: 109000000 cycles: 265003579 heartbeat IPC: 0.223667 cumulative IPC: 0.251256 (Simulation time: 1 hr 27 min 33 sec) 
Heartbeat CPU 0 instructions: 110000000 cycles: 268630928 heartbeat IPC: 0.275683 cumulative IPC: 0.251628 (Simulation time: 1 hr 28 min 10 sec) 
Heartbeat CPU 0 instructions: 111000002 cycles: 273079634 heartbeat IPC: 0.224785 cumulative IPC: 0.251136 (Simulation time: 1 hr 28 min 57 sec) 
Heartbeat CPU 0 instructions: 112000000 cycles: 277011534 heartbeat IPC: 0.254329 cumulative IPC: 0.251187 (Simulation time: 1 hr 29 min 31 sec) 
Heartbeat CPU 0 instructions: 113000002 cycles: 280602893 heartbeat IPC: 0.278447 cumulative IPC: 0.251578 (Simulation time: 1 hr 30 min 10 sec) 
Heartbeat CPU 0 instructions: 114000000 cycles: 284052933 heartbeat IPC: 0.289851 cumulative IPC: 0.252098 (Simulation time: 1 hr 30 min 44 sec) 
Heartbeat CPU 0 instructions: 115000000 cycles: 287747172 heartbeat IPC: 0.270692 cumulative IPC: 0.252365 (Simulation time: 1 hr 31 min 19 sec) 
Heartbeat CPU 0 instructions: 116000000 cycles: 291893904 heartbeat IPC: 0.241154 cumulative IPC: 0.252187 (Simulation time: 1 hr 31 min 52 sec) 
Heartbeat CPU 0 instructions: 117000000 cycles: 295628195 heartbeat IPC: 0.267788 cumulative IPC: 0.252407 (Simulation time: 1 hr 32 min 23 sec) 
Heartbeat CPU 0 instructions: 118000000 cycles: 299296014 heartbeat IPC: 0.272642 cumulative IPC: 0.252683 (Simulation time: 1 hr 32 min 51 sec) 
Heartbeat CPU 0 instructions: 119000001 cycles: 303063325 heartbeat IPC: 0.265442 cumulative IPC: 0.252859 (Simulation time: 1 hr 33 min 19 sec) 
Heartbeat CPU 0 instructions: 120000000 cycles: 306664362 heartbeat IPC: 0.277698 cumulative IPC: 0.253182 (Simulation time: 1 hr 33 min 47 sec) 
Heartbeat CPU 0 instructions: 121000001 cycles: 310098921 heartbeat IPC: 0.291158 cumulative IPC: 0.253648 (Simulation time: 1 hr 34 min 15 sec) 
Heartbeat CPU 0 instructions: 122000001 cycles: 313707469 heartbeat IPC: 0.27712 cumulative IPC: 0.253947 (Simulation time: 1 hr 34 min 44 sec) 
Heartbeat CPU 0 instructions: 123000000 cycles: 317256710 heartbeat IPC: 0.28175 cumulative IPC: 0.254291 (Simulation time: 1 hr 35 min 8 sec) 
Heartbeat CPU 0 instructions: 124000000 cycles: 320904155 heartbeat IPC: 0.274165 cumulative IPC: 0.25454 (Simulation time: 1 hr 35 min 32 sec) 
Heartbeat CPU 0 instructions: 125000001 cycles: 324541344 heartbeat IPC: 0.274938 cumulative IPC: 0.254792 (Simulation time: 1 hr 35 min 56 sec) 
Heartbeat CPU 0 instructions: 126000003 cycles: 328084382 heartbeat IPC: 0.282244 cumulative IPC: 0.255118 (Simulation time: 1 hr 36 min 20 sec) 
Heartbeat CPU 0 instructions: 127000001 cycles: 331601227 heartbeat IPC: 0.284345 cumulative IPC: 0.25546 (Simulation time: 1 hr 36 min 43 sec) 
Heartbeat CPU 0 instructions: 128000000 cycles: 335144633 heartbeat IPC: 0.282214 cumulative IPC: 0.25577 (Simulation time: 1 hr 37 min 5 sec) 
Heartbeat CPU 0 instructions: 129000001 cycles: 338443641 heartbeat IPC: 0.303122 cumulative IPC: 0.256277 (Simulation time: 1 hr 37 min 26 sec) 
Heartbeat CPU 0 instructions: 130000000 cycles: 342068075 heartbeat IPC: 0.275905 cumulative IPC: 0.256505 (Simulation time: 1 hr 37 min 45 sec) 
Heartbeat CPU 0 instructions: 131000000 cycles: 345767568 heartbeat IPC: 0.270307 cumulative IPC: 0.256667 (Simulation time: 1 hr 38 min 4 sec) 
Heartbeat CPU 0 instructions: 132000000 cycles: 349627191 heartbeat IPC: 0.259093 cumulative IPC: 0.256696 (Simulation time: 1 hr 38 min 20 sec) 
Heartbeat CPU 0 instructions: 133000003 cycles: 353543724 heartbeat IPC: 0.255329 cumulative IPC: 0.25668 (Simulation time: 1 hr 38 min 36 sec) 
Heartbeat CPU 0 instructions: 134000000 cycles: 357570179 heartbeat IPC: 0.248357 cumulative IPC: 0.256577 (Simulation time: 1 hr 38 min 51 sec) 
Heartbeat CPU 0 instructions: 135000001 cycles: 361394969 heartbeat IPC: 0.261453 cumulative IPC: 0.256634 (Simulation time: 1 hr 39 min 4 sec) 
Heartbeat CPU 0 instructions: 136000000 cycles: 365181060 heartbeat IPC: 0.264124 cumulative IPC: 0.256718 (Simulation time: 1 hr 39 min 17 sec) 
Heartbeat CPU 0 instructions: 137000000 cycles: 369011368 heartbeat IPC: 0.261076 cumulative IPC: 0.256768 (Simulation time: 1 hr 39 min 30 sec) 
Heartbeat CPU 0 instructions: 138000000 cycles: 372844502 heartbeat IPC: 0.260883 cumulative IPC: 0.256814 (Simulation time: 1 hr 39 min 43 sec) 
Heartbeat CPU 0 instructions: 139000000 cycles: 376909409 heartbeat IPC: 0.246008 cumulative IPC: 0.256687 (Simulation time: 1 hr 39 min 56 sec) 
Heartbeat CPU 0 instructions: 140000000 cycles: 380485727 heartbeat IPC: 0.279617 cumulative IPC: 0.256921 (Simulation time: 1 hr 40 min 7 sec) 
Heartbeat CPU 0 instructions: 141000001 cycles: 384800999 heartbeat IPC: 0.231735 cumulative IPC: 0.256615 (Simulation time: 1 hr 40 min 19 sec) 
Heartbeat CPU 0 instructions: 142000000 cycles: 388814244 heartbeat IPC: 0.249175 cumulative IPC: 0.256531 (Simulation time: 1 hr 40 min 29 sec) 
Heartbeat CPU 0 instructions: 143000000 cycles: 392943592 heartbeat IPC: 0.242169 cumulative IPC: 0.256368 (Simulation time: 1 hr 40 min 38 sec) 
Heartbeat CPU 0 instructions: 144000000 cycles: 396979283 heartbeat IPC: 0.247789 cumulative IPC: 0.256273 (Simulation time: 1 hr 40 min 47 sec) 
Heartbeat CPU 0 instructions: 145000001 cycles: 400308484 heartbeat IPC: 0.300373 cumulative IPC: 0.25667 (Simulation time: 1 hr 40 min 55 sec) 
Heartbeat CPU 0 instructions: 146000001 cycles: 404566464 heartbeat IPC: 0.234853 cumulative IPC: 0.256422 (Simulation time: 1 hr 41 min 2 sec) 
Heartbeat CPU 0 instructions: 147000002 cycles: 408808742 heartbeat IPC: 0.235723 cumulative IPC: 0.25619 (Simulation time: 1 hr 41 min 8 sec) 
Heartbeat CPU 0 instructions: 148000000 cycles: 412597098 heartbeat IPC: 0.263966 cumulative IPC: 0.256267 (Simulation time: 1 hr 41 min 14 sec) 
Heartbeat CPU 0 instructions: 149000000 cycles: 416346988 heartbeat IPC: 0.266674 cumulative IPC: 0.256368 (Simulation time: 1 hr 41 min 19 sec) 
Heartbeat CPU 0 instructions: 150000000 cycles: 419542920 heartbeat IPC: 0.312898 cumulative IPC: 0.256832 (Simulation time: 1 hr 41 min 24 sec) 
Finished CPU 0 instructions: 100000000 cycles: 389359311 cummulative IPC: 0.256832 (Simulation time: 1 hr 41 min 24 sec) 

ChampSim completed all CPUs

Region of Interest Statistics

CPU 0 cummulative IPC: 0.256832 instructions: 100000000 cycles: 389359311
LLC TOTAL     ACCESS:    4288110  HIT:    1629399  MISS:    2658711
LLC LOAD      ACCESS:    1519180  HIT:     469473  MISS:    1049707
LLC RFO       ACCESS:     246535  HIT:      99919  MISS:     146616
LLC PREFETCH  ACCESS:    1524832  HIT:     307759  MISS:    1217073
LLC WRITEBACK ACCESS:     997563  HIT:     752248  MISS:     245315
OPTgen accesses: 39547
OPTgen hits: 22581
OPTgen hit rate: 57.0991


