
*** ChampSim Multicore Out-of-Order Simulator ***

Warmup Instructions: 50000000
Simulation Instructions: 100000000
Configuration: 2
Number of CPUs: 1
LLC sets: 2048
LLC ways: 16
Off-chip DRAM Channels: 1 Width: 64-bit Data Rate: 1600 MT/s

CPU 0 runs /datasets/cs240c-wi22-a00-public/data/Assignment2-gz/perlbench_135B.trace.gz
CPU 0 L1D next line prefetcher
CPU 0 L2C IP-based stride prefetcher
Initialize Hawkeye state
Heartbeat CPU 0 instructions: 1000000 cycles: 600033 heartbeat IPC: 1.66657 cumulative IPC: 1.66657 (Simulation time: 0 hr 0 min 46 sec) 
Heartbeat CPU 0 instructions: 2000000 cycles: 1209301 heartbeat IPC: 1.64131 cumulative IPC: 1.65385 (Simulation time: 0 hr 1 min 22 sec) 
Heartbeat CPU 0 instructions: 3000000 cycles: 1832834 heartbeat IPC: 1.60376 cumulative IPC: 1.63681 (Simulation time: 0 hr 2 min 9 sec) 
Heartbeat CPU 0 instructions: 4000000 cycles: 2492639 heartbeat IPC: 1.5156 cumulative IPC: 1.60473 (Simulation time: 0 hr 2 min 55 sec) 
Heartbeat CPU 0 instructions: 5000001 cycles: 3079302 heartbeat IPC: 1.70456 cumulative IPC: 1.62374 (Simulation time: 0 hr 3 min 37 sec) 
Heartbeat CPU 0 instructions: 6000002 cycles: 3681731 heartbeat IPC: 1.65995 cumulative IPC: 1.62967 (Simulation time: 0 hr 4 min 21 sec) 
Heartbeat CPU 0 instructions: 7000001 cycles: 4282509 heartbeat IPC: 1.66451 cumulative IPC: 1.63456 (Simulation time: 0 hr 4 min 59 sec) 
Heartbeat CPU 0 instructions: 8000000 cycles: 4893000 heartbeat IPC: 1.63802 cumulative IPC: 1.63499 (Simulation time: 0 hr 5 min 38 sec) 
Heartbeat CPU 0 instructions: 9000001 cycles: 5534129 heartbeat IPC: 1.55975 cumulative IPC: 1.62627 (Simulation time: 0 hr 6 min 17 sec) 
Heartbeat CPU 0 instructions: 10000000 cycles: 6192840 heartbeat IPC: 1.51811 cumulative IPC: 1.61477 (Simulation time: 0 hr 7 min 8 sec) 
Heartbeat CPU 0 instructions: 11000003 cycles: 6888953 heartbeat IPC: 1.43655 cumulative IPC: 1.59676 (Simulation time: 0 hr 7 min 52 sec) 
Heartbeat CPU 0 instructions: 12000000 cycles: 7505167 heartbeat IPC: 1.62281 cumulative IPC: 1.5989 (Simulation time: 0 hr 8 min 35 sec) 
Heartbeat CPU 0 instructions: 13000000 cycles: 8134120 heartbeat IPC: 1.58994 cumulative IPC: 1.59821 (Simulation time: 0 hr 9 min 18 sec) 
Heartbeat CPU 0 instructions: 14000002 cycles: 8774601 heartbeat IPC: 1.56133 cumulative IPC: 1.59551 (Simulation time: 0 hr 10 min 1 sec) 
Heartbeat CPU 0 instructions: 15000003 cycles: 9413475 heartbeat IPC: 1.56526 cumulative IPC: 1.59346 (Simulation time: 0 hr 10 min 39 sec) 
Heartbeat CPU 0 instructions: 16000000 cycles: 10053311 heartbeat IPC: 1.5629 cumulative IPC: 1.59152 (Simulation time: 0 hr 11 min 18 sec) 
Heartbeat CPU 0 instructions: 17000000 cycles: 10694467 heartbeat IPC: 1.55968 cumulative IPC: 1.58961 (Simulation time: 0 hr 11 min 59 sec) 
Heartbeat CPU 0 instructions: 18000000 cycles: 11335137 heartbeat IPC: 1.56087 cumulative IPC: 1.58798 (Simulation time: 0 hr 12 min 43 sec) 
Heartbeat CPU 0 instructions: 19000003 cycles: 11972217 heartbeat IPC: 1.56967 cumulative IPC: 1.58701 (Simulation time: 0 hr 13 min 23 sec) 
Heartbeat CPU 0 instructions: 20000000 cycles: 12611056 heartbeat IPC: 1.56533 cumulative IPC: 1.58591 (Simulation time: 0 hr 14 min 4 sec) 
Heartbeat CPU 0 instructions: 21000000 cycles: 13246420 heartbeat IPC: 1.5739 cumulative IPC: 1.58533 (Simulation time: 0 hr 14 min 48 sec) 
Heartbeat CPU 0 instructions: 22000002 cycles: 13885165 heartbeat IPC: 1.56557 cumulative IPC: 1.58442 (Simulation time: 0 hr 15 min 32 sec) 
Heartbeat CPU 0 instructions: 23000003 cycles: 14552678 heartbeat IPC: 1.4981 cumulative IPC: 1.58047 (Simulation time: 0 hr 16 min 17 sec) 
Heartbeat CPU 0 instructions: 24000000 cycles: 15116446 heartbeat IPC: 1.77377 cumulative IPC: 1.58767 (Simulation time: 0 hr 16 min 54 sec) 
Heartbeat CPU 0 instructions: 25000000 cycles: 15773351 heartbeat IPC: 1.52229 cumulative IPC: 1.58495 (Simulation time: 0 hr 17 min 33 sec) 
Heartbeat CPU 0 instructions: 26000001 cycles: 16389265 heartbeat IPC: 1.6236 cumulative IPC: 1.5864 (Simulation time: 0 hr 18 min 15 sec) 
Heartbeat CPU 0 instructions: 27000000 cycles: 17029491 heartbeat IPC: 1.56195 cumulative IPC: 1.58548 (Simulation time: 0 hr 18 min 59 sec) 
Heartbeat CPU 0 instructions: 28000000 cycles: 17670199 heartbeat IPC: 1.56077 cumulative IPC: 1.58459 (Simulation time: 0 hr 19 min 40 sec) 
Heartbeat CPU 0 instructions: 29000000 cycles: 18307729 heartbeat IPC: 1.56855 cumulative IPC: 1.58403 (Simulation time: 0 hr 20 min 24 sec) 
Heartbeat CPU 0 instructions: 30000002 cycles: 18953365 heartbeat IPC: 1.54886 cumulative IPC: 1.58283 (Simulation time: 0 hr 21 min 6 sec) 
Heartbeat CPU 0 instructions: 31000001 cycles: 19589975 heartbeat IPC: 1.57082 cumulative IPC: 1.58244 (Simulation time: 0 hr 21 min 47 sec) 
Heartbeat CPU 0 instructions: 32000000 cycles: 20230145 heartbeat IPC: 1.56208 cumulative IPC: 1.5818 (Simulation time: 0 hr 22 min 28 sec) 
Heartbeat CPU 0 instructions: 33000000 cycles: 20865466 heartbeat IPC: 1.57401 cumulative IPC: 1.58156 (Simulation time: 0 hr 23 min 10 sec) 
Heartbeat CPU 0 instructions: 34000001 cycles: 21501799 heartbeat IPC: 1.57151 cumulative IPC: 1.58126 (Simulation time: 0 hr 23 min 52 sec) 
Heartbeat CPU 0 instructions: 35000003 cycles: 22157549 heartbeat IPC: 1.52497 cumulative IPC: 1.5796 (Simulation time: 0 hr 24 min 32 sec) 
Heartbeat CPU 0 instructions: 36000000 cycles: 22756609 heartbeat IPC: 1.66928 cumulative IPC: 1.58196 (Simulation time: 0 hr 25 min 15 sec) 
Heartbeat CPU 0 instructions: 37000000 cycles: 23371584 heartbeat IPC: 1.62608 cumulative IPC: 1.58312 (Simulation time: 0 hr 25 min 53 sec) 
Heartbeat CPU 0 instructions: 38000002 cycles: 23943833 heartbeat IPC: 1.74749 cumulative IPC: 1.58705 (Simulation time: 0 hr 26 min 39 sec) 
Heartbeat CPU 0 instructions: 39000000 cycles: 24547815 heartbeat IPC: 1.65568 cumulative IPC: 1.58874 (Simulation time: 0 hr 27 min 14 sec) 
Heartbeat CPU 0 instructions: 40000000 cycles: 25099326 heartbeat IPC: 1.8132 cumulative IPC: 1.59367 (Simulation time: 0 hr 27 min 49 sec) 
Heartbeat CPU 0 instructions: 41000001 cycles: 25665871 heartbeat IPC: 1.76509 cumulative IPC: 1.59745 (Simulation time: 0 hr 28 min 23 sec) 
Heartbeat CPU 0 instructions: 42000003 cycles: 26303470 heartbeat IPC: 1.56839 cumulative IPC: 1.59675 (Simulation time: 0 hr 29 min 2 sec) 
Heartbeat CPU 0 instructions: 43000001 cycles: 26969563 heartbeat IPC: 1.50129 cumulative IPC: 1.59439 (Simulation time: 0 hr 29 min 40 sec) 
Heartbeat CPU 0 instructions: 44000000 cycles: 27581742 heartbeat IPC: 1.63351 cumulative IPC: 1.59526 (Simulation time: 0 hr 30 min 16 sec) 
Heartbeat CPU 0 instructions: 45000003 cycles: 28227621 heartbeat IPC: 1.54828 cumulative IPC: 1.59418 (Simulation time: 0 hr 30 min 56 sec) 
Heartbeat CPU 0 instructions: 46000000 cycles: 28867240 heartbeat IPC: 1.56343 cumulative IPC: 1.5935 (Simulation time: 0 hr 31 min 34 sec) 
Heartbeat CPU 0 instructions: 47000000 cycles: 29506362 heartbeat IPC: 1.56465 cumulative IPC: 1.59288 (Simulation time: 0 hr 32 min 18 sec) 
Heartbeat CPU 0 instructions: 48000000 cycles: 30146517 heartbeat IPC: 1.56212 cumulative IPC: 1.59222 (Simulation time: 0 hr 33 min 0 sec) 
Heartbeat CPU 0 instructions: 49000003 cycles: 30788445 heartbeat IPC: 1.55781 cumulative IPC: 1.59151 (Simulation time: 0 hr 33 min 44 sec) 
Heartbeat CPU 0 instructions: 50000001 cycles: 31428051 heartbeat IPC: 1.56346 cumulative IPC: 1.59094 (Simulation time: 0 hr 34 min 30 sec) 

Warmup complete CPU 0 instructions: 50000001 cycles: 31428051 (Simulation time: 0 hr 34 min 30 sec) 

Heartbeat CPU 0 instructions: 51000000 cycles: 34046821 heartbeat IPC: 0.381858 cumulative IPC: 0.381858 (Simulation time: 0 hr 35 min 20 sec) 
Heartbeat CPU 0 instructions: 52000000 cycles: 36657459 heartbeat IPC: 0.383048 cumulative IPC: 0.382452 (Simulation time: 0 hr 36 min 16 sec) 
Heartbeat CPU 0 instructions: 53000000 cycles: 39241652 heartbeat IPC: 0.386968 cumulative IPC: 0.383946 (Simulation time: 0 hr 36 min 57 sec) 
Heartbeat CPU 0 instructions: 54000001 cycles: 41881129 heartbeat IPC: 0.378863 cumulative IPC: 0.382662 (Simulation time: 0 hr 37 min 38 sec) 
Heartbeat CPU 0 instructions: 55000001 cycles: 44328208 heartbeat IPC: 0.40865 cumulative IPC: 0.387592 (Simulation time: 0 hr 38 min 31 sec) 
Heartbeat CPU 0 instructions: 56000000 cycles: 46451785 heartbeat IPC: 0.470903 cumulative IPC: 0.399368 (Simulation time: 0 hr 39 min 15 sec) 
Heartbeat CPU 0 instructions: 57000000 cycles: 48653499 heartbeat IPC: 0.454192 cumulative IPC: 0.406375 (Simulation time: 0 hr 39 min 56 sec) 
Heartbeat CPU 0 instructions: 58000002 cycles: 50601288 heartbeat IPC: 0.513404 cumulative IPC: 0.417248 (Simulation time: 0 hr 40 min 39 sec) 
Heartbeat CPU 0 instructions: 59000003 cycles: 52718845 heartbeat IPC: 0.472243 cumulative IPC: 0.422718 (Simulation time: 0 hr 41 min 23 sec) 
Heartbeat CPU 0 instructions: 60000000 cycles: 55767303 heartbeat IPC: 0.328034 cumulative IPC: 0.410859 (Simulation time: 0 hr 42 min 15 sec) 
Heartbeat CPU 0 instructions: 61000000 cycles: 58189533 heartbeat IPC: 0.412843 cumulative IPC: 0.411038 (Simulation time: 0 hr 42 min 57 sec) 
Heartbeat CPU 0 instructions: 62000001 cycles: 61030230 heartbeat IPC: 0.352027 cumulative IPC: 0.405376 (Simulation time: 0 hr 43 min 42 sec) 
Heartbeat CPU 0 instructions: 63000000 cycles: 64028424 heartbeat IPC: 0.333534 cumulative IPC: 0.398768 (Simulation time: 0 hr 44 min 31 sec) 
Heartbeat CPU 0 instructions: 64000000 cycles: 67030759 heartbeat IPC: 0.333074 cumulative IPC: 0.393229 (Simulation time: 0 hr 45 min 16 sec) 
Heartbeat CPU 0 instructions: 65000001 cycles: 69980170 heartbeat IPC: 0.339051 cumulative IPC: 0.389084 (Simulation time: 0 hr 45 min 58 sec) 
Heartbeat CPU 0 instructions: 66000001 cycles: 72880450 heartbeat IPC: 0.344794 cumulative IPC: 0.385985 (Simulation time: 0 hr 46 min 39 sec) 
Heartbeat CPU 0 instructions: 67000001 cycles: 75623576 heartbeat IPC: 0.364548 cumulative IPC: 0.384654 (Simulation time: 0 hr 47 min 29 sec) 
Heartbeat CPU 0 instructions: 68000000 cycles: 78359152 heartbeat IPC: 0.365553 cumulative IPC: 0.383541 (Simulation time: 0 hr 48 min 20 sec) 
Heartbeat CPU 0 instructions: 69000002 cycles: 81322259 heartbeat IPC: 0.337484 cumulative IPC: 0.380806 (Simulation time: 0 hr 49 min 14 sec) 
Heartbeat CPU 0 instructions: 70000003 cycles: 83135283 heartbeat IPC: 0.551565 cumulative IPC: 0.386793 (Simulation time: 0 hr 50 min 0 sec) 
Heartbeat CPU 0 instructions: 71000000 cycles: 85055028 heartbeat IPC: 0.520901 cumulative IPC: 0.391594 (Simulation time: 0 hr 50 min 37 sec) 
Heartbeat CPU 0 instructions: 72000000 cycles: 87046331 heartbeat IPC: 0.502184 cumulative IPC: 0.395553 (Simulation time: 0 hr 51 min 15 sec) 
Heartbeat CPU 0 instructions: 73000000 cycles: 89315184 heartbeat IPC: 0.440751 cumulative IPC: 0.397325 (Simulation time: 0 hr 51 min 58 sec) 
Heartbeat CPU 0 instructions: 74000000 cycles: 91233730 heartbeat IPC: 0.521228 cumulative IPC: 0.4013 (Simulation time: 0 hr 52 min 41 sec) 
Heartbeat CPU 0 instructions: 75000003 cycles: 93478741 heartbeat IPC: 0.445433 cumulative IPC: 0.402896 (Simulation time: 0 hr 53 min 23 sec) 
Heartbeat CPU 0 instructions: 76000000 cycles: 96231985 heartbeat IPC: 0.363207 cumulative IPC: 0.40121 (Simulation time: 0 hr 54 min 10 sec) 
Heartbeat CPU 0 instructions: 77000000 cycles: 98930848 heartbeat IPC: 0.370526 cumulative IPC: 0.399983 (Simulation time: 0 hr 54 min 59 sec) 
Heartbeat CPU 0 instructions: 78000000 cycles: 101887926 heartbeat IPC: 0.338172 cumulative IPC: 0.397389 (Simulation time: 0 hr 55 min 52 sec) 
Heartbeat CPU 0 instructions: 79000000 cycles: 103747493 heartbeat IPC: 0.53776 cumulative IPC: 0.400999 (Simulation time: 0 hr 56 min 34 sec) 
Heartbeat CPU 0 instructions: 80000000 cycles: 105534749 heartbeat IPC: 0.559517 cumulative IPC: 0.404822 (Simulation time: 0 hr 57 min 11 sec) 
Heartbeat CPU 0 instructions: 81000000 cycles: 107456145 heartbeat IPC: 0.520455 cumulative IPC: 0.407744 (Simulation time: 0 hr 57 min 52 sec) 
Heartbeat CPU 0 instructions: 82000000 cycles: 109373684 heartbeat IPC: 0.521502 cumulative IPC: 0.410543 (Simulation time: 0 hr 58 min 33 sec) 
Heartbeat CPU 0 instructions: 83000000 cycles: 111706202 heartbeat IPC: 0.428721 cumulative IPC: 0.411071 (Simulation time: 0 hr 59 min 26 sec) 
Heartbeat CPU 0 instructions: 84000000 cycles: 113657652 heartbeat IPC: 0.512439 cumulative IPC: 0.413476 (Simulation time: 1 hr 0 min 5 sec) 
Heartbeat CPU 0 instructions: 85000000 cycles: 115578667 heartbeat IPC: 0.520558 cumulative IPC: 0.415921 (Simulation time: 1 hr 0 min 44 sec) 
Heartbeat CPU 0 instructions: 86000002 cycles: 117497196 heartbeat IPC: 0.521234 cumulative IPC: 0.418268 (Simulation time: 1 hr 1 min 31 sec) 
Heartbeat CPU 0 instructions: 87000003 cycles: 119668197 heartbeat IPC: 0.460617 cumulative IPC: 0.41931 (Simulation time: 1 hr 2 min 11 sec) 
Heartbeat CPU 0 instructions: 88000000 cycles: 122459483 heartbeat IPC: 0.358257 cumulative IPC: 0.417438 (Simulation time: 1 hr 2 min 56 sec) 
Heartbeat CPU 0 instructions: 89000003 cycles: 125031690 heartbeat IPC: 0.388772 cumulative IPC: 0.416651 (Simulation time: 1 hr 3 min 45 sec) 
Heartbeat CPU 0 instructions: 90000001 cycles: 127918470 heartbeat IPC: 0.346406 cumulative IPC: 0.414549 (Simulation time: 1 hr 4 min 37 sec) 
Heartbeat CPU 0 instructions: 91000000 cycles: 130404871 heartbeat IPC: 0.402187 cumulative IPC: 0.414238 (Simulation time: 1 hr 5 min 27 sec) 
Heartbeat CPU 0 instructions: 92000000 cycles: 132865591 heartbeat IPC: 0.406385 cumulative IPC: 0.414048 (Simulation time: 1 hr 6 min 11 sec) 
Heartbeat CPU 0 instructions: 93000000 cycles: 135578675 heartbeat IPC: 0.368584 cumulative IPC: 0.412864 (Simulation time: 1 hr 6 min 51 sec) 
Heartbeat CPU 0 instructions: 94000001 cycles: 138236474 heartbeat IPC: 0.376252 cumulative IPC: 0.411953 (Simulation time: 1 hr 7 min 39 sec) 
Heartbeat CPU 0 instructions: 95000000 cycles: 141090708 heartbeat IPC: 0.350356 cumulative IPC: 0.410349 (Simulation time: 1 hr 8 min 33 sec) 
Heartbeat CPU 0 instructions: 96000000 cycles: 144183957 heartbeat IPC: 0.323285 cumulative IPC: 0.407961 (Simulation time: 1 hr 9 min 27 sec) 
Heartbeat CPU 0 instructions: 97000001 cycles: 147201247 heartbeat IPC: 0.331424 cumulative IPC: 0.405966 (Simulation time: 1 hr 10 min 11 sec) 
Heartbeat CPU 0 instructions: 98000000 cycles: 149868663 heartbeat IPC: 0.374894 cumulative IPC: 0.405266 (Simulation time: 1 hr 10 min 55 sec) 
Heartbeat CPU 0 instructions: 99000000 cycles: 152468652 heartbeat IPC: 0.384617 cumulative IPC: 0.404823 (Simulation time: 1 hr 11 min 39 sec) 
Heartbeat CPU 0 instructions: 100000000 cycles: 155094528 heartbeat IPC: 0.380825 cumulative IPC: 0.404313 (Simulation time: 1 hr 12 min 21 sec) 
Heartbeat CPU 0 instructions: 101000001 cycles: 157697480 heartbeat IPC: 0.38418 cumulative IPC: 0.403898 (Simulation time: 1 hr 13 min 5 sec) 
Heartbeat CPU 0 instructions: 102000000 cycles: 160333403 heartbeat IPC: 0.379373 cumulative IPC: 0.403397 (Simulation time: 1 hr 13 min 47 sec) 
Heartbeat CPU 0 instructions: 103000000 cycles: 162992677 heartbeat IPC: 0.376042 cumulative IPC: 0.402844 (Simulation time: 1 hr 14 min 32 sec) 
Heartbeat CPU 0 instructions: 104000000 cycles: 165713409 heartbeat IPC: 0.367548 cumulative IPC: 0.402129 (Simulation time: 1 hr 15 min 19 sec) 
Heartbeat CPU 0 instructions: 105000001 cycles: 168318419 heartbeat IPC: 0.383876 cumulative IPC: 0.401781 (Simulation time: 1 hr 16 min 7 sec) 
Heartbeat CPU 0 instructions: 106000001 cycles: 170937290 heartbeat IPC: 0.381844 cumulative IPC: 0.401407 (Simulation time: 1 hr 16 min 52 sec) 
Heartbeat CPU 0 instructions: 107000000 cycles: 173552090 heartbeat IPC: 0.382438 cumulative IPC: 0.401058 (Simulation time: 1 hr 17 min 31 sec) 
Heartbeat CPU 0 instructions: 108000000 cycles: 176163652 heartbeat IPC: 0.382913 cumulative IPC: 0.400731 (Simulation time: 1 hr 18 min 16 sec) 
Heartbeat CPU 0 instructions: 109000001 cycles: 178736644 heartbeat IPC: 0.388653 cumulative IPC: 0.40052 (Simulation time: 1 hr 19 min 10 sec) 
Heartbeat CPU 0 instructions: 110000003 cycles: 180900751 heartbeat IPC: 0.462085 cumulative IPC: 0.401411 (Simulation time: 1 hr 19 min 54 sec) 
Heartbeat CPU 0 instructions: 111000000 cycles: 183318800 heartbeat IPC: 0.413555 cumulative IPC: 0.401604 (Simulation time: 1 hr 20 min 33 sec) 
Heartbeat CPU 0 instructions: 112000000 cycles: 186138699 heartbeat IPC: 0.354623 cumulative IPC: 0.400748 (Simulation time: 1 hr 21 min 17 sec) 
Heartbeat CPU 0 instructions: 113000000 cycles: 188815198 heartbeat IPC: 0.373622 cumulative IPC: 0.400287 (Simulation time: 1 hr 22 min 1 sec) 
Heartbeat CPU 0 instructions: 114000002 cycles: 191384567 heartbeat IPC: 0.389201 cumulative IPC: 0.400109 (Simulation time: 1 hr 22 min 54 sec) 
Heartbeat CPU 0 instructions: 115000001 cycles: 194000112 heartbeat IPC: 0.382329 cumulative IPC: 0.399823 (Simulation time: 1 hr 23 min 37 sec) 
Heartbeat CPU 0 instructions: 116000000 cycles: 196588007 heartbeat IPC: 0.386414 cumulative IPC: 0.399613 (Simulation time: 1 hr 24 min 16 sec) 
Heartbeat CPU 0 instructions: 117000002 cycles: 199163760 heartbeat IPC: 0.388237 cumulative IPC: 0.399438 (Simulation time: 1 hr 24 min 49 sec) 
Heartbeat CPU 0 instructions: 118000001 cycles: 201669017 heartbeat IPC: 0.39916 cumulative IPC: 0.399434 (Simulation time: 1 hr 25 min 24 sec) 
Heartbeat CPU 0 instructions: 119000000 cycles: 203664360 heartbeat IPC: 0.501166 cumulative IPC: 0.400612 (Simulation time: 1 hr 25 min 57 sec) 
Heartbeat CPU 0 instructions: 120000000 cycles: 206513261 heartbeat IPC: 0.351013 cumulative IPC: 0.399805 (Simulation time: 1 hr 26 min 32 sec) 
Heartbeat CPU 0 instructions: 121000001 cycles: 209165882 heartbeat IPC: 0.376986 cumulative IPC: 0.399465 (Simulation time: 1 hr 27 min 2 sec) 
Heartbeat CPU 0 instructions: 122000002 cycles: 212021977 heartbeat IPC: 0.350129 cumulative IPC: 0.398685 (Simulation time: 1 hr 27 min 39 sec) 
Heartbeat CPU 0 instructions: 123000001 cycles: 214818736 heartbeat IPC: 0.357556 cumulative IPC: 0.398057 (Simulation time: 1 hr 28 min 10 sec) 
Heartbeat CPU 0 instructions: 124000000 cycles: 217363309 heartbeat IPC: 0.392993 cumulative IPC: 0.397988 (Simulation time: 1 hr 28 min 39 sec) 
Heartbeat CPU 0 instructions: 125000003 cycles: 219329599 heartbeat IPC: 0.508574 cumulative IPC: 0.399145 (Simulation time: 1 hr 29 min 6 sec) 
Heartbeat CPU 0 instructions: 126000000 cycles: 221251337 heartbeat IPC: 0.520361 cumulative IPC: 0.400372 (Simulation time: 1 hr 29 min 31 sec) 
Heartbeat CPU 0 instructions: 127000001 cycles: 223654601 heartbeat IPC: 0.416101 cumulative IPC: 0.400569 (Simulation time: 1 hr 29 min 59 sec) 
Heartbeat CPU 0 instructions: 128000000 cycles: 225643388 heartbeat IPC: 0.502819 cumulative IPC: 0.401616 (Simulation time: 1 hr 30 min 23 sec) 
Heartbeat CPU 0 instructions: 129000000 cycles: 227566167 heartbeat IPC: 0.520081 cumulative IPC: 0.402777 (Simulation time: 1 hr 30 min 46 sec) 
Heartbeat CPU 0 instructions: 130000001 cycles: 230337458 heartbeat IPC: 0.360843 cumulative IPC: 0.402193 (Simulation time: 1 hr 31 min 11 sec) 
Heartbeat CPU 0 instructions: 131000003 cycles: 233007033 heartbeat IPC: 0.374592 cumulative IPC: 0.401828 (Simulation time: 1 hr 31 min 37 sec) 
Heartbeat CPU 0 instructions: 132000000 cycles: 235728165 heartbeat IPC: 0.367493 cumulative IPC: 0.40137 (Simulation time: 1 hr 32 min 2 sec) 
Heartbeat CPU 0 instructions: 133000002 cycles: 238668614 heartbeat IPC: 0.340085 cumulative IPC: 0.400501 (Simulation time: 1 hr 32 min 27 sec) 
Heartbeat CPU 0 instructions: 134000000 cycles: 241704981 heartbeat IPC: 0.32934 cumulative IPC: 0.399473 (Simulation time: 1 hr 32 min 53 sec) 
Heartbeat CPU 0 instructions: 135000002 cycles: 244263661 heartbeat IPC: 0.390827 cumulative IPC: 0.399369 (Simulation time: 1 hr 33 min 21 sec) 
Heartbeat CPU 0 instructions: 136000000 cycles: 247114935 heartbeat IPC: 0.35072 cumulative IPC: 0.398726 (Simulation time: 1 hr 33 min 46 sec) 
Heartbeat CPU 0 instructions: 137000003 cycles: 249886589 heartbeat IPC: 0.360796 cumulative IPC: 0.398245 (Simulation time: 1 hr 34 min 12 sec) 
Heartbeat CPU 0 instructions: 138000000 cycles: 252617133 heartbeat IPC: 0.366226 cumulative IPC: 0.39785 (Simulation time: 1 hr 34 min 41 sec) 
Heartbeat CPU 0 instructions: 139000001 cycles: 254888859 heartbeat IPC: 0.440194 cumulative IPC: 0.39828 (Simulation time: 1 hr 35 min 3 sec) 
Heartbeat CPU 0 instructions: 140000000 cycles: 257526864 heartbeat IPC: 0.379074 cumulative IPC: 0.398056 (Simulation time: 1 hr 35 min 26 sec) 
Heartbeat CPU 0 instructions: 141000000 cycles: 260283156 heartbeat IPC: 0.362806 cumulative IPC: 0.397631 (Simulation time: 1 hr 35 min 47 sec) 
Heartbeat CPU 0 instructions: 142000000 cycles: 263037659 heartbeat IPC: 0.363042 cumulative IPC: 0.39722 (Simulation time: 1 hr 36 min 10 sec) 
Heartbeat CPU 0 instructions: 143000000 cycles: 265680583 heartbeat IPC: 0.378369 cumulative IPC: 0.397007 (Simulation time: 1 hr 36 min 32 sec) 
Heartbeat CPU 0 instructions: 144000000 cycles: 267880182 heartbeat IPC: 0.454628 cumulative IPC: 0.397543 (Simulation time: 1 hr 36 min 53 sec) 
Heartbeat CPU 0 instructions: 145000002 cycles: 270098861 heartbeat IPC: 0.45072 cumulative IPC: 0.398038 (Simulation time: 1 hr 37 min 11 sec) 
Heartbeat CPU 0 instructions: 146000001 cycles: 272112181 heartbeat IPC: 0.496692 cumulative IPC: 0.398863 (Simulation time: 1 hr 37 min 27 sec) 
Heartbeat CPU 0 instructions: 147000001 cycles: 274839009 heartbeat IPC: 0.366726 cumulative IPC: 0.398503 (Simulation time: 1 hr 37 min 45 sec) 
Heartbeat CPU 0 instructions: 148000000 cycles: 277420728 heartbeat IPC: 0.387338 cumulative IPC: 0.398386 (Simulation time: 1 hr 38 min 3 sec) 
Heartbeat CPU 0 instructions: 149000000 cycles: 280062660 heartbeat IPC: 0.378511 cumulative IPC: 0.398175 (Simulation time: 1 hr 38 min 17 sec) 
Heartbeat CPU 0 instructions: 150000001 cycles: 282805687 heartbeat IPC: 0.364561 cumulative IPC: 0.397808 (Simulation time: 1 hr 38 min 30 sec) 
Finished CPU 0 instructions: 100000000 cycles: 251377636 cummulative IPC: 0.397808 (Simulation time: 1 hr 38 min 30 sec) 

ChampSim completed all CPUs

Region of Interest Statistics

CPU 0 cummulative IPC: 0.397808 instructions: 100000000 cycles: 251377636
LLC TOTAL     ACCESS:     694194  HIT:     638307  MISS:      55887
LLC LOAD      ACCESS:     325711  HIT:     303406  MISS:      22305
LLC RFO       ACCESS:      31880  HIT:      26962  MISS:       4918
LLC PREFETCH  ACCESS:     223583  HIT:     195979  MISS:      27604
LLC WRITEBACK ACCESS:     113020  HIT:     111960  MISS:       1060
OPTgen accesses: 8427
OPTgen hits: 9986
OPTgen hit rate: 118.5


