
*** ChampSim Multicore Out-of-Order Simulator ***

Warmup Instructions: 50000000
Simulation Instructions: 100000000
Configuration: 2
Number of CPUs: 1
LLC sets: 2048
LLC ways: 16
Off-chip DRAM Channels: 1 Width: 64-bit Data Rate: 1600 MT/s

CPU 0 runs /datasets/cs240c-wi22-a00-public/data/Assignment2-gz/libquantum_1735B.trace.gz
CPU 0 L1D next line prefetcher
CPU 0 L2C IP-based stride prefetcher
Initialize Hawkeye state
Heartbeat CPU 0 instructions: 1000001 cycles: 333341 heartbeat IPC: 2.99993 cumulative IPC: 2.99993 (Simulation time: 0 hr 0 min 34 sec) 
Heartbeat CPU 0 instructions: 2000000 cycles: 666674 heartbeat IPC: 3 cumulative IPC: 2.99997 (Simulation time: 0 hr 1 min 10 sec) 
Heartbeat CPU 0 instructions: 3000000 cycles: 989045 heartbeat IPC: 3.10202 cumulative IPC: 3.03323 (Simulation time: 0 hr 1 min 39 sec) 
Heartbeat CPU 0 instructions: 4000000 cycles: 1290770 heartbeat IPC: 3.31428 cumulative IPC: 3.09893 (Simulation time: 0 hr 2 min 10 sec) 
Heartbeat CPU 0 instructions: 5000001 cycles: 1592495 heartbeat IPC: 3.31428 cumulative IPC: 3.13973 (Simulation time: 0 hr 2 min 41 sec) 
Heartbeat CPU 0 instructions: 6000001 cycles: 1894219 heartbeat IPC: 3.31429 cumulative IPC: 3.16753 (Simulation time: 0 hr 3 min 18 sec) 
Heartbeat CPU 0 instructions: 7000002 cycles: 2195942 heartbeat IPC: 3.3143 cumulative IPC: 3.1877 (Simulation time: 0 hr 3 min 53 sec) 
Heartbeat CPU 0 instructions: 8000000 cycles: 2501897 heartbeat IPC: 3.26845 cumulative IPC: 3.19757 (Simulation time: 0 hr 4 min 30 sec) 
Heartbeat CPU 0 instructions: 9000000 cycles: 2835230 heartbeat IPC: 3 cumulative IPC: 3.17435 (Simulation time: 0 hr 5 min 5 sec) 
Heartbeat CPU 0 instructions: 10000002 cycles: 3168564 heartbeat IPC: 3 cumulative IPC: 3.156 (Simulation time: 0 hr 5 min 34 sec) 
Heartbeat CPU 0 instructions: 11000001 cycles: 3501897 heartbeat IPC: 3 cumulative IPC: 3.14116 (Simulation time: 0 hr 6 min 8 sec) 
Heartbeat CPU 0 instructions: 12000000 cycles: 3835230 heartbeat IPC: 3 cumulative IPC: 3.12889 (Simulation time: 0 hr 6 min 43 sec) 
Heartbeat CPU 0 instructions: 13000000 cycles: 4159530 heartbeat IPC: 3.08356 cumulative IPC: 3.12535 (Simulation time: 0 hr 7 min 15 sec) 
Heartbeat CPU 0 instructions: 14000002 cycles: 4471102 heartbeat IPC: 3.20954 cumulative IPC: 3.13122 (Simulation time: 0 hr 7 min 46 sec) 
Heartbeat CPU 0 instructions: 15000000 cycles: 4782674 heartbeat IPC: 3.20952 cumulative IPC: 3.13632 (Simulation time: 0 hr 8 min 18 sec) 
Heartbeat CPU 0 instructions: 16000000 cycles: 5094247 heartbeat IPC: 3.20952 cumulative IPC: 3.1408 (Simulation time: 0 hr 8 min 44 sec) 
Heartbeat CPU 0 instructions: 17000000 cycles: 5405820 heartbeat IPC: 3.20952 cumulative IPC: 3.14476 (Simulation time: 0 hr 9 min 14 sec) 
Heartbeat CPU 0 instructions: 18000001 cycles: 5725379 heartbeat IPC: 3.12932 cumulative IPC: 3.1439 (Simulation time: 0 hr 9 min 43 sec) 
Heartbeat CPU 0 instructions: 19000000 cycles: 6058712 heartbeat IPC: 3 cumulative IPC: 3.13598 (Simulation time: 0 hr 10 min 6 sec) 
Heartbeat CPU 0 instructions: 20000000 cycles: 6392046 heartbeat IPC: 2.99999 cumulative IPC: 3.12889 (Simulation time: 0 hr 10 min 28 sec) 
Heartbeat CPU 0 instructions: 21000001 cycles: 6725379 heartbeat IPC: 3.00001 cumulative IPC: 3.1225 (Simulation time: 0 hr 10 min 49 sec) 
Heartbeat CPU 0 instructions: 22000000 cycles: 7058712 heartbeat IPC: 3 cumulative IPC: 3.11672 (Simulation time: 0 hr 11 min 14 sec) 
Heartbeat CPU 0 instructions: 23000001 cycles: 7377935 heartbeat IPC: 3.13261 cumulative IPC: 3.1174 (Simulation time: 0 hr 11 min 37 sec) 
Heartbeat CPU 0 instructions: 24000000 cycles: 7689508 heartbeat IPC: 3.20952 cumulative IPC: 3.12114 (Simulation time: 0 hr 12 min 0 sec) 
Heartbeat CPU 0 instructions: 25000002 cycles: 8001081 heartbeat IPC: 3.20953 cumulative IPC: 3.12458 (Simulation time: 0 hr 12 min 22 sec) 
Heartbeat CPU 0 instructions: 26000000 cycles: 8312653 heartbeat IPC: 3.20952 cumulative IPC: 3.12776 (Simulation time: 0 hr 12 min 47 sec) 
Heartbeat CPU 0 instructions: 27000003 cycles: 8624226 heartbeat IPC: 3.20953 cumulative IPC: 3.13072 (Simulation time: 0 hr 13 min 8 sec) 
Heartbeat CPU 0 instructions: 28000000 cycles: 8948866 heartbeat IPC: 3.08033 cumulative IPC: 3.12889 (Simulation time: 0 hr 13 min 31 sec) 
Heartbeat CPU 0 instructions: 29000000 cycles: 9282199 heartbeat IPC: 3 cumulative IPC: 3.12426 (Simulation time: 0 hr 13 min 55 sec) 
Heartbeat CPU 0 instructions: 30000001 cycles: 9615533 heartbeat IPC: 3 cumulative IPC: 3.11995 (Simulation time: 0 hr 14 min 17 sec) 
Heartbeat CPU 0 instructions: 31000000 cycles: 9948866 heartbeat IPC: 3 cumulative IPC: 3.11593 (Simulation time: 0 hr 14 min 41 sec) 
Heartbeat CPU 0 instructions: 32000000 cycles: 10282200 heartbeat IPC: 2.99999 cumulative IPC: 3.11217 (Simulation time: 0 hr 15 min 1 sec) 
Heartbeat CPU 0 instructions: 33000003 cycles: 10587669 heartbeat IPC: 3.27366 cumulative IPC: 3.11683 (Simulation time: 0 hr 15 min 22 sec) 
Heartbeat CPU 0 instructions: 34000002 cycles: 10889391 heartbeat IPC: 3.31431 cumulative IPC: 3.12231 (Simulation time: 0 hr 15 min 45 sec) 
Heartbeat CPU 0 instructions: 35000002 cycles: 11191114 heartbeat IPC: 3.3143 cumulative IPC: 3.12748 (Simulation time: 0 hr 16 min 8 sec) 
Heartbeat CPU 0 instructions: 36000000 cycles: 11492840 heartbeat IPC: 3.31426 cumulative IPC: 3.13239 (Simulation time: 0 hr 16 min 29 sec) 
Heartbeat CPU 0 instructions: 37000002 cycles: 11794564 heartbeat IPC: 3.31429 cumulative IPC: 3.13704 (Simulation time: 0 hr 16 min 51 sec) 
Heartbeat CPU 0 instructions: 38000003 cycles: 12117424 heartbeat IPC: 3.09732 cumulative IPC: 3.13598 (Simulation time: 0 hr 17 min 11 sec) 
Heartbeat CPU 0 instructions: 39000002 cycles: 12450757 heartbeat IPC: 3 cumulative IPC: 3.13234 (Simulation time: 0 hr 17 min 34 sec) 
Heartbeat CPU 0 instructions: 40000000 cycles: 12784090 heartbeat IPC: 3 cumulative IPC: 3.12889 (Simulation time: 0 hr 17 min 53 sec) 
Heartbeat CPU 0 instructions: 41000000 cycles: 13117423 heartbeat IPC: 3 cumulative IPC: 3.12561 (Simulation time: 0 hr 18 min 13 sec) 
Heartbeat CPU 0 instructions: 42000001 cycles: 13450757 heartbeat IPC: 3 cumulative IPC: 3.1225 (Simulation time: 0 hr 18 min 35 sec) 
Heartbeat CPU 0 instructions: 43000003 cycles: 13754059 heartbeat IPC: 3.29705 cumulative IPC: 3.12635 (Simulation time: 0 hr 18 min 59 sec) 
Heartbeat CPU 0 instructions: 44000000 cycles: 14055784 heartbeat IPC: 3.31427 cumulative IPC: 3.13038 (Simulation time: 0 hr 19 min 19 sec) 
Heartbeat CPU 0 instructions: 45000000 cycles: 14357508 heartbeat IPC: 3.31429 cumulative IPC: 3.13425 (Simulation time: 0 hr 19 min 41 sec) 
Heartbeat CPU 0 instructions: 46000002 cycles: 14659231 heartbeat IPC: 3.3143 cumulative IPC: 3.13795 (Simulation time: 0 hr 20 min 2 sec) 
Heartbeat CPU 0 instructions: 47000002 cycles: 14960955 heartbeat IPC: 3.31429 cumulative IPC: 3.14151 (Simulation time: 0 hr 20 min 24 sec) 
Heartbeat CPU 0 instructions: 48000000 cycles: 15285989 heartbeat IPC: 3.0766 cumulative IPC: 3.14013 (Simulation time: 0 hr 20 min 46 sec) 
Heartbeat CPU 0 instructions: 49000002 cycles: 15619323 heartbeat IPC: 3 cumulative IPC: 3.13714 (Simulation time: 0 hr 21 min 7 sec) 
Heartbeat CPU 0 instructions: 50000001 cycles: 15952656 heartbeat IPC: 3 cumulative IPC: 3.13427 (Simulation time: 0 hr 21 min 27 sec) 

Warmup complete CPU 0 instructions: 50000001 cycles: 15952656 (Simulation time: 0 hr 21 min 27 sec) 

Heartbeat CPU 0 instructions: 51000000 cycles: 17455142 heartbeat IPC: 0.665563 cumulative IPC: 0.665563 (Simulation time: 0 hr 22 min 1 sec) 
Heartbeat CPU 0 instructions: 52000000 cycles: 18992995 heartbeat IPC: 0.650257 cumulative IPC: 0.657821 (Simulation time: 0 hr 22 min 38 sec) 
Heartbeat CPU 0 instructions: 53000002 cycles: 20498849 heartbeat IPC: 0.664076 cumulative IPC: 0.659893 (Simulation time: 0 hr 23 min 19 sec) 
Heartbeat CPU 0 instructions: 54000001 cycles: 22019290 heartbeat IPC: 0.657703 cumulative IPC: 0.659344 (Simulation time: 0 hr 24 min 3 sec) 
Heartbeat CPU 0 instructions: 55000000 cycles: 23538942 heartbeat IPC: 0.658045 cumulative IPC: 0.659084 (Simulation time: 0 hr 24 min 49 sec) 
Heartbeat CPU 0 instructions: 56000000 cycles: 25058411 heartbeat IPC: 0.658125 cumulative IPC: 0.658924 (Simulation time: 0 hr 25 min 24 sec) 
Heartbeat CPU 0 instructions: 57000000 cycles: 26578004 heartbeat IPC: 0.658071 cumulative IPC: 0.658802 (Simulation time: 0 hr 26 min 2 sec) 
Heartbeat CPU 0 instructions: 58000002 cycles: 28097475 heartbeat IPC: 0.658125 cumulative IPC: 0.658717 (Simulation time: 0 hr 26 min 43 sec) 
Heartbeat CPU 0 instructions: 59000001 cycles: 29607730 heartbeat IPC: 0.662139 cumulative IPC: 0.659096 (Simulation time: 0 hr 27 min 24 sec) 
Heartbeat CPU 0 instructions: 60000000 cycles: 31064928 heartbeat IPC: 0.686248 cumulative IPC: 0.661714 (Simulation time: 0 hr 28 min 4 sec) 
Heartbeat CPU 0 instructions: 61000003 cycles: 32548843 heartbeat IPC: 0.673895 cumulative IPC: 0.662803 (Simulation time: 0 hr 28 min 41 sec) 
Heartbeat CPU 0 instructions: 62000002 cycles: 34056424 heartbeat IPC: 0.663314 cumulative IPC: 0.662845 (Simulation time: 0 hr 29 min 13 sec) 
Heartbeat CPU 0 instructions: 63000001 cycles: 35560132 heartbeat IPC: 0.665022 cumulative IPC: 0.663012 (Simulation time: 0 hr 29 min 46 sec) 
Heartbeat CPU 0 instructions: 64000000 cycles: 37087037 heartbeat IPC: 0.654919 cumulative IPC: 0.662428 (Simulation time: 0 hr 30 min 20 sec) 
Heartbeat CPU 0 instructions: 65000001 cycles: 38606525 heartbeat IPC: 0.658117 cumulative IPC: 0.662139 (Simulation time: 0 hr 30 min 57 sec) 
Heartbeat CPU 0 instructions: 66000000 cycles: 40126088 heartbeat IPC: 0.658083 cumulative IPC: 0.661884 (Simulation time: 0 hr 31 min 31 sec) 
Heartbeat CPU 0 instructions: 67000001 cycles: 41627290 heartbeat IPC: 0.666134 cumulative IPC: 0.662132 (Simulation time: 0 hr 32 min 5 sec) 
Heartbeat CPU 0 instructions: 68000000 cycles: 43105187 heartbeat IPC: 0.676636 cumulative IPC: 0.662922 (Simulation time: 0 hr 32 min 40 sec) 
Heartbeat CPU 0 instructions: 69000002 cycles: 44596424 heartbeat IPC: 0.670586 cumulative IPC: 0.663321 (Simulation time: 0 hr 33 min 14 sec) 
Heartbeat CPU 0 instructions: 70000001 cycles: 46062800 heartbeat IPC: 0.681953 cumulative IPC: 0.664228 (Simulation time: 0 hr 33 min 46 sec) 
Heartbeat CPU 0 instructions: 71000003 cycles: 47474347 heartbeat IPC: 0.708444 cumulative IPC: 0.666208 (Simulation time: 0 hr 34 min 18 sec) 
Heartbeat CPU 0 instructions: 72000000 cycles: 49579747 heartbeat IPC: 0.474968 cumulative IPC: 0.654234 (Simulation time: 0 hr 34 min 51 sec) 
Heartbeat CPU 0 instructions: 73000000 cycles: 51653435 heartbeat IPC: 0.482233 cumulative IPC: 0.644244 (Simulation time: 0 hr 35 min 20 sec) 
Heartbeat CPU 0 instructions: 74000000 cycles: 53941727 heartbeat IPC: 0.437007 cumulative IPC: 0.631761 (Simulation time: 0 hr 35 min 56 sec) 
Heartbeat CPU 0 instructions: 75000000 cycles: 56237007 heartbeat IPC: 0.435677 cumulative IPC: 0.620588 (Simulation time: 0 hr 36 min 29 sec) 
Heartbeat CPU 0 instructions: 76000000 cycles: 58547094 heartbeat IPC: 0.432884 cumulative IPC: 0.610408 (Simulation time: 0 hr 37 min 3 sec) 
Heartbeat CPU 0 instructions: 77000001 cycles: 60179807 heartbeat IPC: 0.612478 cumulative IPC: 0.610485 (Simulation time: 0 hr 37 min 43 sec) 
Heartbeat CPU 0 instructions: 78000000 cycles: 61681230 heartbeat IPC: 0.666034 cumulative IPC: 0.612309 (Simulation time: 0 hr 38 min 23 sec) 
Heartbeat CPU 0 instructions: 79000001 cycles: 63155145 heartbeat IPC: 0.678466 cumulative IPC: 0.614374 (Simulation time: 0 hr 39 min 0 sec) 
Heartbeat CPU 0 instructions: 80000000 cycles: 64601643 heartbeat IPC: 0.691324 cumulative IPC: 0.616662 (Simulation time: 0 hr 39 min 34 sec) 
Heartbeat CPU 0 instructions: 81000002 cycles: 66202130 heartbeat IPC: 0.624811 cumulative IPC: 0.616922 (Simulation time: 0 hr 40 min 6 sec) 
Heartbeat CPU 0 instructions: 82000003 cycles: 68449242 heartbeat IPC: 0.445016 cumulative IPC: 0.609563 (Simulation time: 0 hr 40 min 34 sec) 
Heartbeat CPU 0 instructions: 83000000 cycles: 70729140 heartbeat IPC: 0.438615 cumulative IPC: 0.602448 (Simulation time: 0 hr 41 min 2 sec) 
Heartbeat CPU 0 instructions: 84000000 cycles: 73012575 heartbeat IPC: 0.437937 cumulative IPC: 0.595865 (Simulation time: 0 hr 41 min 33 sec) 
Heartbeat CPU 0 instructions: 85000002 cycles: 75314446 heartbeat IPC: 0.43443 cumulative IPC: 0.589605 (Simulation time: 0 hr 42 min 2 sec) 
Heartbeat CPU 0 instructions: 86000002 cycles: 77615618 heartbeat IPC: 0.434561 cumulative IPC: 0.583819 (Simulation time: 0 hr 42 min 30 sec) 
Heartbeat CPU 0 instructions: 87000002 cycles: 79420147 heartbeat IPC: 0.554161 cumulative IPC: 0.582976 (Simulation time: 0 hr 43 min 10 sec) 
Heartbeat CPU 0 instructions: 88000000 cycles: 81009349 heartbeat IPC: 0.629245 cumulative IPC: 0.584106 (Simulation time: 0 hr 43 min 52 sec) 
Heartbeat CPU 0 instructions: 89000000 cycles: 82582291 heartbeat IPC: 0.635751 cumulative IPC: 0.585325 (Simulation time: 0 hr 44 min 34 sec) 
Heartbeat CPU 0 instructions: 90000000 cycles: 84516577 heartbeat IPC: 0.516987 cumulative IPC: 0.583397 (Simulation time: 0 hr 45 min 13 sec) 
Heartbeat CPU 0 instructions: 91000001 cycles: 86973870 heartbeat IPC: 0.406952 cumulative IPC: 0.577292 (Simulation time: 0 hr 45 min 49 sec) 
Heartbeat CPU 0 instructions: 92000000 cycles: 89923494 heartbeat IPC: 0.339026 cumulative IPC: 0.567791 (Simulation time: 0 hr 46 min 25 sec) 
Heartbeat CPU 0 instructions: 93000001 cycles: 92858971 heartbeat IPC: 0.34066 cumulative IPC: 0.559122 (Simulation time: 0 hr 47 min 1 sec) 
Heartbeat CPU 0 instructions: 94000001 cycles: 95574965 heartbeat IPC: 0.368189 cumulative IPC: 0.552609 (Simulation time: 0 hr 47 min 41 sec) 
Heartbeat CPU 0 instructions: 95000000 cycles: 97151651 heartbeat IPC: 0.634241 cumulative IPC: 0.554194 (Simulation time: 0 hr 48 min 19 sec) 
Heartbeat CPU 0 instructions: 96000000 cycles: 98723665 heartbeat IPC: 0.636127 cumulative IPC: 0.55575 (Simulation time: 0 hr 48 min 59 sec) 
Heartbeat CPU 0 instructions: 97000002 cycles: 100295317 heartbeat IPC: 0.636274 cumulative IPC: 0.557251 (Simulation time: 0 hr 49 min 37 sec) 
Heartbeat CPU 0 instructions: 98000001 cycles: 102482803 heartbeat IPC: 0.457145 cumulative IPC: 0.55472 (Simulation time: 0 hr 50 min 10 sec) 
Heartbeat CPU 0 instructions: 99000003 cycles: 105380011 heartbeat IPC: 0.345161 cumulative IPC: 0.547931 (Simulation time: 0 hr 50 min 47 sec) 
Heartbeat CPU 0 instructions: 100000000 cycles: 108265563 heartbeat IPC: 0.346553 cumulative IPC: 0.541636 (Simulation time: 0 hr 51 min 19 sec) 
Heartbeat CPU 0 instructions: 101000000 cycles: 111168219 heartbeat IPC: 0.344512 cumulative IPC: 0.535627 (Simulation time: 0 hr 51 min 58 sec) 
Heartbeat CPU 0 instructions: 102000000 cycles: 113261424 heartbeat IPC: 0.477736 cumulative IPC: 0.534381 (Simulation time: 0 hr 52 min 31 sec) 
Heartbeat CPU 0 instructions: 103000002 cycles: 114713411 heartbeat IPC: 0.688713 cumulative IPC: 0.53665 (Simulation time: 0 hr 53 min 11 sec) 
Heartbeat CPU 0 instructions: 104000000 cycles: 116182139 heartbeat IPC: 0.68086 cumulative IPC: 0.538764 (Simulation time: 0 hr 53 min 43 sec) 
Heartbeat CPU 0 instructions: 105000000 cycles: 117653066 heartbeat IPC: 0.679843 cumulative IPC: 0.540804 (Simulation time: 0 hr 54 min 19 sec) 
Heartbeat CPU 0 instructions: 106000003 cycles: 119125058 heartbeat IPC: 0.679354 cumulative IPC: 0.542781 (Simulation time: 0 hr 54 min 53 sec) 
Heartbeat CPU 0 instructions: 107000000 cycles: 121288749 heartbeat IPC: 0.462172 cumulative IPC: 0.541125 (Simulation time: 0 hr 55 min 30 sec) 
Heartbeat CPU 0 instructions: 108000000 cycles: 123612788 heartbeat IPC: 0.430285 cumulative IPC: 0.538732 (Simulation time: 0 hr 56 min 4 sec) 
Heartbeat CPU 0 instructions: 109000002 cycles: 126054817 heartbeat IPC: 0.409496 cumulative IPC: 0.535866 (Simulation time: 0 hr 56 min 32 sec) 
Heartbeat CPU 0 instructions: 110000002 cycles: 128637293 heartbeat IPC: 0.387225 cumulative IPC: 0.532459 (Simulation time: 0 hr 57 min 5 sec) 
Heartbeat CPU 0 instructions: 111000001 cycles: 131236252 heartbeat IPC: 0.384769 cumulative IPC: 0.52913 (Simulation time: 0 hr 57 min 37 sec) 
Heartbeat CPU 0 instructions: 112000000 cycles: 133177825 heartbeat IPC: 0.515046 cumulative IPC: 0.528897 (Simulation time: 0 hr 58 min 9 sec) 
Heartbeat CPU 0 instructions: 113000002 cycles: 134678652 heartbeat IPC: 0.666301 cumulative IPC: 0.530634 (Simulation time: 0 hr 58 min 47 sec) 
Heartbeat CPU 0 instructions: 114000001 cycles: 136178781 heartbeat IPC: 0.666609 cumulative IPC: 0.53233 (Simulation time: 0 hr 59 min 23 sec) 
Heartbeat CPU 0 instructions: 115000000 cycles: 137676836 heartbeat IPC: 0.667532 cumulative IPC: 0.533994 (Simulation time: 1 hr 0 min 8 sec) 
Heartbeat CPU 0 instructions: 116000000 cycles: 139176590 heartbeat IPC: 0.666776 cumulative IPC: 0.53561 (Simulation time: 1 hr 0 min 46 sec) 
Heartbeat CPU 0 instructions: 117000000 cycles: 141782539 heartbeat IPC: 0.383737 cumulative IPC: 0.532465 (Simulation time: 1 hr 1 min 15 sec) 
Heartbeat CPU 0 instructions: 118000001 cycles: 144553773 heartbeat IPC: 0.36085 cumulative IPC: 0.528767 (Simulation time: 1 hr 1 min 51 sec) 
Heartbeat CPU 0 instructions: 119000001 cycles: 147325392 heartbeat IPC: 0.3608 cumulative IPC: 0.525223 (Simulation time: 1 hr 2 min 22 sec) 
Heartbeat CPU 0 instructions: 120000000 cycles: 150101688 heartbeat IPC: 0.360192 cumulative IPC: 0.521808 (Simulation time: 1 hr 2 min 52 sec) 
Heartbeat CPU 0 instructions: 121000000 cycles: 152865017 heartbeat IPC: 0.361882 cumulative IPC: 0.51858 (Simulation time: 1 hr 3 min 20 sec) 
Heartbeat CPU 0 instructions: 122000000 cycles: 154307035 heartbeat IPC: 0.693473 cumulative IPC: 0.520403 (Simulation time: 1 hr 3 min 51 sec) 
Heartbeat CPU 0 instructions: 123000001 cycles: 155765247 heartbeat IPC: 0.685772 cumulative IPC: 0.522128 (Simulation time: 1 hr 4 min 28 sec) 
Heartbeat CPU 0 instructions: 124000000 cycles: 157229908 heartbeat IPC: 0.682751 cumulative IPC: 0.523793 (Simulation time: 1 hr 5 min 8 sec) 
Heartbeat CPU 0 instructions: 125000002 cycles: 158695992 heartbeat IPC: 0.682091 cumulative IPC: 0.525419 (Simulation time: 1 hr 5 min 46 sec) 
Heartbeat CPU 0 instructions: 126000001 cycles: 160238509 heartbeat IPC: 0.64829 cumulative IPC: 0.526732 (Simulation time: 1 hr 6 min 18 sec) 
Heartbeat CPU 0 instructions: 127000000 cycles: 162434959 heartbeat IPC: 0.45528 cumulative IPC: 0.525661 (Simulation time: 1 hr 6 min 48 sec) 
Heartbeat CPU 0 instructions: 128000000 cycles: 164492797 heartbeat IPC: 0.485947 cumulative IPC: 0.525111 (Simulation time: 1 hr 7 min 22 sec) 
Heartbeat CPU 0 instructions: 129000002 cycles: 166742482 heartbeat IPC: 0.444508 cumulative IPC: 0.523908 (Simulation time: 1 hr 7 min 54 sec) 
Heartbeat CPU 0 instructions: 130000003 cycles: 169041197 heartbeat IPC: 0.435026 cumulative IPC: 0.522573 (Simulation time: 1 hr 8 min 24 sec) 
Heartbeat CPU 0 instructions: 131000001 cycles: 171350223 heartbeat IPC: 0.433082 cumulative IPC: 0.521244 (Simulation time: 1 hr 8 min 55 sec) 
Heartbeat CPU 0 instructions: 132000000 cycles: 172927296 heartbeat IPC: 0.634085 cumulative IPC: 0.522377 (Simulation time: 1 hr 9 min 29 sec) 
Heartbeat CPU 0 instructions: 133000001 cycles: 174389070 heartbeat IPC: 0.684101 cumulative IPC: 0.523869 (Simulation time: 1 hr 10 min 8 sec) 
Heartbeat CPU 0 instructions: 134000000 cycles: 175851768 heartbeat IPC: 0.683667 cumulative IPC: 0.525331 (Simulation time: 1 hr 10 min 40 sec) 
Heartbeat CPU 0 instructions: 135000001 cycles: 177315095 heartbeat IPC: 0.683375 cumulative IPC: 0.526764 (Simulation time: 1 hr 11 min 15 sec) 
Heartbeat CPU 0 instructions: 136000000 cycles: 178899081 heartbeat IPC: 0.631318 cumulative IPC: 0.527781 (Simulation time: 1 hr 11 min 45 sec) 
Heartbeat CPU 0 instructions: 137000001 cycles: 181181006 heartbeat IPC: 0.438227 cumulative IPC: 0.526544 (Simulation time: 1 hr 12 min 13 sec) 
Heartbeat CPU 0 instructions: 138000001 cycles: 183490102 heartbeat IPC: 0.43307 cumulative IPC: 0.525256 (Simulation time: 1 hr 12 min 42 sec) 
Heartbeat CPU 0 instructions: 139000000 cycles: 185787772 heartbeat IPC: 0.435223 cumulative IPC: 0.524038 (Simulation time: 1 hr 13 min 10 sec) 
Heartbeat CPU 0 instructions: 140000000 cycles: 188100229 heartbeat IPC: 0.43244 cumulative IPC: 0.522807 (Simulation time: 1 hr 13 min 44 sec) 
Heartbeat CPU 0 instructions: 141000000 cycles: 190372630 heartbeat IPC: 0.440063 cumulative IPC: 0.521729 (Simulation time: 1 hr 14 min 20 sec) 
Heartbeat CPU 0 instructions: 142000002 cycles: 191676712 heartbeat IPC: 0.766824 cumulative IPC: 0.523548 (Simulation time: 1 hr 14 min 57 sec) 
Heartbeat CPU 0 instructions: 143000001 cycles: 193091547 heartbeat IPC: 0.706796 cumulative IPC: 0.525012 (Simulation time: 1 hr 15 min 36 sec) 
Heartbeat CPU 0 instructions: 144000000 cycles: 194519510 heartbeat IPC: 0.700298 cumulative IPC: 0.526414 (Simulation time: 1 hr 16 min 9 sec) 
Heartbeat CPU 0 instructions: 145000003 cycles: 195947859 heartbeat IPC: 0.700111 cumulative IPC: 0.527792 (Simulation time: 1 hr 16 min 41 sec) 
Heartbeat CPU 0 instructions: 146000002 cycles: 197376620 heartbeat IPC: 0.699906 cumulative IPC: 0.529147 (Simulation time: 1 hr 17 min 13 sec) 
Heartbeat CPU 0 instructions: 147000001 cycles: 198749686 heartbeat IPC: 0.728296 cumulative IPC: 0.530643 (Simulation time: 1 hr 17 min 44 sec) 
Heartbeat CPU 0 instructions: 148000000 cycles: 200172944 heartbeat IPC: 0.702613 cumulative IPC: 0.531972 (Simulation time: 1 hr 18 min 17 sec) 
Heartbeat CPU 0 instructions: 149000001 cycles: 201601292 heartbeat IPC: 0.70011 cumulative IPC: 0.533265 (Simulation time: 1 hr 18 min 55 sec) 
Heartbeat CPU 0 instructions: 150000000 cycles: 203029715 heartbeat IPC: 0.700072 cumulative IPC: 0.534539 (Simulation time: 1 hr 19 min 29 sec) 
Finished CPU 0 instructions: 100000002 cycles: 187077060 cummulative IPC: 0.534539 (Simulation time: 1 hr 19 min 29 sec) 

ChampSim completed all CPUs

Region of Interest Statistics

CPU 0 cummulative IPC: 0.534539 instructions: 100000002 cycles: 187077060
LLC TOTAL     ACCESS:    3739906  HIT:     218358  MISS:    3521548
LLC LOAD      ACCESS:     679118  HIT:      32811  MISS:     646307
LLC RFO       ACCESS:         20  HIT:         18  MISS:          2
LLC PREFETCH  ACCESS:    2117021  HIT:     104710  MISS:    2012311
LLC WRITEBACK ACCESS:     943747  HIT:      80819  MISS:     862928
OPTgen accesses: 11272
OPTgen hits: 157
OPTgen hit rate: 1.39283


