
*** ChampSim Multicore Out-of-Order Simulator ***

Warmup Instructions: 50000000
Simulation Instructions: 100000000
Configuration: 2
Number of CPUs: 1
LLC sets: 2048
LLC ways: 16
Off-chip DRAM Channels: 1 Width: 64-bit Data Rate: 1600 MT/s

CPU 0 runs /datasets/cs240c-wi22-a00-public/data/Assignment2-gz/libquantum_964B.trace.gz
CPU 0 L1D next line prefetcher
CPU 0 L2C IP-based stride prefetcher
Initialize Hawkeye state
Heartbeat CPU 0 instructions: 1000002 cycles: 333341 heartbeat IPC: 2.99994 cumulative IPC: 2.99994 (Simulation time: 0 hr 0 min 29 sec) 
Heartbeat CPU 0 instructions: 2000001 cycles: 666674 heartbeat IPC: 3 cumulative IPC: 2.99997 (Simulation time: 0 hr 0 min 59 sec) 
Heartbeat CPU 0 instructions: 3000000 cycles: 1000007 heartbeat IPC: 3 cumulative IPC: 2.99998 (Simulation time: 0 hr 1 min 28 sec) 
Heartbeat CPU 0 instructions: 4000000 cycles: 1333341 heartbeat IPC: 2.99999 cumulative IPC: 2.99998 (Simulation time: 0 hr 1 min 58 sec) 
Heartbeat CPU 0 instructions: 5000000 cycles: 1666674 heartbeat IPC: 3 cumulative IPC: 2.99999 (Simulation time: 0 hr 2 min 25 sec) 
Heartbeat CPU 0 instructions: 6000002 cycles: 2000008 heartbeat IPC: 3 cumulative IPC: 2.99999 (Simulation time: 0 hr 2 min 57 sec) 
Heartbeat CPU 0 instructions: 7000001 cycles: 2331518 heartbeat IPC: 3.0165 cumulative IPC: 3.00234 (Simulation time: 0 hr 3 min 27 sec) 
Heartbeat CPU 0 instructions: 8000000 cycles: 2662240 heartbeat IPC: 3.02368 cumulative IPC: 3.00499 (Simulation time: 0 hr 4 min 2 sec) 
Heartbeat CPU 0 instructions: 9000001 cycles: 2992962 heartbeat IPC: 3.02369 cumulative IPC: 3.00705 (Simulation time: 0 hr 4 min 34 sec) 
Heartbeat CPU 0 instructions: 10000001 cycles: 3323684 heartbeat IPC: 3.02369 cumulative IPC: 3.00871 (Simulation time: 0 hr 5 min 9 sec) 
Heartbeat CPU 0 instructions: 11000000 cycles: 3654406 heartbeat IPC: 3.02368 cumulative IPC: 3.01007 (Simulation time: 0 hr 5 min 43 sec) 
Heartbeat CPU 0 instructions: 12000000 cycles: 3985113 heartbeat IPC: 3.02382 cumulative IPC: 3.01121 (Simulation time: 0 hr 6 min 18 sec) 
Heartbeat CPU 0 instructions: 13000001 cycles: 4315818 heartbeat IPC: 3.02385 cumulative IPC: 3.01218 (Simulation time: 0 hr 6 min 50 sec) 
Heartbeat CPU 0 instructions: 14000000 cycles: 4646523 heartbeat IPC: 3.02384 cumulative IPC: 3.01301 (Simulation time: 0 hr 7 min 25 sec) 
Heartbeat CPU 0 instructions: 15000003 cycles: 4977229 heartbeat IPC: 3.02384 cumulative IPC: 3.01373 (Simulation time: 0 hr 7 min 57 sec) 
Heartbeat CPU 0 instructions: 16000000 cycles: 5307934 heartbeat IPC: 3.02383 cumulative IPC: 3.01436 (Simulation time: 0 hr 8 min 28 sec) 
Heartbeat CPU 0 instructions: 17000000 cycles: 5638642 heartbeat IPC: 3.02382 cumulative IPC: 3.01491 (Simulation time: 0 hr 9 min 9 sec) 
Heartbeat CPU 0 instructions: 18000003 cycles: 5969365 heartbeat IPC: 3.02369 cumulative IPC: 3.0154 (Simulation time: 0 hr 9 min 37 sec) 
Heartbeat CPU 0 instructions: 19000002 cycles: 6300087 heartbeat IPC: 3.02368 cumulative IPC: 3.01583 (Simulation time: 0 hr 10 min 6 sec) 
Heartbeat CPU 0 instructions: 20000000 cycles: 6630808 heartbeat IPC: 3.02369 cumulative IPC: 3.01622 (Simulation time: 0 hr 10 min 39 sec) 
Heartbeat CPU 0 instructions: 21000003 cycles: 6961531 heartbeat IPC: 3.02369 cumulative IPC: 3.01658 (Simulation time: 0 hr 11 min 13 sec) 
Heartbeat CPU 0 instructions: 22000002 cycles: 7292253 heartbeat IPC: 3.02368 cumulative IPC: 3.0169 (Simulation time: 0 hr 11 min 49 sec) 
Heartbeat CPU 0 instructions: 23000000 cycles: 7622968 heartbeat IPC: 3.02375 cumulative IPC: 3.0172 (Simulation time: 0 hr 12 min 21 sec) 
Heartbeat CPU 0 instructions: 24000000 cycles: 7953674 heartbeat IPC: 3.02383 cumulative IPC: 3.01747 (Simulation time: 0 hr 12 min 53 sec) 
Heartbeat CPU 0 instructions: 25000000 cycles: 8284379 heartbeat IPC: 3.02384 cumulative IPC: 3.01773 (Simulation time: 0 hr 13 min 28 sec) 
Heartbeat CPU 0 instructions: 26000002 cycles: 8675744 heartbeat IPC: 2.55516 cumulative IPC: 2.99686 (Simulation time: 0 hr 14 min 12 sec) 
Heartbeat CPU 0 instructions: 27000000 cycles: 9096050 heartbeat IPC: 2.37921 cumulative IPC: 2.96832 (Simulation time: 0 hr 15 min 7 sec) 
Heartbeat CPU 0 instructions: 28000000 cycles: 9516352 heartbeat IPC: 2.37924 cumulative IPC: 2.9423 (Simulation time: 0 hr 16 min 1 sec) 
Heartbeat CPU 0 instructions: 29000002 cycles: 9936683 heartbeat IPC: 2.37908 cumulative IPC: 2.91848 (Simulation time: 0 hr 16 min 55 sec) 
Heartbeat CPU 0 instructions: 30000002 cycles: 10356994 heartbeat IPC: 2.37919 cumulative IPC: 2.89659 (Simulation time: 0 hr 17 min 54 sec) 
Heartbeat CPU 0 instructions: 31000000 cycles: 10777300 heartbeat IPC: 2.37921 cumulative IPC: 2.87642 (Simulation time: 0 hr 18 min 50 sec) 
Heartbeat CPU 0 instructions: 32000000 cycles: 11197602 heartbeat IPC: 2.37924 cumulative IPC: 2.85775 (Simulation time: 0 hr 19 min 44 sec) 
Heartbeat CPU 0 instructions: 33000002 cycles: 11617933 heartbeat IPC: 2.37908 cumulative IPC: 2.84044 (Simulation time: 0 hr 20 min 38 sec) 
Heartbeat CPU 0 instructions: 34000002 cycles: 12038244 heartbeat IPC: 2.37919 cumulative IPC: 2.82433 (Simulation time: 0 hr 21 min 31 sec) 
Heartbeat CPU 0 instructions: 35000000 cycles: 12458550 heartbeat IPC: 2.37921 cumulative IPC: 2.80932 (Simulation time: 0 hr 22 min 22 sec) 
Heartbeat CPU 0 instructions: 36000000 cycles: 12862260 heartbeat IPC: 2.47703 cumulative IPC: 2.79889 (Simulation time: 0 hr 23 min 15 sec) 
Heartbeat CPU 0 instructions: 37000001 cycles: 13195593 heartbeat IPC: 3.00001 cumulative IPC: 2.80397 (Simulation time: 0 hr 23 min 49 sec) 
Heartbeat CPU 0 instructions: 38000000 cycles: 13528926 heartbeat IPC: 3 cumulative IPC: 2.8088 (Simulation time: 0 hr 24 min 23 sec) 
Heartbeat CPU 0 instructions: 39000003 cycles: 13862260 heartbeat IPC: 3 cumulative IPC: 2.81339 (Simulation time: 0 hr 24 min 57 sec) 
Heartbeat CPU 0 instructions: 40000000 cycles: 14195593 heartbeat IPC: 2.99999 cumulative IPC: 2.81778 (Simulation time: 0 hr 25 min 32 sec) 
Heartbeat CPU 0 instructions: 41000001 cycles: 14528926 heartbeat IPC: 3.00001 cumulative IPC: 2.82196 (Simulation time: 0 hr 26 min 7 sec) 
Heartbeat CPU 0 instructions: 42000000 cycles: 14862259 heartbeat IPC: 3 cumulative IPC: 2.82595 (Simulation time: 0 hr 26 min 42 sec) 
Heartbeat CPU 0 instructions: 43000001 cycles: 15195593 heartbeat IPC: 3 cumulative IPC: 2.82977 (Simulation time: 0 hr 27 min 12 sec) 
Heartbeat CPU 0 instructions: 44000000 cycles: 15528926 heartbeat IPC: 3 cumulative IPC: 2.83342 (Simulation time: 0 hr 27 min 43 sec) 
Heartbeat CPU 0 instructions: 45000002 cycles: 15862260 heartbeat IPC: 3 cumulative IPC: 2.83692 (Simulation time: 0 hr 28 min 16 sec) 
Heartbeat CPU 0 instructions: 46000001 cycles: 16195593 heartbeat IPC: 3 cumulative IPC: 2.84028 (Simulation time: 0 hr 28 min 48 sec) 
Heartbeat CPU 0 instructions: 47000000 cycles: 16528926 heartbeat IPC: 3 cumulative IPC: 2.8435 (Simulation time: 0 hr 29 min 20 sec) 
Heartbeat CPU 0 instructions: 48000000 cycles: 16862260 heartbeat IPC: 2.99999 cumulative IPC: 2.84659 (Simulation time: 0 hr 29 min 51 sec) 
Heartbeat CPU 0 instructions: 49000003 cycles: 17195596 heartbeat IPC: 2.99998 cumulative IPC: 2.84957 (Simulation time: 0 hr 30 min 23 sec) 
Heartbeat CPU 0 instructions: 50000001 cycles: 17528926 heartbeat IPC: 3.00002 cumulative IPC: 2.85243 (Simulation time: 0 hr 30 min 56 sec) 

Warmup complete CPU 0 instructions: 50000001 cycles: 17528926 (Simulation time: 0 hr 30 min 56 sec) 

Heartbeat CPU 0 instructions: 51000000 cycles: 18995168 heartbeat IPC: 0.682015 cumulative IPC: 0.682015 (Simulation time: 0 hr 31 min 57 sec) 
Heartbeat CPU 0 instructions: 52000000 cycles: 20461433 heartbeat IPC: 0.682005 cumulative IPC: 0.68201 (Simulation time: 0 hr 33 min 1 sec) 
Heartbeat CPU 0 instructions: 53000000 cycles: 21924533 heartbeat IPC: 0.68348 cumulative IPC: 0.682499 (Simulation time: 0 hr 33 min 57 sec) 
Heartbeat CPU 0 instructions: 54000002 cycles: 23154666 heartbeat IPC: 0.812922 cumulative IPC: 0.711018 (Simulation time: 0 hr 35 min 1 sec) 
Heartbeat CPU 0 instructions: 55000002 cycles: 24329442 heartbeat IPC: 0.851226 cumulative IPC: 0.735238 (Simulation time: 0 hr 35 min 57 sec) 
Heartbeat CPU 0 instructions: 56000000 cycles: 26073095 heartbeat IPC: 0.573507 cumulative IPC: 0.702233 (Simulation time: 0 hr 36 min 54 sec) 
Heartbeat CPU 0 instructions: 57000001 cycles: 27831098 heartbeat IPC: 0.568828 cumulative IPC: 0.679468 (Simulation time: 0 hr 37 min 48 sec) 
Heartbeat CPU 0 instructions: 58000000 cycles: 29891670 heartbeat IPC: 0.485302 cumulative IPC: 0.647105 (Simulation time: 0 hr 38 min 49 sec) 
Heartbeat CPU 0 instructions: 59000003 cycles: 31699090 heartbeat IPC: 0.553276 cumulative IPC: 0.635137 (Simulation time: 0 hr 39 min 44 sec) 
Heartbeat CPU 0 instructions: 60000000 cycles: 33480870 heartbeat IPC: 0.561235 cumulative IPC: 0.626883 (Simulation time: 0 hr 40 min 37 sec) 
Heartbeat CPU 0 instructions: 61000002 cycles: 35230817 heartbeat IPC: 0.571447 cumulative IPC: 0.621403 (Simulation time: 0 hr 41 min 31 sec) 
Heartbeat CPU 0 instructions: 62000001 cycles: 36983926 heartbeat IPC: 0.570415 cumulative IPC: 0.616808 (Simulation time: 0 hr 42 min 25 sec) 
Heartbeat CPU 0 instructions: 63000001 cycles: 38746479 heartbeat IPC: 0.567359 cumulative IPC: 0.6127 (Simulation time: 0 hr 43 min 15 sec) 
Heartbeat CPU 0 instructions: 64000000 cycles: 40496764 heartbeat IPC: 0.571335 cumulative IPC: 0.609548 (Simulation time: 0 hr 44 min 4 sec) 
Heartbeat CPU 0 instructions: 65000002 cycles: 42256492 heartbeat IPC: 0.568271 cumulative IPC: 0.60661 (Simulation time: 0 hr 44 min 59 sec) 
Heartbeat CPU 0 instructions: 66000002 cycles: 44003847 heartbeat IPC: 0.572294 cumulative IPC: 0.604346 (Simulation time: 0 hr 45 min 49 sec) 
Heartbeat CPU 0 instructions: 67000000 cycles: 45758655 heartbeat IPC: 0.569862 cumulative IPC: 0.602202 (Simulation time: 0 hr 46 min 42 sec) 
Heartbeat CPU 0 instructions: 68000000 cycles: 47506085 heartbeat IPC: 0.572269 cumulative IPC: 0.600457 (Simulation time: 0 hr 47 min 37 sec) 
Heartbeat CPU 0 instructions: 69000000 cycles: 49256898 heartbeat IPC: 0.571163 cumulative IPC: 0.598841 (Simulation time: 0 hr 48 min 35 sec) 
Heartbeat CPU 0 instructions: 70000002 cycles: 51004522 heartbeat IPC: 0.572207 cumulative IPC: 0.59745 (Simulation time: 0 hr 49 min 24 sec) 
Heartbeat CPU 0 instructions: 71000001 cycles: 52756679 heartbeat IPC: 0.570725 cumulative IPC: 0.596121 (Simulation time: 0 hr 50 min 20 sec) 
Heartbeat CPU 0 instructions: 72000000 cycles: 54505581 heartbeat IPC: 0.571787 cumulative IPC: 0.59497 (Simulation time: 0 hr 51 min 14 sec) 
Heartbeat CPU 0 instructions: 73000000 cycles: 56209612 heartbeat IPC: 0.586844 cumulative IPC: 0.594612 (Simulation time: 0 hr 52 min 10 sec) 
Heartbeat CPU 0 instructions: 74000000 cycles: 58014258 heartbeat IPC: 0.554125 cumulative IPC: 0.592807 (Simulation time: 0 hr 53 min 12 sec) 
Heartbeat CPU 0 instructions: 75000000 cycles: 60435653 heartbeat IPC: 0.412985 cumulative IPC: 0.582659 (Simulation time: 0 hr 54 min 17 sec) 
Heartbeat CPU 0 instructions: 76000000 cycles: 62925854 heartbeat IPC: 0.401574 cumulative IPC: 0.572726 (Simulation time: 0 hr 55 min 33 sec) 
Heartbeat CPU 0 instructions: 77000000 cycles: 65529247 heartbeat IPC: 0.384114 cumulative IPC: 0.562496 (Simulation time: 0 hr 56 min 47 sec) 
Heartbeat CPU 0 instructions: 78000000 cycles: 68172178 heartbeat IPC: 0.378368 cumulative IPC: 0.552887 (Simulation time: 0 hr 58 min 5 sec) 
Heartbeat CPU 0 instructions: 79000000 cycles: 70824349 heartbeat IPC: 0.37705 cumulative IPC: 0.544137 (Simulation time: 0 hr 59 min 20 sec) 
Heartbeat CPU 0 instructions: 80000000 cycles: 73477093 heartbeat IPC: 0.376968 cumulative IPC: 0.536211 (Simulation time: 1 hr 0 min 38 sec) 
Heartbeat CPU 0 instructions: 81000000 cycles: 76101831 heartbeat IPC: 0.38099 cumulative IPC: 0.529255 (Simulation time: 1 hr 1 min 52 sec) 
Heartbeat CPU 0 instructions: 82000000 cycles: 78718071 heartbeat IPC: 0.382228 cumulative IPC: 0.522969 (Simulation time: 1 hr 3 min 8 sec) 
Heartbeat CPU 0 instructions: 83000000 cycles: 81357919 heartbeat IPC: 0.37881 cumulative IPC: 0.517006 (Simulation time: 1 hr 4 min 13 sec) 
Heartbeat CPU 0 instructions: 84000000 cycles: 83983631 heartbeat IPC: 0.380849 cumulative IPC: 0.511627 (Simulation time: 1 hr 5 min 22 sec) 
Heartbeat CPU 0 instructions: 85000001 cycles: 85745844 heartbeat IPC: 0.567469 cumulative IPC: 0.513069 (Simulation time: 1 hr 6 min 30 sec) 
Heartbeat CPU 0 instructions: 86000000 cycles: 87255714 heartbeat IPC: 0.662308 cumulative IPC: 0.516301 (Simulation time: 1 hr 7 min 27 sec) 
Heartbeat CPU 0 instructions: 87000003 cycles: 88763874 heartbeat IPC: 0.663062 cumulative IPC: 0.519408 (Simulation time: 1 hr 8 min 32 sec) 
Heartbeat CPU 0 instructions: 88000000 cycles: 90272158 heartbeat IPC: 0.663003 cumulative IPC: 0.522385 (Simulation time: 1 hr 9 min 36 sec) 
Heartbeat CPU 0 instructions: 89000001 cycles: 91780914 heartbeat IPC: 0.662798 cumulative IPC: 0.525238 (Simulation time: 1 hr 10 min 38 sec) 
Heartbeat CPU 0 instructions: 90000000 cycles: 93291413 heartbeat IPC: 0.662032 cumulative IPC: 0.527966 (Simulation time: 1 hr 11 min 42 sec) 
Heartbeat CPU 0 instructions: 91000001 cycles: 94801188 heartbeat IPC: 0.662351 cumulative IPC: 0.530591 (Simulation time: 1 hr 12 min 43 sec) 
Heartbeat CPU 0 instructions: 92000000 cycles: 96309816 heartbeat IPC: 0.662853 cumulative IPC: 0.533124 (Simulation time: 1 hr 13 min 43 sec) 
Heartbeat CPU 0 instructions: 93000002 cycles: 97819961 heartbeat IPC: 0.662189 cumulative IPC: 0.535552 (Simulation time: 1 hr 14 min 39 sec) 
Heartbeat CPU 0 instructions: 94000001 cycles: 99329634 heartbeat IPC: 0.662394 cumulative IPC: 0.537893 (Simulation time: 1 hr 15 min 40 sec) 
Heartbeat CPU 0 instructions: 95000000 cycles: 100839643 heartbeat IPC: 0.662247 cumulative IPC: 0.540147 (Simulation time: 1 hr 16 min 35 sec) 
Heartbeat CPU 0 instructions: 96000000 cycles: 102349933 heartbeat IPC: 0.662125 cumulative IPC: 0.542318 (Simulation time: 1 hr 17 min 32 sec) 
Heartbeat CPU 0 instructions: 97000002 cycles: 103857615 heartbeat IPC: 0.663271 cumulative IPC: 0.544431 (Simulation time: 1 hr 18 min 29 sec) 
Heartbeat CPU 0 instructions: 98000001 cycles: 105345543 heartbeat IPC: 0.672075 cumulative IPC: 0.546594 (Simulation time: 1 hr 19 min 24 sec) 
Heartbeat CPU 0 instructions: 99000000 cycles: 106855741 heartbeat IPC: 0.662164 cumulative IPC: 0.548548 (Simulation time: 1 hr 20 min 22 sec) 
Heartbeat CPU 0 instructions: 100000000 cycles: 108365606 heartbeat IPC: 0.662311 cumulative IPC: 0.550438 (Simulation time: 1 hr 21 min 18 sec) 
Heartbeat CPU 0 instructions: 101000000 cycles: 109875398 heartbeat IPC: 0.662343 cumulative IPC: 0.552268 (Simulation time: 1 hr 22 min 13 sec) 
Heartbeat CPU 0 instructions: 102000002 cycles: 111351714 heartbeat IPC: 0.677363 cumulative IPC: 0.554236 (Simulation time: 1 hr 22 min 55 sec) 
Heartbeat CPU 0 instructions: 103000001 cycles: 112682988 heartbeat IPC: 0.751159 cumulative IPC: 0.556991 (Simulation time: 1 hr 23 min 39 sec) 
Heartbeat CPU 0 instructions: 104000000 cycles: 115122188 heartbeat IPC: 0.40997 cumulative IPC: 0.553317 (Simulation time: 1 hr 24 min 34 sec) 
Heartbeat CPU 0 instructions: 105000000 cycles: 117681587 heartbeat IPC: 0.390717 cumulative IPC: 0.549162 (Simulation time: 1 hr 25 min 23 sec) 
Heartbeat CPU 0 instructions: 106000000 cycles: 120097423 heartbeat IPC: 0.413935 cumulative IPC: 0.545977 (Simulation time: 1 hr 26 min 13 sec) 
Heartbeat CPU 0 instructions: 107000000 cycles: 122454547 heartbeat IPC: 0.424246 cumulative IPC: 0.543242 (Simulation time: 1 hr 26 min 54 sec) 
Heartbeat CPU 0 instructions: 108000000 cycles: 124820710 heartbeat IPC: 0.422625 cumulative IPC: 0.540582 (Simulation time: 1 hr 27 min 38 sec) 
Heartbeat CPU 0 instructions: 109000000 cycles: 127170811 heartbeat IPC: 0.425514 cumulative IPC: 0.538116 (Simulation time: 1 hr 28 min 21 sec) 
Heartbeat CPU 0 instructions: 110000000 cycles: 129509489 heartbeat IPC: 0.427592 cumulative IPC: 0.535807 (Simulation time: 1 hr 28 min 59 sec) 
Heartbeat CPU 0 instructions: 111000000 cycles: 131865348 heartbeat IPC: 0.424474 cumulative IPC: 0.533513 (Simulation time: 1 hr 29 min 41 sec) 
Heartbeat CPU 0 instructions: 112000000 cycles: 134225816 heartbeat IPC: 0.423645 cumulative IPC: 0.531291 (Simulation time: 1 hr 30 min 25 sec) 
Heartbeat CPU 0 instructions: 113000000 cycles: 136573389 heartbeat IPC: 0.425972 cumulative IPC: 0.529214 (Simulation time: 1 hr 31 min 5 sec) 
Heartbeat CPU 0 instructions: 114000002 cycles: 138644468 heartbeat IPC: 0.482841 cumulative IPC: 0.528421 (Simulation time: 1 hr 31 min 33 sec) 
Heartbeat CPU 0 instructions: 115000001 cycles: 140394834 heartbeat IPC: 0.571308 cumulative IPC: 0.529032 (Simulation time: 1 hr 32 min 1 sec) 
Heartbeat CPU 0 instructions: 116000000 cycles: 142137059 heartbeat IPC: 0.573978 cumulative IPC: 0.52966 (Simulation time: 1 hr 32 min 29 sec) 
Heartbeat CPU 0 instructions: 117000002 cycles: 143791600 heartbeat IPC: 0.604398 cumulative IPC: 0.53064 (Simulation time: 1 hr 32 min 53 sec) 
Heartbeat CPU 0 instructions: 118000002 cycles: 145399090 heartbeat IPC: 0.622088 cumulative IPC: 0.531789 (Simulation time: 1 hr 33 min 16 sec) 
Heartbeat CPU 0 instructions: 119000002 cycles: 147150065 heartbeat IPC: 0.57111 cumulative IPC: 0.532321 (Simulation time: 1 hr 33 min 36 sec) 
Heartbeat CPU 0 instructions: 120000000 cycles: 148902757 heartbeat IPC: 0.57055 cumulative IPC: 0.532831 (Simulation time: 1 hr 34 min 0 sec) 
Heartbeat CPU 0 instructions: 121000000 cycles: 150655065 heartbeat IPC: 0.570676 cumulative IPC: 0.533329 (Simulation time: 1 hr 34 min 25 sec) 
Heartbeat CPU 0 instructions: 122000001 cycles: 152403358 heartbeat IPC: 0.571987 cumulative IPC: 0.53383 (Simulation time: 1 hr 34 min 49 sec) 
Heartbeat CPU 0 instructions: 123000000 cycles: 154149637 heartbeat IPC: 0.572646 cumulative IPC: 0.534326 (Simulation time: 1 hr 35 min 9 sec) 
Heartbeat CPU 0 instructions: 124000000 cycles: 155903997 heartbeat IPC: 0.570008 cumulative IPC: 0.534778 (Simulation time: 1 hr 35 min 27 sec) 
Heartbeat CPU 0 instructions: 125000001 cycles: 157650791 heartbeat IPC: 0.572478 cumulative IPC: 0.535248 (Simulation time: 1 hr 35 min 47 sec) 
Heartbeat CPU 0 instructions: 126000000 cycles: 159401918 heartbeat IPC: 0.57106 cumulative IPC: 0.53569 (Simulation time: 1 hr 36 min 5 sec) 
Heartbeat CPU 0 instructions: 127000003 cycles: 161147064 heartbeat IPC: 0.57302 cumulative IPC: 0.536144 (Simulation time: 1 hr 36 min 24 sec) 
Heartbeat CPU 0 instructions: 128000000 cycles: 162892200 heartbeat IPC: 0.57302 cumulative IPC: 0.536587 (Simulation time: 1 hr 36 min 44 sec) 
Heartbeat CPU 0 instructions: 129000000 cycles: 164641869 heartbeat IPC: 0.571537 cumulative IPC: 0.537002 (Simulation time: 1 hr 37 min 3 sec) 
Heartbeat CPU 0 instructions: 130000001 cycles: 166387346 heartbeat IPC: 0.57291 cumulative IPC: 0.537423 (Simulation time: 1 hr 37 min 19 sec) 
Heartbeat CPU 0 instructions: 131000000 cycles: 168138841 heartbeat IPC: 0.57094 cumulative IPC: 0.537813 (Simulation time: 1 hr 37 min 32 sec) 
Heartbeat CPU 0 instructions: 132000000 cycles: 169872119 heartbeat IPC: 0.576941 cumulative IPC: 0.538258 (Simulation time: 1 hr 37 min 44 sec) 
Heartbeat CPU 0 instructions: 133000000 cycles: 171783061 heartbeat IPC: 0.523302 cumulative IPC: 0.538073 (Simulation time: 1 hr 37 min 58 sec) 
Heartbeat CPU 0 instructions: 134000000 cycles: 174086587 heartbeat IPC: 0.434117 cumulative IPC: 0.536544 (Simulation time: 1 hr 38 min 14 sec) 
Heartbeat CPU 0 instructions: 135000000 cycles: 176132736 heartbeat IPC: 0.488723 cumulative IPC: 0.535927 (Simulation time: 1 hr 38 min 30 sec) 
Heartbeat CPU 0 instructions: 136000000 cycles: 178448131 heartbeat IPC: 0.431892 cumulative IPC: 0.53443 (Simulation time: 1 hr 38 min 44 sec) 
Heartbeat CPU 0 instructions: 137000000 cycles: 180775041 heartbeat IPC: 0.429754 cumulative IPC: 0.532938 (Simulation time: 1 hr 38 min 57 sec) 
Heartbeat CPU 0 instructions: 138000000 cycles: 183095629 heartbeat IPC: 0.430925 cumulative IPC: 0.531508 (Simulation time: 1 hr 39 min 10 sec) 
Heartbeat CPU 0 instructions: 139000000 cycles: 185417058 heartbeat IPC: 0.430769 cumulative IPC: 0.530115 (Simulation time: 1 hr 39 min 21 sec) 
Heartbeat CPU 0 instructions: 140000000 cycles: 187726557 heartbeat IPC: 0.432994 cumulative IPC: 0.528797 (Simulation time: 1 hr 39 min 32 sec) 
Heartbeat CPU 0 instructions: 141000000 cycles: 190045580 heartbeat IPC: 0.431216 cumulative IPC: 0.527485 (Simulation time: 1 hr 39 min 43 sec) 
Heartbeat CPU 0 instructions: 142000000 cycles: 192374171 heartbeat IPC: 0.429444 cumulative IPC: 0.52618 (Simulation time: 1 hr 39 min 54 sec) 
Heartbeat CPU 0 instructions: 143000000 cycles: 194649020 heartbeat IPC: 0.43959 cumulative IPC: 0.525067 (Simulation time: 1 hr 40 min 4 sec) 
Heartbeat CPU 0 instructions: 144000000 cycles: 196483294 heartbeat IPC: 0.545175 cumulative IPC: 0.525274 (Simulation time: 1 hr 40 min 12 sec) 
Heartbeat CPU 0 instructions: 145000002 cycles: 198227435 heartbeat IPC: 0.573349 cumulative IPC: 0.525738 (Simulation time: 1 hr 40 min 19 sec) 
Heartbeat CPU 0 instructions: 146000001 cycles: 199946896 heartbeat IPC: 0.581577 cumulative IPC: 0.526264 (Simulation time: 1 hr 40 min 26 sec) 
Heartbeat CPU 0 instructions: 147000000 cycles: 201515660 heartbeat IPC: 0.637444 cumulative IPC: 0.527212 (Simulation time: 1 hr 40 min 33 sec) 
Heartbeat CPU 0 instructions: 148000000 cycles: 203222968 heartbeat IPC: 0.585717 cumulative IPC: 0.52775 (Simulation time: 1 hr 40 min 38 sec) 
Heartbeat CPU 0 instructions: 149000002 cycles: 204971212 heartbeat IPC: 0.572004 cumulative IPC: 0.528163 (Simulation time: 1 hr 40 min 44 sec) 
Heartbeat CPU 0 instructions: 150000000 cycles: 206720091 heartbeat IPC: 0.571794 cumulative IPC: 0.528566 (Simulation time: 1 hr 40 min 49 sec) 
Finished CPU 0 instructions: 100000001 cycles: 189191166 cummulative IPC: 0.528566 (Simulation time: 1 hr 40 min 49 sec) 

ChampSim completed all CPUs

Region of Interest Statistics

CPU 0 cummulative IPC: 0.528566 instructions: 100000001 cycles: 189191166
LLC TOTAL     ACCESS:    5216164  HIT:     606689  MISS:    4609475
LLC LOAD      ACCESS:    1225621  HIT:      65801  MISS:    1159820
LLC RFO       ACCESS:         28  HIT:         22  MISS:          6
LLC PREFETCH  ACCESS:    2241462  HIT:     106573  MISS:    2134889
LLC WRITEBACK ACCESS:    1749053  HIT:     434293  MISS:    1314760
OPTgen accesses: 20830
OPTgen hits: 288
OPTgen hit rate: 1.38262


