
*** ChampSim Multicore Out-of-Order Simulator ***

Warmup Instructions: 50000000
Simulation Instructions: 100000000
Configuration: 2
Number of CPUs: 1
LLC sets: 2048
LLC ways: 16
Off-chip DRAM Channels: 1 Width: 64-bit Data Rate: 1600 MT/s

CPU 0 runs /datasets/cs240c-wi22-a00-public/data/Assignment2-gz/sphinx3_883B.trace.gz
CPU 0 L1D next line prefetcher
CPU 0 L2C IP-based stride prefetcher
Initialize Hawkeye state
Heartbeat CPU 0 instructions: 1000003 cycles: 414365 heartbeat IPC: 2.41334 cumulative IPC: 2.41334 (Simulation time: 0 hr 0 min 31 sec) 
Heartbeat CPU 0 instructions: 2000000 cycles: 823887 heartbeat IPC: 2.44186 cumulative IPC: 2.42752 (Simulation time: 0 hr 1 min 3 sec) 
Heartbeat CPU 0 instructions: 3000003 cycles: 1298677 heartbeat IPC: 2.1062 cumulative IPC: 2.31005 (Simulation time: 0 hr 1 min 35 sec) 
Heartbeat CPU 0 instructions: 4000000 cycles: 1637567 heartbeat IPC: 2.9508 cumulative IPC: 2.44265 (Simulation time: 0 hr 2 min 5 sec) 
Heartbeat CPU 0 instructions: 5000000 cycles: 1992239 heartbeat IPC: 2.81951 cumulative IPC: 2.50974 (Simulation time: 0 hr 2 min 41 sec) 
Heartbeat CPU 0 instructions: 6000003 cycles: 2406682 heartbeat IPC: 2.41288 cumulative IPC: 2.49306 (Simulation time: 0 hr 3 min 14 sec) 
Heartbeat CPU 0 instructions: 7000002 cycles: 2815442 heartbeat IPC: 2.44642 cumulative IPC: 2.48629 (Simulation time: 0 hr 3 min 48 sec) 
Heartbeat CPU 0 instructions: 8000000 cycles: 3291302 heartbeat IPC: 2.10145 cumulative IPC: 2.43065 (Simulation time: 0 hr 4 min 19 sec) 
Heartbeat CPU 0 instructions: 9000001 cycles: 3630299 heartbeat IPC: 2.94988 cumulative IPC: 2.47913 (Simulation time: 0 hr 4 min 47 sec) 
Heartbeat CPU 0 instructions: 10000000 cycles: 3984391 heartbeat IPC: 2.82412 cumulative IPC: 2.50979 (Simulation time: 0 hr 5 min 17 sec) 
Heartbeat CPU 0 instructions: 11000000 cycles: 4398833 heartbeat IPC: 2.41288 cumulative IPC: 2.50066 (Simulation time: 0 hr 5 min 49 sec) 
Heartbeat CPU 0 instructions: 12000000 cycles: 4811705 heartbeat IPC: 2.42206 cumulative IPC: 2.49392 (Simulation time: 0 hr 6 min 22 sec) 
Heartbeat CPU 0 instructions: 13000001 cycles: 5277019 heartbeat IPC: 2.14909 cumulative IPC: 2.46351 (Simulation time: 0 hr 6 min 51 sec) 
Heartbeat CPU 0 instructions: 14000001 cycles: 5630840 heartbeat IPC: 2.82629 cumulative IPC: 2.48631 (Simulation time: 0 hr 7 min 20 sec) 
Heartbeat CPU 0 instructions: 15000000 cycles: 5977458 heartbeat IPC: 2.88502 cumulative IPC: 2.50943 (Simulation time: 0 hr 7 min 53 sec) 
Heartbeat CPU 0 instructions: 16000000 cycles: 6390942 heartbeat IPC: 2.41847 cumulative IPC: 2.50354 (Simulation time: 0 hr 8 min 30 sec) 
Heartbeat CPU 0 instructions: 17000000 cycles: 6803001 heartbeat IPC: 2.42684 cumulative IPC: 2.4989 (Simulation time: 0 hr 9 min 5 sec) 
Heartbeat CPU 0 instructions: 18000000 cycles: 7219318 heartbeat IPC: 2.40202 cumulative IPC: 2.49331 (Simulation time: 0 hr 9 min 39 sec) 
Heartbeat CPU 0 instructions: 19000003 cycles: 7633868 heartbeat IPC: 2.41226 cumulative IPC: 2.48891 (Simulation time: 0 hr 10 min 12 sec) 
Heartbeat CPU 0 instructions: 20000000 cycles: 7972817 heartbeat IPC: 2.95029 cumulative IPC: 2.50852 (Simulation time: 0 hr 10 min 40 sec) 
Heartbeat CPU 0 instructions: 21000000 cycles: 8382451 heartbeat IPC: 2.4412 cumulative IPC: 2.50523 (Simulation time: 0 hr 11 min 13 sec) 
Heartbeat CPU 0 instructions: 22000003 cycles: 8795950 heartbeat IPC: 2.41839 cumulative IPC: 2.50115 (Simulation time: 0 hr 11 min 46 sec) 
Heartbeat CPU 0 instructions: 23000003 cycles: 9206099 heartbeat IPC: 2.43814 cumulative IPC: 2.49834 (Simulation time: 0 hr 12 min 20 sec) 
Heartbeat CPU 0 instructions: 24000000 cycles: 9656783 heartbeat IPC: 2.21884 cumulative IPC: 2.4853 (Simulation time: 0 hr 12 min 50 sec) 
Heartbeat CPU 0 instructions: 25000000 cycles: 9995820 heartbeat IPC: 2.94953 cumulative IPC: 2.50105 (Simulation time: 0 hr 13 min 19 sec) 
Heartbeat CPU 0 instructions: 26000001 cycles: 10372995 heartbeat IPC: 2.65129 cumulative IPC: 2.50651 (Simulation time: 0 hr 13 min 50 sec) 
Heartbeat CPU 0 instructions: 27000001 cycles: 10788011 heartbeat IPC: 2.40955 cumulative IPC: 2.50278 (Simulation time: 0 hr 14 min 22 sec) 
Heartbeat CPU 0 instructions: 28000000 cycles: 11202826 heartbeat IPC: 2.41071 cumulative IPC: 2.49937 (Simulation time: 0 hr 14 min 55 sec) 
Heartbeat CPU 0 instructions: 29000003 cycles: 11666164 heartbeat IPC: 2.15826 cumulative IPC: 2.48582 (Simulation time: 0 hr 15 min 26 sec) 
Heartbeat CPU 0 instructions: 30000000 cycles: 12005086 heartbeat IPC: 2.95052 cumulative IPC: 2.49894 (Simulation time: 0 hr 16 min 1 sec) 
Heartbeat CPU 0 instructions: 31000003 cycles: 12368407 heartbeat IPC: 2.7524 cumulative IPC: 2.50639 (Simulation time: 0 hr 16 min 36 sec) 
Heartbeat CPU 0 instructions: 32000000 cycles: 12783463 heartbeat IPC: 2.40931 cumulative IPC: 2.50323 (Simulation time: 0 hr 17 min 9 sec) 
Heartbeat CPU 0 instructions: 33000001 cycles: 13193019 heartbeat IPC: 2.44167 cumulative IPC: 2.50132 (Simulation time: 0 hr 17 min 45 sec) 
Heartbeat CPU 0 instructions: 34000000 cycles: 13667222 heartbeat IPC: 2.1088 cumulative IPC: 2.4877 (Simulation time: 0 hr 18 min 19 sec) 
Heartbeat CPU 0 instructions: 35000000 cycles: 14006185 heartbeat IPC: 2.95017 cumulative IPC: 2.4989 (Simulation time: 0 hr 18 min 46 sec) 
Heartbeat CPU 0 instructions: 36000000 cycles: 14364473 heartbeat IPC: 2.79105 cumulative IPC: 2.50618 (Simulation time: 0 hr 19 min 20 sec) 
Heartbeat CPU 0 instructions: 37000001 cycles: 14780533 heartbeat IPC: 2.4035 cumulative IPC: 2.50329 (Simulation time: 0 hr 19 min 52 sec) 
Heartbeat CPU 0 instructions: 38000000 cycles: 15190150 heartbeat IPC: 2.4413 cumulative IPC: 2.50162 (Simulation time: 0 hr 20 min 23 sec) 
Heartbeat CPU 0 instructions: 39000002 cycles: 15665223 heartbeat IPC: 2.10494 cumulative IPC: 2.48959 (Simulation time: 0 hr 20 min 54 sec) 
Heartbeat CPU 0 instructions: 40000000 cycles: 16004201 heartbeat IPC: 2.95004 cumulative IPC: 2.49934 (Simulation time: 0 hr 21 min 24 sec) 
Heartbeat CPU 0 instructions: 41000003 cycles: 16361508 heartbeat IPC: 2.79872 cumulative IPC: 2.50588 (Simulation time: 0 hr 21 min 52 sec) 
Heartbeat CPU 0 instructions: 42000000 cycles: 16777632 heartbeat IPC: 2.40312 cumulative IPC: 2.50333 (Simulation time: 0 hr 22 min 27 sec) 
Heartbeat CPU 0 instructions: 43000001 cycles: 17189013 heartbeat IPC: 2.43084 cumulative IPC: 2.5016 (Simulation time: 0 hr 23 min 4 sec) 
Heartbeat CPU 0 instructions: 44000000 cycles: 17659730 heartbeat IPC: 2.12442 cumulative IPC: 2.49154 (Simulation time: 0 hr 23 min 36 sec) 
Heartbeat CPU 0 instructions: 45000001 cycles: 17998722 heartbeat IPC: 2.94993 cumulative IPC: 2.50018 (Simulation time: 0 hr 24 min 10 sec) 
Heartbeat CPU 0 instructions: 46000001 cycles: 18359076 heartbeat IPC: 2.77505 cumulative IPC: 2.50557 (Simulation time: 0 hr 24 min 46 sec) 
Heartbeat CPU 0 instructions: 47000003 cycles: 18773654 heartbeat IPC: 2.4121 cumulative IPC: 2.50351 (Simulation time: 0 hr 25 min 25 sec) 
Heartbeat CPU 0 instructions: 48000000 cycles: 19189459 heartbeat IPC: 2.40497 cumulative IPC: 2.50137 (Simulation time: 0 hr 25 min 59 sec) 
Heartbeat CPU 0 instructions: 49000001 cycles: 19647555 heartbeat IPC: 2.18295 cumulative IPC: 2.49395 (Simulation time: 0 hr 26 min 29 sec) 
Heartbeat CPU 0 instructions: 50000003 cycles: 19986508 heartbeat IPC: 2.95027 cumulative IPC: 2.50169 (Simulation time: 0 hr 26 min 57 sec) 

Warmup complete CPU 0 instructions: 50000003 cycles: 19986508 (Simulation time: 0 hr 26 min 57 sec) 

Heartbeat CPU 0 instructions: 51000003 cycles: 21128102 heartbeat IPC: 0.875968 cumulative IPC: 0.875968 (Simulation time: 0 hr 27 min 30 sec) 
Heartbeat CPU 0 instructions: 52000000 cycles: 22767750 heartbeat IPC: 0.609885 cumulative IPC: 0.719102 (Simulation time: 0 hr 28 min 12 sec) 
Heartbeat CPU 0 instructions: 53000000 cycles: 24608304 heartbeat IPC: 0.543315 cumulative IPC: 0.649098 (Simulation time: 0 hr 28 min 53 sec) 
Heartbeat CPU 0 instructions: 54000003 cycles: 25887767 heartbeat IPC: 0.78158 cumulative IPC: 0.677821 (Simulation time: 0 hr 29 min 33 sec) 
Heartbeat CPU 0 instructions: 55000003 cycles: 26821948 heartbeat IPC: 1.07046 cumulative IPC: 0.731482 (Simulation time: 0 hr 30 min 4 sec) 
Heartbeat CPU 0 instructions: 56000000 cycles: 27732944 heartbeat IPC: 1.0977 cumulative IPC: 0.774549 (Simulation time: 0 hr 30 min 38 sec) 
Heartbeat CPU 0 instructions: 57000002 cycles: 28937089 heartbeat IPC: 0.830466 cumulative IPC: 0.782072 (Simulation time: 0 hr 31 min 13 sec) 
Heartbeat CPU 0 instructions: 58000001 cycles: 29963727 heartbeat IPC: 0.974052 cumulative IPC: 0.801826 (Simulation time: 0 hr 31 min 53 sec) 
Heartbeat CPU 0 instructions: 59000003 cycles: 30865521 heartbeat IPC: 1.1089 cumulative IPC: 0.827281 (Simulation time: 0 hr 32 min 30 sec) 
Heartbeat CPU 0 instructions: 60000000 cycles: 31768888 heartbeat IPC: 1.10697 cumulative IPC: 0.848725 (Simulation time: 0 hr 33 min 2 sec) 
Heartbeat CPU 0 instructions: 61000001 cycles: 32950628 heartbeat IPC: 0.846211 cumulative IPC: 0.848496 (Simulation time: 0 hr 33 min 41 sec) 
Heartbeat CPU 0 instructions: 62000001 cycles: 33825386 heartbeat IPC: 1.14317 cumulative IPC: 0.867122 (Simulation time: 0 hr 34 min 19 sec) 
Heartbeat CPU 0 instructions: 63000003 cycles: 34682976 heartbeat IPC: 1.16606 cumulative IPC: 0.884566 (Simulation time: 0 hr 34 min 50 sec) 
Heartbeat CPU 0 instructions: 64000000 cycles: 35933818 heartbeat IPC: 0.799459 cumulative IPC: 0.877891 (Simulation time: 0 hr 35 min 23 sec) 
Heartbeat CPU 0 instructions: 65000003 cycles: 36810327 heartbeat IPC: 1.14089 cumulative IPC: 0.891593 (Simulation time: 0 hr 35 min 59 sec) 
Heartbeat CPU 0 instructions: 66000002 cycles: 37691332 heartbeat IPC: 1.13507 cumulative IPC: 0.903708 (Simulation time: 0 hr 36 min 35 sec) 
Heartbeat CPU 0 instructions: 67000000 cycles: 38963015 heartbeat IPC: 0.786358 cumulative IPC: 0.895844 (Simulation time: 0 hr 37 min 17 sec) 
Heartbeat CPU 0 instructions: 68000000 cycles: 40600448 heartbeat IPC: 0.610712 cumulative IPC: 0.873195 (Simulation time: 0 hr 37 min 54 sec) 
Heartbeat CPU 0 instructions: 69000003 cycles: 41469587 heartbeat IPC: 1.15057 cumulative IPC: 0.884417 (Simulation time: 0 hr 38 min 33 sec) 
Heartbeat CPU 0 instructions: 70000000 cycles: 42357248 heartbeat IPC: 1.12655 cumulative IPC: 0.894025 (Simulation time: 0 hr 39 min 9 sec) 
Heartbeat CPU 0 instructions: 71000000 cycles: 43490602 heartbeat IPC: 0.882337 cumulative IPC: 0.893461 (Simulation time: 0 hr 39 min 46 sec) 
Heartbeat CPU 0 instructions: 72000000 cycles: 44905269 heartbeat IPC: 0.70688 cumulative IPC: 0.882869 (Simulation time: 0 hr 40 min 23 sec) 
Heartbeat CPU 0 instructions: 73000000 cycles: 45774638 heartbeat IPC: 1.15026 cumulative IPC: 0.891883 (Simulation time: 0 hr 40 min 58 sec) 
Heartbeat CPU 0 instructions: 74000000 cycles: 46660190 heartbeat IPC: 1.12924 cumulative IPC: 0.899763 (Simulation time: 0 hr 41 min 33 sec) 
Heartbeat CPU 0 instructions: 75000000 cycles: 47834638 heartbeat IPC: 0.851464 cumulative IPC: 0.897726 (Simulation time: 0 hr 42 min 12 sec) 
Heartbeat CPU 0 instructions: 76000000 cycles: 49097044 heartbeat IPC: 0.792138 cumulative IPC: 0.893147 (Simulation time: 0 hr 42 min 43 sec) 
Heartbeat CPU 0 instructions: 77000000 cycles: 49998957 heartbeat IPC: 1.10875 cumulative IPC: 0.899627 (Simulation time: 0 hr 43 min 18 sec) 
Heartbeat CPU 0 instructions: 78000000 cycles: 50888658 heartbeat IPC: 1.12397 cumulative IPC: 0.906086 (Simulation time: 0 hr 43 min 56 sec) 
Heartbeat CPU 0 instructions: 79000001 cycles: 52228572 heartbeat IPC: 0.746317 cumulative IPC: 0.899446 (Simulation time: 0 hr 44 min 31 sec) 
Heartbeat CPU 0 instructions: 80000000 cycles: 53382292 heartbeat IPC: 0.866761 cumulative IPC: 0.898317 (Simulation time: 0 hr 45 min 5 sec) 
Heartbeat CPU 0 instructions: 81000000 cycles: 54313094 heartbeat IPC: 1.07434 cumulative IPC: 0.90309 (Simulation time: 0 hr 45 min 35 sec) 
Heartbeat CPU 0 instructions: 82000000 cycles: 55134593 heartbeat IPC: 1.21729 cumulative IPC: 0.910434 (Simulation time: 0 hr 46 min 13 sec) 
Heartbeat CPU 0 instructions: 83000000 cycles: 56526278 heartbeat IPC: 0.718553 cumulative IPC: 0.903125 (Simulation time: 0 hr 46 min 52 sec) 
Heartbeat CPU 0 instructions: 84000000 cycles: 57424929 heartbeat IPC: 1.11278 cumulative IPC: 0.908158 (Simulation time: 0 hr 47 min 32 sec) 
Heartbeat CPU 0 instructions: 85000001 cycles: 58240613 heartbeat IPC: 1.22597 cumulative IPC: 0.914934 (Simulation time: 0 hr 48 min 9 sec) 
Heartbeat CPU 0 instructions: 86000001 cycles: 59301147 heartbeat IPC: 0.942921 cumulative IPC: 0.915689 (Simulation time: 0 hr 48 min 44 sec) 
Heartbeat CPU 0 instructions: 87000000 cycles: 60491206 heartbeat IPC: 0.840294 cumulative IPC: 0.913474 (Simulation time: 0 hr 49 min 24 sec) 
Heartbeat CPU 0 instructions: 88000000 cycles: 61304303 heartbeat IPC: 1.22987 cumulative IPC: 0.919701 (Simulation time: 0 hr 50 min 7 sec) 
Heartbeat CPU 0 instructions: 89000000 cycles: 62034845 heartbeat IPC: 1.36885 cumulative IPC: 0.927504 (Simulation time: 0 hr 50 min 41 sec) 
Heartbeat CPU 0 instructions: 90000000 cycles: 63301127 heartbeat IPC: 0.789714 cumulative IPC: 0.923476 (Simulation time: 0 hr 51 min 16 sec) 
Heartbeat CPU 0 instructions: 91000003 cycles: 64544359 heartbeat IPC: 0.804358 cumulative IPC: 0.920152 (Simulation time: 0 hr 51 min 55 sec) 
Heartbeat CPU 0 instructions: 92000000 cycles: 65500779 heartbeat IPC: 1.04556 cumulative IPC: 0.922787 (Simulation time: 0 hr 52 min 27 sec) 
Heartbeat CPU 0 instructions: 93000000 cycles: 66319694 heartbeat IPC: 1.22113 cumulative IPC: 0.92806 (Simulation time: 0 hr 52 min 58 sec) 
Heartbeat CPU 0 instructions: 94000002 cycles: 67120061 heartbeat IPC: 1.24943 cumulative IPC: 0.933518 (Simulation time: 0 hr 53 min 33 sec) 
Heartbeat CPU 0 instructions: 95000001 cycles: 68465114 heartbeat IPC: 0.743464 cumulative IPC: 0.928244 (Simulation time: 0 hr 54 min 7 sec) 
Heartbeat CPU 0 instructions: 96000000 cycles: 69315101 heartbeat IPC: 1.17649 cumulative IPC: 0.932522 (Simulation time: 0 hr 54 min 39 sec) 
Heartbeat CPU 0 instructions: 97000002 cycles: 70124826 heartbeat IPC: 1.23499 cumulative IPC: 0.937407 (Simulation time: 0 hr 55 min 10 sec) 
Heartbeat CPU 0 instructions: 98000003 cycles: 71272892 heartbeat IPC: 0.871031 cumulative IPC: 0.935921 (Simulation time: 0 hr 55 min 44 sec) 
Heartbeat CPU 0 instructions: 99000000 cycles: 72336173 heartbeat IPC: 0.940482 cumulative IPC: 0.936014 (Simulation time: 0 hr 56 min 19 sec) 
Heartbeat CPU 0 instructions: 100000000 cycles: 73191266 heartbeat IPC: 1.16946 cumulative IPC: 0.939766 (Simulation time: 0 hr 56 min 51 sec) 
Heartbeat CPU 0 instructions: 101000000 cycles: 73934280 heartbeat IPC: 1.34587 cumulative IPC: 0.945359 (Simulation time: 0 hr 57 min 22 sec) 
Heartbeat CPU 0 instructions: 102000003 cycles: 75377130 heartbeat IPC: 0.693075 cumulative IPC: 0.938787 (Simulation time: 0 hr 58 min 0 sec) 
Heartbeat CPU 0 instructions: 103000001 cycles: 76307101 heartbeat IPC: 1.0753 cumulative IPC: 0.941041 (Simulation time: 0 hr 58 min 31 sec) 
Heartbeat CPU 0 instructions: 104000000 cycles: 77122816 heartbeat IPC: 1.22592 cumulative IPC: 0.945108 (Simulation time: 0 hr 59 min 2 sec) 
Heartbeat CPU 0 instructions: 105000002 cycles: 78133714 heartbeat IPC: 0.989221 cumulative IPC: 0.945875 (Simulation time: 0 hr 59 min 33 sec) 
Heartbeat CPU 0 instructions: 106000003 cycles: 79583250 heartbeat IPC: 0.689877 cumulative IPC: 0.939649 (Simulation time: 1 hr 0 min 5 sec) 
Heartbeat CPU 0 instructions: 107000001 cycles: 80450940 heartbeat IPC: 1.15248 cumulative IPC: 0.942703 (Simulation time: 1 hr 0 min 34 sec) 
Heartbeat CPU 0 instructions: 108000000 cycles: 81268492 heartbeat IPC: 1.22316 cumulative IPC: 0.946445 (Simulation time: 1 hr 1 min 3 sec) 
Heartbeat CPU 0 instructions: 109000001 cycles: 82367501 heartbeat IPC: 0.909912 cumulative IPC: 0.945801 (Simulation time: 1 hr 1 min 42 sec) 
Heartbeat CPU 0 instructions: 110000000 cycles: 83707797 heartbeat IPC: 0.746103 cumulative IPC: 0.941601 (Simulation time: 1 hr 2 min 17 sec) 
Heartbeat CPU 0 instructions: 111000003 cycles: 84561221 heartbeat IPC: 1.17175 cumulative IPC: 0.944642 (Simulation time: 1 hr 2 min 47 sec) 
Heartbeat CPU 0 instructions: 112000000 cycles: 85412618 heartbeat IPC: 1.17454 cumulative IPC: 0.947634 (Simulation time: 1 hr 3 min 18 sec) 
Heartbeat CPU 0 instructions: 113000002 cycles: 86654864 heartbeat IPC: 0.804995 cumulative IPC: 0.944976 (Simulation time: 1 hr 3 min 53 sec) 
Heartbeat CPU 0 instructions: 114000001 cycles: 87905278 heartbeat IPC: 0.799734 cumulative IPC: 0.942302 (Simulation time: 1 hr 4 min 25 sec) 
Heartbeat CPU 0 instructions: 115000002 cycles: 88736123 heartbeat IPC: 1.2036 cumulative IPC: 0.94546 (Simulation time: 1 hr 4 min 56 sec) 
Heartbeat CPU 0 instructions: 116000000 cycles: 89472139 heartbeat IPC: 1.35866 cumulative IPC: 0.949837 (Simulation time: 1 hr 5 min 29 sec) 
Heartbeat CPU 0 instructions: 117000002 cycles: 90826040 heartbeat IPC: 0.738608 cumulative IPC: 0.9458 (Simulation time: 1 hr 6 min 4 sec) 
Heartbeat CPU 0 instructions: 118000002 cycles: 91808664 heartbeat IPC: 1.01768 cumulative IPC: 0.946783 (Simulation time: 1 hr 6 min 37 sec) 
Heartbeat CPU 0 instructions: 119000002 cycles: 92621113 heartbeat IPC: 1.23085 cumulative IPC: 0.94996 (Simulation time: 1 hr 7 min 15 sec) 
Heartbeat CPU 0 instructions: 120000000 cycles: 93518562 heartbeat IPC: 1.11427 cumulative IPC: 0.951966 (Simulation time: 1 hr 7 min 53 sec) 
Heartbeat CPU 0 instructions: 121000000 cycles: 94965870 heartbeat IPC: 0.690938 cumulative IPC: 0.946927 (Simulation time: 1 hr 8 min 25 sec) 
Heartbeat CPU 0 instructions: 122000002 cycles: 95849244 heartbeat IPC: 1.13203 cumulative IPC: 0.949083 (Simulation time: 1 hr 8 min 56 sec) 
Heartbeat CPU 0 instructions: 123000001 cycles: 96693528 heartbeat IPC: 1.18443 cumulative IPC: 0.951673 (Simulation time: 1 hr 9 min 27 sec) 
Heartbeat CPU 0 instructions: 124000000 cycles: 97799756 heartbeat IPC: 0.903972 cumulative IPC: 0.950995 (Simulation time: 1 hr 10 min 10 sec) 
Heartbeat CPU 0 instructions: 125000003 cycles: 99119944 heartbeat IPC: 0.75747 cumulative IPC: 0.947766 (Simulation time: 1 hr 10 min 48 sec) 
Heartbeat CPU 0 instructions: 126000001 cycles: 100004577 heartbeat IPC: 1.13041 cumulative IPC: 0.949785 (Simulation time: 1 hr 11 min 20 sec) 
Heartbeat CPU 0 instructions: 127000000 cycles: 100862073 heartbeat IPC: 1.16619 cumulative IPC: 0.95208 (Simulation time: 1 hr 11 min 55 sec) 
Heartbeat CPU 0 instructions: 128000000 cycles: 102127738 heartbeat IPC: 0.790098 cumulative IPC: 0.949584 (Simulation time: 1 hr 12 min 41 sec) 
Heartbeat CPU 0 instructions: 129000002 cycles: 103423593 heartbeat IPC: 0.771693 cumulative IPC: 0.946821 (Simulation time: 1 hr 13 min 25 sec) 
Heartbeat CPU 0 instructions: 130000002 cycles: 104308234 heartbeat IPC: 1.1304 cumulative IPC: 0.948747 (Simulation time: 1 hr 13 min 58 sec) 
Heartbeat CPU 0 instructions: 131000001 cycles: 105170439 heartbeat IPC: 1.15982 cumulative IPC: 0.950884 (Simulation time: 1 hr 14 min 27 sec) 
Heartbeat CPU 0 instructions: 132000000 cycles: 106460437 heartbeat IPC: 0.775194 cumulative IPC: 0.948263 (Simulation time: 1 hr 15 min 3 sec) 
Heartbeat CPU 0 instructions: 133000001 cycles: 107884674 heartbeat IPC: 0.702131 cumulative IPC: 0.944274 (Simulation time: 1 hr 15 min 37 sec) 
Heartbeat CPU 0 instructions: 134000002 cycles: 108769387 heartbeat IPC: 1.13031 cumulative IPC: 0.946128 (Simulation time: 1 hr 16 min 12 sec) 
Heartbeat CPU 0 instructions: 135000001 cycles: 109636912 heartbeat IPC: 1.1527 cumulative IPC: 0.948127 (Simulation time: 1 hr 16 min 47 sec) 
Heartbeat CPU 0 instructions: 136000000 cycles: 110928332 heartbeat IPC: 0.774341 cumulative IPC: 0.945659 (Simulation time: 1 hr 17 min 24 sec) 
Heartbeat CPU 0 instructions: 137000001 cycles: 112283339 heartbeat IPC: 0.738004 cumulative IPC: 0.942611 (Simulation time: 1 hr 17 min 55 sec) 
Heartbeat CPU 0 instructions: 138000002 cycles: 113185134 heartbeat IPC: 1.1089 cumulative IPC: 0.94422 (Simulation time: 1 hr 18 min 26 sec) 
Heartbeat CPU 0 instructions: 139000001 cycles: 114052534 heartbeat IPC: 1.15287 cumulative IPC: 0.946144 (Simulation time: 1 hr 18 min 58 sec) 
Heartbeat CPU 0 instructions: 140000000 cycles: 115315010 heartbeat IPC: 0.792093 cumulative IPC: 0.944104 (Simulation time: 1 hr 19 min 30 sec) 
Heartbeat CPU 0 instructions: 141000000 cycles: 116794985 heartbeat IPC: 0.675687 cumulative IPC: 0.94 (Simulation time: 1 hr 20 min 3 sec) 
Heartbeat CPU 0 instructions: 142000002 cycles: 117928500 heartbeat IPC: 0.882213 cumulative IPC: 0.939332 (Simulation time: 1 hr 20 min 31 sec) 
Heartbeat CPU 0 instructions: 143000003 cycles: 118787862 heartbeat IPC: 1.16366 cumulative IPC: 0.941283 (Simulation time: 1 hr 21 min 6 sec) 
Heartbeat CPU 0 instructions: 144000000 cycles: 119662406 heartbeat IPC: 1.14345 cumulative IPC: 0.943056 (Simulation time: 1 hr 21 min 39 sec) 
Heartbeat CPU 0 instructions: 145000000 cycles: 120780323 heartbeat IPC: 0.894521 cumulative IPC: 0.942518 (Simulation time: 1 hr 22 min 12 sec) 
Heartbeat CPU 0 instructions: 146000001 cycles: 122195203 heartbeat IPC: 0.706774 cumulative IPC: 0.939255 (Simulation time: 1 hr 22 min 43 sec) 
Heartbeat CPU 0 instructions: 147000002 cycles: 123068813 heartbeat IPC: 1.14468 cumulative IPC: 0.940996 (Simulation time: 1 hr 23 min 14 sec) 
Heartbeat CPU 0 instructions: 148000000 cycles: 123941603 heartbeat IPC: 1.14575 cumulative IPC: 0.942715 (Simulation time: 1 hr 23 min 44 sec) 
Heartbeat CPU 0 instructions: 149000001 cycles: 125113796 heartbeat IPC: 0.853103 cumulative IPC: 0.941716 (Simulation time: 1 hr 24 min 20 sec) 
Heartbeat CPU 0 instructions: 150000000 cycles: 126464323 heartbeat IPC: 0.740451 cumulative IPC: 0.939163 (Simulation time: 1 hr 24 min 48 sec) 
Finished CPU 0 instructions: 100000001 cycles: 106477816 cummulative IPC: 0.939163 (Simulation time: 1 hr 24 min 48 sec) 

ChampSim completed all CPUs

Region of Interest Statistics

CPU 0 cummulative IPC: 0.939163 instructions: 100000001 cycles: 106477816
LLC TOTAL     ACCESS:    1706400  HIT:     710289  MISS:     996111
LLC LOAD      ACCESS:     272390  HIT:     216153  MISS:      56237
LLC RFO       ACCESS:     107604  HIT:      91449  MISS:      16155
LLC PREFETCH  ACCESS:    1186824  HIT:     264078  MISS:     922746
LLC WRITEBACK ACCESS:     139582  HIT:     138609  MISS:        973
OPTgen accesses: 9259
OPTgen hits: 8581
OPTgen hit rate: 92.6774


