
*** ChampSim Multicore Out-of-Order Simulator ***

Warmup Instructions: 50000000
Simulation Instructions: 100000000
Configuration: 2
Number of CPUs: 1
LLC sets: 2048
LLC ways: 16
Off-chip DRAM Channels: 1 Width: 64-bit Data Rate: 1600 MT/s

CPU 0 runs /datasets/cs240c-wi22-a00-public/data/Assignment2-gz/mcf_158B.trace.gz
CPU 0 L1D next line prefetcher
CPU 0 L2C IP-based stride prefetcher
Initialize Hawkeye state
Heartbeat CPU 0 instructions: 1000002 cycles: 512869 heartbeat IPC: 1.94982 cumulative IPC: 1.94982 (Simulation time: 0 hr 0 min 48 sec) 
Heartbeat CPU 0 instructions: 2000002 cycles: 1025123 heartbeat IPC: 1.95216 cumulative IPC: 1.95099 (Simulation time: 0 hr 1 min 28 sec) 
Heartbeat CPU 0 instructions: 3000000 cycles: 1539183 heartbeat IPC: 1.94529 cumulative IPC: 1.94909 (Simulation time: 0 hr 2 min 15 sec) 
Heartbeat CPU 0 instructions: 4000000 cycles: 2051697 heartbeat IPC: 1.95117 cumulative IPC: 1.94961 (Simulation time: 0 hr 3 min 0 sec) 
Heartbeat CPU 0 instructions: 5000002 cycles: 2560609 heartbeat IPC: 1.96498 cumulative IPC: 1.95266 (Simulation time: 0 hr 3 min 44 sec) 
Heartbeat CPU 0 instructions: 6000001 cycles: 3074705 heartbeat IPC: 1.94516 cumulative IPC: 1.95141 (Simulation time: 0 hr 4 min 30 sec) 
Heartbeat CPU 0 instructions: 7000001 cycles: 3584962 heartbeat IPC: 1.9598 cumulative IPC: 1.9526 (Simulation time: 0 hr 5 min 8 sec) 
Heartbeat CPU 0 instructions: 8000000 cycles: 4097006 heartbeat IPC: 1.95296 cumulative IPC: 1.95265 (Simulation time: 0 hr 5 min 48 sec) 
Heartbeat CPU 0 instructions: 9000000 cycles: 4616705 heartbeat IPC: 1.92419 cumulative IPC: 1.94944 (Simulation time: 0 hr 6 min 30 sec) 
Heartbeat CPU 0 instructions: 10000001 cycles: 5149212 heartbeat IPC: 1.87791 cumulative IPC: 1.94204 (Simulation time: 0 hr 7 min 9 sec) 
Heartbeat CPU 0 instructions: 11000001 cycles: 5658389 heartbeat IPC: 1.96395 cumulative IPC: 1.94402 (Simulation time: 0 hr 7 min 53 sec) 
Heartbeat CPU 0 instructions: 12000000 cycles: 6168323 heartbeat IPC: 1.96104 cumulative IPC: 1.94542 (Simulation time: 0 hr 8 min 37 sec) 
Heartbeat CPU 0 instructions: 13000003 cycles: 6677660 heartbeat IPC: 1.96334 cumulative IPC: 1.94679 (Simulation time: 0 hr 9 min 18 sec) 
Heartbeat CPU 0 instructions: 14000001 cycles: 7183791 heartbeat IPC: 1.97577 cumulative IPC: 1.94883 (Simulation time: 0 hr 10 min 5 sec) 
Heartbeat CPU 0 instructions: 15000000 cycles: 7688995 heartbeat IPC: 1.9794 cumulative IPC: 1.95084 (Simulation time: 0 hr 10 min 49 sec) 
Heartbeat CPU 0 instructions: 16000000 cycles: 8233408 heartbeat IPC: 1.83684 cumulative IPC: 1.9433 (Simulation time: 0 hr 11 min 36 sec) 
Heartbeat CPU 0 instructions: 17000001 cycles: 8745222 heartbeat IPC: 1.95384 cumulative IPC: 1.94392 (Simulation time: 0 hr 12 min 21 sec) 
Heartbeat CPU 0 instructions: 18000001 cycles: 9252166 heartbeat IPC: 1.9726 cumulative IPC: 1.94549 (Simulation time: 0 hr 13 min 4 sec) 
Heartbeat CPU 0 instructions: 19000001 cycles: 9764422 heartbeat IPC: 1.95215 cumulative IPC: 1.94584 (Simulation time: 0 hr 13 min 49 sec) 
Heartbeat CPU 0 instructions: 20000000 cycles: 10275703 heartbeat IPC: 1.95587 cumulative IPC: 1.94634 (Simulation time: 0 hr 14 min 36 sec) 
Heartbeat CPU 0 instructions: 21000000 cycles: 10786345 heartbeat IPC: 1.95832 cumulative IPC: 1.94691 (Simulation time: 0 hr 15 min 25 sec) 
Heartbeat CPU 0 instructions: 22000002 cycles: 11296270 heartbeat IPC: 1.96108 cumulative IPC: 1.94755 (Simulation time: 0 hr 16 min 12 sec) 
Heartbeat CPU 0 instructions: 23000003 cycles: 11814667 heartbeat IPC: 1.92903 cumulative IPC: 1.94673 (Simulation time: 0 hr 17 min 3 sec) 
Heartbeat CPU 0 instructions: 24000000 cycles: 12353998 heartbeat IPC: 1.85414 cumulative IPC: 1.94269 (Simulation time: 0 hr 17 min 39 sec) 
Heartbeat CPU 0 instructions: 25000001 cycles: 12859947 heartbeat IPC: 1.97649 cumulative IPC: 1.94402 (Simulation time: 0 hr 18 min 20 sec) 
Heartbeat CPU 0 instructions: 26000001 cycles: 13361979 heartbeat IPC: 1.9919 cumulative IPC: 1.94582 (Simulation time: 0 hr 18 min 58 sec) 
Heartbeat CPU 0 instructions: 27000002 cycles: 13867445 heartbeat IPC: 1.97837 cumulative IPC: 1.94701 (Simulation time: 0 hr 19 min 40 sec) 
Heartbeat CPU 0 instructions: 28000000 cycles: 14409193 heartbeat IPC: 1.84587 cumulative IPC: 1.9432 (Simulation time: 0 hr 20 min 20 sec) 
Heartbeat CPU 0 instructions: 29000003 cycles: 14917091 heartbeat IPC: 1.96891 cumulative IPC: 1.94408 (Simulation time: 0 hr 21 min 8 sec) 
Heartbeat CPU 0 instructions: 30000000 cycles: 15418834 heartbeat IPC: 1.99305 cumulative IPC: 1.94567 (Simulation time: 0 hr 21 min 47 sec) 
Heartbeat CPU 0 instructions: 31000003 cycles: 15929775 heartbeat IPC: 1.95718 cumulative IPC: 1.94604 (Simulation time: 0 hr 22 min 35 sec) 
Heartbeat CPU 0 instructions: 32000000 cycles: 16470229 heartbeat IPC: 1.85029 cumulative IPC: 1.9429 (Simulation time: 0 hr 23 min 26 sec) 
Heartbeat CPU 0 instructions: 33000000 cycles: 16976047 heartbeat IPC: 1.977 cumulative IPC: 1.94392 (Simulation time: 0 hr 24 min 14 sec) 
Heartbeat CPU 0 instructions: 34000000 cycles: 17484585 heartbeat IPC: 1.96642 cumulative IPC: 1.94457 (Simulation time: 0 hr 24 min 57 sec) 
Heartbeat CPU 0 instructions: 35000001 cycles: 17992611 heartbeat IPC: 1.96841 cumulative IPC: 1.94524 (Simulation time: 0 hr 25 min 40 sec) 
Heartbeat CPU 0 instructions: 36000000 cycles: 18535918 heartbeat IPC: 1.84058 cumulative IPC: 1.94218 (Simulation time: 0 hr 26 min 23 sec) 
Heartbeat CPU 0 instructions: 37000001 cycles: 19040518 heartbeat IPC: 1.98177 cumulative IPC: 1.94322 (Simulation time: 0 hr 27 min 8 sec) 
Heartbeat CPU 0 instructions: 38000002 cycles: 19544726 heartbeat IPC: 1.98331 cumulative IPC: 1.94426 (Simulation time: 0 hr 27 min 55 sec) 
Heartbeat CPU 0 instructions: 39000000 cycles: 20045613 heartbeat IPC: 1.99645 cumulative IPC: 1.94556 (Simulation time: 0 hr 28 min 40 sec) 
Heartbeat CPU 0 instructions: 40000000 cycles: 20584349 heartbeat IPC: 1.8562 cumulative IPC: 1.94322 (Simulation time: 0 hr 29 min 23 sec) 
Heartbeat CPU 0 instructions: 41000003 cycles: 21088816 heartbeat IPC: 1.9823 cumulative IPC: 1.94416 (Simulation time: 0 hr 30 min 8 sec) 
Heartbeat CPU 0 instructions: 42000000 cycles: 21588698 heartbeat IPC: 2.00047 cumulative IPC: 1.94546 (Simulation time: 0 hr 30 min 47 sec) 
Heartbeat CPU 0 instructions: 43000001 cycles: 22102547 heartbeat IPC: 1.9461 cumulative IPC: 1.94548 (Simulation time: 0 hr 31 min 26 sec) 
Heartbeat CPU 0 instructions: 44000000 cycles: 22620964 heartbeat IPC: 1.92895 cumulative IPC: 1.9451 (Simulation time: 0 hr 32 min 7 sec) 
Heartbeat CPU 0 instructions: 45000000 cycles: 23101529 heartbeat IPC: 2.08088 cumulative IPC: 1.94792 (Simulation time: 0 hr 32 min 44 sec) 
Heartbeat CPU 0 instructions: 46000002 cycles: 23610788 heartbeat IPC: 1.96364 cumulative IPC: 1.94826 (Simulation time: 0 hr 33 min 33 sec) 
Heartbeat CPU 0 instructions: 47000002 cycles: 24130985 heartbeat IPC: 1.92235 cumulative IPC: 1.9477 (Simulation time: 0 hr 34 min 23 sec) 
Heartbeat CPU 0 instructions: 48000000 cycles: 24612869 heartbeat IPC: 2.07518 cumulative IPC: 1.9502 (Simulation time: 0 hr 35 min 1 sec) 
Heartbeat CPU 0 instructions: 49000003 cycles: 25120212 heartbeat IPC: 1.97106 cumulative IPC: 1.95062 (Simulation time: 0 hr 35 min 41 sec) 
Heartbeat CPU 0 instructions: 50000000 cycles: 25644450 heartbeat IPC: 1.90752 cumulative IPC: 1.94974 (Simulation time: 0 hr 36 min 26 sec) 

Warmup complete CPU 0 instructions: 50000001 cycles: 25644451 (Simulation time: 0 hr 36 min 26 sec) 

Heartbeat CPU 0 instructions: 51000000 cycles: 31646612 heartbeat IPC: 0.166607 cumulative IPC: 0.166607 (Simulation time: 0 hr 37 min 13 sec) 
Heartbeat CPU 0 instructions: 52000000 cycles: 40815878 heartbeat IPC: 0.10906 cumulative IPC: 0.131827 (Simulation time: 0 hr 38 min 15 sec) 
Heartbeat CPU 0 instructions: 53000000 cycles: 54377622 heartbeat IPC: 0.0737368 cumulative IPC: 0.104409 (Simulation time: 0 hr 39 min 30 sec) 
Heartbeat CPU 0 instructions: 54000000 cycles: 60581677 heartbeat IPC: 0.161185 cumulative IPC: 0.114491 (Simulation time: 0 hr 40 min 19 sec) 
Heartbeat CPU 0 instructions: 55000000 cycles: 68555013 heartbeat IPC: 0.125418 cumulative IPC: 0.116521 (Simulation time: 0 hr 41 min 16 sec) 
Heartbeat CPU 0 instructions: 56000000 cycles: 83075607 heartbeat IPC: 0.0688677 cumulative IPC: 0.104473 (Simulation time: 0 hr 42 min 33 sec) 
Heartbeat CPU 0 instructions: 57000001 cycles: 89145087 heartbeat IPC: 0.164759 cumulative IPC: 0.110235 (Simulation time: 0 hr 43 min 24 sec) 
Heartbeat CPU 0 instructions: 58000001 cycles: 95163525 heartbeat IPC: 0.166156 cumulative IPC: 0.115076 (Simulation time: 0 hr 44 min 26 sec) 
Heartbeat CPU 0 instructions: 59000000 cycles: 110795727 heartbeat IPC: 0.0639704 cumulative IPC: 0.105694 (Simulation time: 0 hr 45 min 45 sec) 
Heartbeat CPU 0 instructions: 60000000 cycles: 117626512 heartbeat IPC: 0.146396 cumulative IPC: 0.108717 (Simulation time: 0 hr 46 min 39 sec) 
Heartbeat CPU 0 instructions: 61000000 cycles: 124463470 heartbeat IPC: 0.146264 cumulative IPC: 0.111315 (Simulation time: 0 hr 47 min 36 sec) 
Heartbeat CPU 0 instructions: 62000001 cycles: 136619466 heartbeat IPC: 0.082264 cumulative IPC: 0.108132 (Simulation time: 0 hr 48 min 49 sec) 
Heartbeat CPU 0 instructions: 63000001 cycles: 146840115 heartbeat IPC: 0.0978411 cumulative IPC: 0.107265 (Simulation time: 0 hr 49 min 55 sec) 
Heartbeat CPU 0 instructions: 64000000 cycles: 152746142 heartbeat IPC: 0.169318 cumulative IPC: 0.110148 (Simulation time: 0 hr 50 min 48 sec) 
Heartbeat CPU 0 instructions: 65000000 cycles: 159828699 heartbeat IPC: 0.141192 cumulative IPC: 0.111787 (Simulation time: 0 hr 51 min 48 sec) 
Heartbeat CPU 0 instructions: 66000000 cycles: 174610054 heartbeat IPC: 0.0676528 cumulative IPC: 0.107407 (Simulation time: 0 hr 53 min 4 sec) 
Heartbeat CPU 0 instructions: 67000002 cycles: 180585698 heartbeat IPC: 0.167346 cumulative IPC: 0.109719 (Simulation time: 0 hr 54 min 6 sec) 
Heartbeat CPU 0 instructions: 68000000 cycles: 186338703 heartbeat IPC: 0.173822 cumulative IPC: 0.112014 (Simulation time: 0 hr 55 min 4 sec) 
Heartbeat CPU 0 instructions: 69000000 cycles: 199179206 heartbeat IPC: 0.0778786 cumulative IPC: 0.109488 (Simulation time: 0 hr 56 min 14 sec) 
Heartbeat CPU 0 instructions: 70000000 cycles: 208437079 heartbeat IPC: 0.108016 cumulative IPC: 0.109414 (Simulation time: 0 hr 57 min 31 sec) 
Heartbeat CPU 0 instructions: 71000002 cycles: 214188801 heartbeat IPC: 0.173861 cumulative IPC: 0.11138 (Simulation time: 0 hr 58 min 38 sec) 
Heartbeat CPU 0 instructions: 72000000 cycles: 221853450 heartbeat IPC: 0.130469 cumulative IPC: 0.112125 (Simulation time: 0 hr 59 min 37 sec) 
Heartbeat CPU 0 instructions: 73000000 cycles: 236115550 heartbeat IPC: 0.0701159 cumulative IPC: 0.109279 (Simulation time: 1 hr 0 min 54 sec) 
Heartbeat CPU 0 instructions: 74000000 cycles: 242245044 heartbeat IPC: 0.163146 cumulative IPC: 0.110803 (Simulation time: 1 hr 1 min 48 sec) 
Heartbeat CPU 0 instructions: 75000001 cycles: 248382518 heartbeat IPC: 0.162934 cumulative IPC: 0.112239 (Simulation time: 1 hr 2 min 44 sec) 
Heartbeat CPU 0 instructions: 76000000 cycles: 260370831 heartbeat IPC: 0.0834145 cumulative IPC: 0.110767 (Simulation time: 1 hr 3 min 56 sec) 
Heartbeat CPU 0 instructions: 77000000 cycles: 270947414 heartbeat IPC: 0.0945485 cumulative IPC: 0.110068 (Simulation time: 1 hr 4 min 56 sec) 
Heartbeat CPU 0 instructions: 78000000 cycles: 277671793 heartbeat IPC: 0.148713 cumulative IPC: 0.111099 (Simulation time: 1 hr 5 min 55 sec) 
Heartbeat CPU 0 instructions: 79000001 cycles: 284744204 heartbeat IPC: 0.141395 cumulative IPC: 0.111926 (Simulation time: 1 hr 6 min 58 sec) 
Heartbeat CPU 0 instructions: 80000000 cycles: 299902894 heartbeat IPC: 0.0659687 cumulative IPC: 0.109386 (Simulation time: 1 hr 8 min 24 sec) 
Heartbeat CPU 0 instructions: 81000001 cycles: 307063343 heartbeat IPC: 0.139656 cumulative IPC: 0.110156 (Simulation time: 1 hr 9 min 25 sec) 
Heartbeat CPU 0 instructions: 82000001 cycles: 314014498 heartbeat IPC: 0.143861 cumulative IPC: 0.110969 (Simulation time: 1 hr 10 min 17 sec) 
Heartbeat CPU 0 instructions: 83000001 cycles: 326693178 heartbeat IPC: 0.0788726 cumulative IPC: 0.109617 (Simulation time: 1 hr 11 min 34 sec) 
Heartbeat CPU 0 instructions: 84000000 cycles: 337999007 heartbeat IPC: 0.0884499 cumulative IPC: 0.108851 (Simulation time: 1 hr 12 min 43 sec) 
Heartbeat CPU 0 instructions: 85000000 cycles: 344446405 heartbeat IPC: 0.155101 cumulative IPC: 0.109786 (Simulation time: 1 hr 13 min 33 sec) 
Heartbeat CPU 0 instructions: 86000002 cycles: 352031516 heartbeat IPC: 0.131837 cumulative IPC: 0.110298 (Simulation time: 1 hr 14 min 33 sec) 
Heartbeat CPU 0 instructions: 87000000 cycles: 367134391 heartbeat IPC: 0.0662124 cumulative IPC: 0.108349 (Simulation time: 1 hr 15 min 58 sec) 
Heartbeat CPU 0 instructions: 88000000 cycles: 374059206 heartbeat IPC: 0.144408 cumulative IPC: 0.109065 (Simulation time: 1 hr 16 min 49 sec) 
Heartbeat CPU 0 instructions: 89000000 cycles: 381445740 heartbeat IPC: 0.135381 cumulative IPC: 0.109612 (Simulation time: 1 hr 17 min 41 sec) 
Heartbeat CPU 0 instructions: 90000002 cycles: 394993221 heartbeat IPC: 0.0738146 cumulative IPC: 0.108299 (Simulation time: 1 hr 18 min 59 sec) 
Heartbeat CPU 0 instructions: 91000000 cycles: 404190384 heartbeat IPC: 0.108729 cumulative IPC: 0.108309 (Simulation time: 1 hr 20 min 3 sec) 
Heartbeat CPU 0 instructions: 92000000 cycles: 410711812 heartbeat IPC: 0.153341 cumulative IPC: 0.109072 (Simulation time: 1 hr 21 min 0 sec) 
Heartbeat CPU 0 instructions: 93000003 cycles: 421700737 heartbeat IPC: 0.091001 cumulative IPC: 0.10857 (Simulation time: 1 hr 22 min 3 sec) 
Heartbeat CPU 0 instructions: 94000000 cycles: 433619991 heartbeat IPC: 0.0838976 cumulative IPC: 0.10785 (Simulation time: 1 hr 23 min 14 sec) 
Heartbeat CPU 0 instructions: 95000000 cycles: 440333455 heartbeat IPC: 0.148954 cumulative IPC: 0.108515 (Simulation time: 1 hr 24 min 4 sec) 
Heartbeat CPU 0 instructions: 96000000 cycles: 448076185 heartbeat IPC: 0.129153 cumulative IPC: 0.108893 (Simulation time: 1 hr 24 min 55 sec) 
Heartbeat CPU 0 instructions: 97000003 cycles: 463733891 heartbeat IPC: 0.0638665 cumulative IPC: 0.107284 (Simulation time: 1 hr 25 min 53 sec) 
Heartbeat CPU 0 instructions: 98000002 cycles: 470948273 heartbeat IPC: 0.138612 cumulative IPC: 0.107792 (Simulation time: 1 hr 26 min 40 sec) 
Heartbeat CPU 0 instructions: 99000000 cycles: 477922362 heartbeat IPC: 0.143388 cumulative IPC: 0.10834 (Simulation time: 1 hr 27 min 14 sec) 
Heartbeat CPU 0 instructions: 100000000 cycles: 491426572 heartbeat IPC: 0.074051 cumulative IPC: 0.107346 (Simulation time: 1 hr 28 min 5 sec) 
Heartbeat CPU 0 instructions: 101000000 cycles: 501764000 heartbeat IPC: 0.0967359 cumulative IPC: 0.107116 (Simulation time: 1 hr 28 min 50 sec) 
Heartbeat CPU 0 instructions: 102000000 cycles: 509310762 heartbeat IPC: 0.132507 cumulative IPC: 0.107512 (Simulation time: 1 hr 29 min 30 sec) 
Heartbeat CPU 0 instructions: 103000001 cycles: 516331305 heartbeat IPC: 0.142439 cumulative IPC: 0.108012 (Simulation time: 1 hr 30 min 3 sec) 
Heartbeat CPU 0 instructions: 104000000 cycles: 531988344 heartbeat IPC: 0.063869 cumulative IPC: 0.106647 (Simulation time: 1 hr 30 min 58 sec) 
Heartbeat CPU 0 instructions: 105000000 cycles: 540196709 heartbeat IPC: 0.121827 cumulative IPC: 0.106889 (Simulation time: 1 hr 31 min 35 sec) 
Heartbeat CPU 0 instructions: 106000000 cycles: 547742227 heartbeat IPC: 0.132529 cumulative IPC: 0.10726 (Simulation time: 1 hr 32 min 10 sec) 
Heartbeat CPU 0 instructions: 107000000 cycles: 557687525 heartbeat IPC: 0.10055 cumulative IPC: 0.107134 (Simulation time: 1 hr 32 min 44 sec) 
Heartbeat CPU 0 instructions: 108000000 cycles: 571616450 heartbeat IPC: 0.071793 cumulative IPC: 0.106233 (Simulation time: 1 hr 33 min 28 sec) 
Heartbeat CPU 0 instructions: 109000000 cycles: 579048130 heartbeat IPC: 0.134559 cumulative IPC: 0.106613 (Simulation time: 1 hr 33 min 58 sec) 
Heartbeat CPU 0 instructions: 110000000 cycles: 586904056 heartbeat IPC: 0.127292 cumulative IPC: 0.106902 (Simulation time: 1 hr 34 min 33 sec) 
Heartbeat CPU 0 instructions: 111000001 cycles: 599862093 heartbeat IPC: 0.0771723 cumulative IPC: 0.106231 (Simulation time: 1 hr 35 min 9 sec) 
Heartbeat CPU 0 instructions: 112000000 cycles: 611452010 heartbeat IPC: 0.0862818 cumulative IPC: 0.105837 (Simulation time: 1 hr 35 min 41 sec) 
Heartbeat CPU 0 instructions: 113000000 cycles: 618793208 heartbeat IPC: 0.136218 cumulative IPC: 0.106213 (Simulation time: 1 hr 36 min 9 sec) 
Heartbeat CPU 0 instructions: 114000002 cycles: 626935464 heartbeat IPC: 0.122816 cumulative IPC: 0.106438 (Simulation time: 1 hr 36 min 37 sec) 
Heartbeat CPU 0 instructions: 115000000 cycles: 640283833 heartbeat IPC: 0.0749154 cumulative IPC: 0.105753 (Simulation time: 1 hr 37 min 9 sec) 
Heartbeat CPU 0 instructions: 116000000 cycles: 651731480 heartbeat IPC: 0.0873542 cumulative IPC: 0.105417 (Simulation time: 1 hr 37 min 37 sec) 
Heartbeat CPU 0 instructions: 117000003 cycles: 660059418 heartbeat IPC: 0.120078 cumulative IPC: 0.105609 (Simulation time: 1 hr 38 min 0 sec) 
Heartbeat CPU 0 instructions: 118000000 cycles: 668418400 heartbeat IPC: 0.119631 cumulative IPC: 0.105791 (Simulation time: 1 hr 38 min 19 sec) 
Heartbeat CPU 0 instructions: 119000001 cycles: 677758097 heartbeat IPC: 0.10707 cumulative IPC: 0.10581 (Simulation time: 1 hr 38 min 36 sec) 
Heartbeat CPU 0 instructions: 120000000 cycles: 692157884 heartbeat IPC: 0.0694454 cumulative IPC: 0.105024 (Simulation time: 1 hr 38 min 57 sec) 
Heartbeat CPU 0 instructions: 121000000 cycles: 700113623 heartbeat IPC: 0.125695 cumulative IPC: 0.105268 (Simulation time: 1 hr 39 min 13 sec) 
Heartbeat CPU 0 instructions: 122000001 cycles: 708521042 heartbeat IPC: 0.118943 cumulative IPC: 0.105436 (Simulation time: 1 hr 39 min 26 sec) 
Heartbeat CPU 0 instructions: 123000002 cycles: 717340011 heartbeat IPC: 0.113392 cumulative IPC: 0.105538 (Simulation time: 1 hr 39 min 41 sec) 
Heartbeat CPU 0 instructions: 124000000 cycles: 733207594 heartbeat IPC: 0.0630214 cumulative IPC: 0.104584 (Simulation time: 1 hr 40 min 0 sec) 
Heartbeat CPU 0 instructions: 125000001 cycles: 742161472 heartbeat IPC: 0.111684 cumulative IPC: 0.104673 (Simulation time: 1 hr 40 min 13 sec) 
Heartbeat CPU 0 instructions: 126000000 cycles: 750696774 heartbeat IPC: 0.11716 cumulative IPC: 0.10482 (Simulation time: 1 hr 40 min 25 sec) 
Heartbeat CPU 0 instructions: 127000002 cycles: 758779663 heartbeat IPC: 0.123718 cumulative IPC: 0.105028 (Simulation time: 1 hr 40 min 35 sec) 
Heartbeat CPU 0 instructions: 128000000 cycles: 770880782 heartbeat IPC: 0.0826368 cumulative IPC: 0.104665 (Simulation time: 1 hr 40 min 46 sec) 
Heartbeat CPU 0 instructions: 129000001 cycles: 784049312 heartbeat IPC: 0.0759387 cumulative IPC: 0.104166 (Simulation time: 1 hr 40 min 57 sec) 
Heartbeat CPU 0 instructions: 130000003 cycles: 792435216 heartbeat IPC: 0.119248 cumulative IPC: 0.104331 (Simulation time: 1 hr 41 min 5 sec) 
Heartbeat CPU 0 instructions: 131000000 cycles: 799487455 heartbeat IPC: 0.141799 cumulative IPC: 0.104672 (Simulation time: 1 hr 41 min 12 sec) 
Heartbeat CPU 0 instructions: 132000000 cycles: 811218990 heartbeat IPC: 0.0852403 cumulative IPC: 0.104382 (Simulation time: 1 hr 41 min 21 sec) 
Heartbeat CPU 0 instructions: 133000002 cycles: 823197499 heartbeat IPC: 0.083483 cumulative IPC: 0.104068 (Simulation time: 1 hr 41 min 30 sec) 
Heartbeat CPU 0 instructions: 134000003 cycles: 830449303 heartbeat IPC: 0.137897 cumulative IPC: 0.104373 (Simulation time: 1 hr 41 min 37 sec) 
Heartbeat CPU 0 instructions: 135000000 cycles: 836955942 heartbeat IPC: 0.153689 cumulative IPC: 0.104769 (Simulation time: 1 hr 41 min 44 sec) 
Heartbeat CPU 0 instructions: 136000000 cycles: 849375505 heartbeat IPC: 0.0805181 cumulative IPC: 0.104403 (Simulation time: 1 hr 41 min 53 sec) 
Heartbeat CPU 0 instructions: 137000000 cycles: 860808682 heartbeat IPC: 0.0874647 cumulative IPC: 0.104171 (Simulation time: 1 hr 42 min 1 sec) 
Heartbeat CPU 0 instructions: 138000000 cycles: 869429380 heartbeat IPC: 0.116 cumulative IPC: 0.104292 (Simulation time: 1 hr 42 min 9 sec) 
Heartbeat CPU 0 instructions: 139000001 cycles: 877780925 heartbeat IPC: 0.119738 cumulative IPC: 0.104443 (Simulation time: 1 hr 42 min 16 sec) 
Heartbeat CPU 0 instructions: 140000000 cycles: 886413867 heartbeat IPC: 0.115835 cumulative IPC: 0.104558 (Simulation time: 1 hr 42 min 23 sec) 
Heartbeat CPU 0 instructions: 141000000 cycles: 902207281 heartbeat IPC: 0.0633175 cumulative IPC: 0.103815 (Simulation time: 1 hr 42 min 34 sec) 
Heartbeat CPU 0 instructions: 142000000 cycles: 910033410 heartbeat IPC: 0.127777 cumulative IPC: 0.104027 (Simulation time: 1 hr 42 min 41 sec) 
Heartbeat CPU 0 instructions: 143000000 cycles: 917946121 heartbeat IPC: 0.126379 cumulative IPC: 0.104225 (Simulation time: 1 hr 42 min 48 sec) 
Heartbeat CPU 0 instructions: 144000000 cycles: 925883044 heartbeat IPC: 0.125993 cumulative IPC: 0.104417 (Simulation time: 1 hr 42 min 56 sec) 
Heartbeat CPU 0 instructions: 145000003 cycles: 941104402 heartbeat IPC: 0.0656974 cumulative IPC: 0.103773 (Simulation time: 1 hr 43 min 6 sec) 
Heartbeat CPU 0 instructions: 146000000 cycles: 949753065 heartbeat IPC: 0.115624 cumulative IPC: 0.103884 (Simulation time: 1 hr 43 min 13 sec) 
Heartbeat CPU 0 instructions: 147000000 cycles: 957924828 heartbeat IPC: 0.122373 cumulative IPC: 0.104046 (Simulation time: 1 hr 43 min 20 sec) 
Heartbeat CPU 0 instructions: 148000000 cycles: 966379461 heartbeat IPC: 0.118278 cumulative IPC: 0.104174 (Simulation time: 1 hr 43 min 28 sec) 
Heartbeat CPU 0 instructions: 149000001 cycles: 979541034 heartbeat IPC: 0.0759788 cumulative IPC: 0.103785 (Simulation time: 1 hr 43 min 37 sec) 
Heartbeat CPU 0 instructions: 150000000 cycles: 990934584 heartbeat IPC: 0.0877689 cumulative IPC: 0.103596 (Simulation time: 1 hr 43 min 46 sec) 
Finished CPU 0 instructions: 100000000 cycles: 965290135 cummulative IPC: 0.103596 (Simulation time: 1 hr 43 min 46 sec) 

ChampSim completed all CPUs

Region of Interest Statistics

CPU 0 cummulative IPC: 0.103596 instructions: 100000000 cycles: 965290135
LLC TOTAL     ACCESS:   21110135  HIT:   10263872  MISS:   10846263
LLC LOAD      ACCESS:    9532070  HIT:    5457596  MISS:    4074474
LLC RFO       ACCESS:     168908  HIT:      43196  MISS:     125712
LLC PREFETCH  ACCESS:    9550747  HIT:    3429832  MISS:    6120915
LLC WRITEBACK ACCESS:    1858410  HIT:    1333248  MISS:     525162
OPTgen accesses: 241815
OPTgen hits: 203595
OPTgen hit rate: 84.1945


