
*** ChampSim Multicore Out-of-Order Simulator ***

Warmup Instructions: 50000000
Simulation Instructions: 100000000
Configuration: 2
Number of CPUs: 1
LLC sets: 2048
LLC ways: 16
Off-chip DRAM Channels: 1 Width: 64-bit Data Rate: 1600 MT/s

CPU 0 runs /datasets/cs240c-wi22-a00-public/data/Assignment2-gz/soplex_205B.trace.gz
CPU 0 L1D next line prefetcher
CPU 0 L2C IP-based stride prefetcher
Initialize Hawkeye state
Heartbeat CPU 0 instructions: 1000000 cycles: 395620 heartbeat IPC: 2.52768 cumulative IPC: 2.52768 (Simulation time: 0 hr 0 min 32 sec) 
Heartbeat CPU 0 instructions: 2000002 cycles: 928717 heartbeat IPC: 1.87583 cumulative IPC: 2.15351 (Simulation time: 0 hr 0 min 59 sec) 
Heartbeat CPU 0 instructions: 3000000 cycles: 1400487 heartbeat IPC: 2.11967 cumulative IPC: 2.14211 (Simulation time: 0 hr 1 min 35 sec) 
Heartbeat CPU 0 instructions: 4000000 cycles: 1761654 heartbeat IPC: 2.7688 cumulative IPC: 2.27059 (Simulation time: 0 hr 2 min 6 sec) 
Heartbeat CPU 0 instructions: 5000003 cycles: 2205047 heartbeat IPC: 2.25534 cumulative IPC: 2.26753 (Simulation time: 0 hr 2 min 38 sec) 
Heartbeat CPU 0 instructions: 6000003 cycles: 2624714 heartbeat IPC: 2.38284 cumulative IPC: 2.28596 (Simulation time: 0 hr 3 min 16 sec) 
Heartbeat CPU 0 instructions: 7000000 cycles: 3009148 heartbeat IPC: 2.60122 cumulative IPC: 2.32624 (Simulation time: 0 hr 3 min 46 sec) 
Heartbeat CPU 0 instructions: 8000000 cycles: 3401642 heartbeat IPC: 2.54781 cumulative IPC: 2.35181 (Simulation time: 0 hr 4 min 17 sec) 
Heartbeat CPU 0 instructions: 9000003 cycles: 3924161 heartbeat IPC: 1.91381 cumulative IPC: 2.29348 (Simulation time: 0 hr 4 min 49 sec) 
Heartbeat CPU 0 instructions: 10000000 cycles: 4409440 heartbeat IPC: 2.06066 cumulative IPC: 2.26786 (Simulation time: 0 hr 5 min 24 sec) 
Heartbeat CPU 0 instructions: 11000001 cycles: 4779376 heartbeat IPC: 2.70317 cumulative IPC: 2.30156 (Simulation time: 0 hr 5 min 56 sec) 
Heartbeat CPU 0 instructions: 12000000 cycles: 5216270 heartbeat IPC: 2.28888 cumulative IPC: 2.30049 (Simulation time: 0 hr 6 min 35 sec) 
Heartbeat CPU 0 instructions: 13000001 cycles: 5638662 heartbeat IPC: 2.36747 cumulative IPC: 2.30551 (Simulation time: 0 hr 7 min 11 sec) 
Heartbeat CPU 0 instructions: 14000003 cycles: 6022984 heartbeat IPC: 2.60199 cumulative IPC: 2.32443 (Simulation time: 0 hr 7 min 43 sec) 
Heartbeat CPU 0 instructions: 15000000 cycles: 6433728 heartbeat IPC: 2.4346 cumulative IPC: 2.33146 (Simulation time: 0 hr 8 min 8 sec) 
Heartbeat CPU 0 instructions: 16000000 cycles: 6965771 heartbeat IPC: 1.87955 cumulative IPC: 2.29695 (Simulation time: 0 hr 8 min 43 sec) 
Heartbeat CPU 0 instructions: 17000001 cycles: 7522142 heartbeat IPC: 1.79736 cumulative IPC: 2.25999 (Simulation time: 0 hr 9 min 22 sec) 
Heartbeat CPU 0 instructions: 18000000 cycles: 8034196 heartbeat IPC: 1.95292 cumulative IPC: 2.24042 (Simulation time: 0 hr 9 min 58 sec) 
Heartbeat CPU 0 instructions: 19000002 cycles: 8709441 heartbeat IPC: 1.48095 cumulative IPC: 2.18154 (Simulation time: 0 hr 10 min 40 sec) 
Heartbeat CPU 0 instructions: 20000000 cycles: 9465532 heartbeat IPC: 1.32259 cumulative IPC: 2.11293 (Simulation time: 0 hr 11 min 18 sec) 
Heartbeat CPU 0 instructions: 21000001 cycles: 9911853 heartbeat IPC: 2.24054 cumulative IPC: 2.11868 (Simulation time: 0 hr 11 min 58 sec) 
Heartbeat CPU 0 instructions: 22000000 cycles: 10357197 heartbeat IPC: 2.24545 cumulative IPC: 2.12413 (Simulation time: 0 hr 12 min 35 sec) 
Heartbeat CPU 0 instructions: 23000000 cycles: 10798932 heartbeat IPC: 2.2638 cumulative IPC: 2.12984 (Simulation time: 0 hr 13 min 13 sec) 
Heartbeat CPU 0 instructions: 24000000 cycles: 11300283 heartbeat IPC: 1.99461 cumulative IPC: 2.12384 (Simulation time: 0 hr 13 min 59 sec) 
Heartbeat CPU 0 instructions: 25000002 cycles: 11841325 heartbeat IPC: 1.84829 cumulative IPC: 2.11125 (Simulation time: 0 hr 14 min 38 sec) 
Heartbeat CPU 0 instructions: 26000002 cycles: 12480908 heartbeat IPC: 1.56352 cumulative IPC: 2.08318 (Simulation time: 0 hr 15 min 28 sec) 
Heartbeat CPU 0 instructions: 27000003 cycles: 13067760 heartbeat IPC: 1.70401 cumulative IPC: 2.06615 (Simulation time: 0 hr 16 min 10 sec) 
Heartbeat CPU 0 instructions: 28000000 cycles: 13837811 heartbeat IPC: 1.29861 cumulative IPC: 2.02344 (Simulation time: 0 hr 16 min 53 sec) 
Heartbeat CPU 0 instructions: 29000002 cycles: 14419670 heartbeat IPC: 1.71863 cumulative IPC: 2.01114 (Simulation time: 0 hr 17 min 27 sec) 
Heartbeat CPU 0 instructions: 30000003 cycles: 14839990 heartbeat IPC: 2.37914 cumulative IPC: 2.02156 (Simulation time: 0 hr 17 min 58 sec) 
Heartbeat CPU 0 instructions: 31000003 cycles: 15306422 heartbeat IPC: 2.14394 cumulative IPC: 2.02529 (Simulation time: 0 hr 18 min 31 sec) 
Heartbeat CPU 0 instructions: 32000000 cycles: 15813701 heartbeat IPC: 1.9713 cumulative IPC: 2.02356 (Simulation time: 0 hr 19 min 10 sec) 
Heartbeat CPU 0 instructions: 33000000 cycles: 16347033 heartbeat IPC: 1.875 cumulative IPC: 2.01871 (Simulation time: 0 hr 19 min 45 sec) 
Heartbeat CPU 0 instructions: 34000003 cycles: 16846361 heartbeat IPC: 2.0027 cumulative IPC: 2.01824 (Simulation time: 0 hr 20 min 25 sec) 
Heartbeat CPU 0 instructions: 35000003 cycles: 17214259 heartbeat IPC: 2.71814 cumulative IPC: 2.0332 (Simulation time: 0 hr 21 min 2 sec) 
Heartbeat CPU 0 instructions: 36000000 cycles: 17655766 heartbeat IPC: 2.26496 cumulative IPC: 2.03899 (Simulation time: 0 hr 21 min 33 sec) 
Heartbeat CPU 0 instructions: 37000000 cycles: 18076887 heartbeat IPC: 2.37461 cumulative IPC: 2.04681 (Simulation time: 0 hr 22 min 8 sec) 
Heartbeat CPU 0 instructions: 38000003 cycles: 18460918 heartbeat IPC: 2.60396 cumulative IPC: 2.0584 (Simulation time: 0 hr 22 min 41 sec) 
Heartbeat CPU 0 instructions: 39000003 cycles: 18851404 heartbeat IPC: 2.56091 cumulative IPC: 2.06881 (Simulation time: 0 hr 23 min 9 sec) 
Heartbeat CPU 0 instructions: 40000000 cycles: 19375484 heartbeat IPC: 1.9081 cumulative IPC: 2.06446 (Simulation time: 0 hr 23 min 41 sec) 
Heartbeat CPU 0 instructions: 41000000 cycles: 19771041 heartbeat IPC: 2.52808 cumulative IPC: 2.07374 (Simulation time: 0 hr 24 min 20 sec) 
Heartbeat CPU 0 instructions: 42000001 cycles: 20189337 heartbeat IPC: 2.39065 cumulative IPC: 2.08031 (Simulation time: 0 hr 24 min 50 sec) 
Heartbeat CPU 0 instructions: 43000001 cycles: 20613982 heartbeat IPC: 2.35491 cumulative IPC: 2.08596 (Simulation time: 0 hr 25 min 28 sec) 
Heartbeat CPU 0 instructions: 44000000 cycles: 21013219 heartbeat IPC: 2.50478 cumulative IPC: 2.09392 (Simulation time: 0 hr 25 min 56 sec) 
Heartbeat CPU 0 instructions: 45000001 cycles: 21397919 heartbeat IPC: 2.59943 cumulative IPC: 2.10301 (Simulation time: 0 hr 26 min 22 sec) 
Heartbeat CPU 0 instructions: 46000000 cycles: 21882985 heartbeat IPC: 2.06157 cumulative IPC: 2.10209 (Simulation time: 0 hr 26 min 48 sec) 
Heartbeat CPU 0 instructions: 47000000 cycles: 22338683 heartbeat IPC: 2.19444 cumulative IPC: 2.10397 (Simulation time: 0 hr 27 min 22 sec) 
Heartbeat CPU 0 instructions: 48000000 cycles: 22780478 heartbeat IPC: 2.26349 cumulative IPC: 2.10707 (Simulation time: 0 hr 27 min 51 sec) 
Heartbeat CPU 0 instructions: 49000001 cycles: 23196062 heartbeat IPC: 2.40625 cumulative IPC: 2.11243 (Simulation time: 0 hr 28 min 22 sec) 
Heartbeat CPU 0 instructions: 50000003 cycles: 23617357 heartbeat IPC: 2.37364 cumulative IPC: 2.11709 (Simulation time: 0 hr 28 min 56 sec) 

Warmup complete CPU 0 instructions: 50000003 cycles: 23617357 (Simulation time: 0 hr 28 min 56 sec) 

Heartbeat CPU 0 instructions: 51000003 cycles: 25870446 heartbeat IPC: 0.443835 cumulative IPC: 0.443835 (Simulation time: 0 hr 29 min 36 sec) 
Heartbeat CPU 0 instructions: 52000000 cycles: 26985299 heartbeat IPC: 0.896977 cumulative IPC: 0.593834 (Simulation time: 0 hr 30 min 5 sec) 
Heartbeat CPU 0 instructions: 53000003 cycles: 30176110 heartbeat IPC: 0.313401 cumulative IPC: 0.457404 (Simulation time: 0 hr 30 min 49 sec) 
Heartbeat CPU 0 instructions: 54000001 cycles: 33487776 heartbeat IPC: 0.301962 cumulative IPC: 0.405251 (Simulation time: 0 hr 31 min 44 sec) 
Heartbeat CPU 0 instructions: 55000001 cycles: 36537109 heartbeat IPC: 0.327941 cumulative IPC: 0.387004 (Simulation time: 0 hr 32 min 28 sec) 
Heartbeat CPU 0 instructions: 56000000 cycles: 38338130 heartbeat IPC: 0.55524 cumulative IPC: 0.407587 (Simulation time: 0 hr 33 min 4 sec) 
Heartbeat CPU 0 instructions: 57000000 cycles: 41634905 heartbeat IPC: 0.303327 cumulative IPC: 0.38851 (Simulation time: 0 hr 33 min 50 sec) 
Heartbeat CPU 0 instructions: 58000000 cycles: 43767961 heartbeat IPC: 0.468811 cumulative IPC: 0.39701 (Simulation time: 0 hr 34 min 30 sec) 
Heartbeat CPU 0 instructions: 59000001 cycles: 44870132 heartbeat IPC: 0.907301 cumulative IPC: 0.423474 (Simulation time: 0 hr 34 min 56 sec) 
Heartbeat CPU 0 instructions: 60000000 cycles: 48127239 heartbeat IPC: 0.307021 cumulative IPC: 0.407999 (Simulation time: 0 hr 35 min 39 sec) 
Heartbeat CPU 0 instructions: 61000003 cycles: 51414033 heartbeat IPC: 0.304249 cumulative IPC: 0.395731 (Simulation time: 0 hr 36 min 24 sec) 
Heartbeat CPU 0 instructions: 62000002 cycles: 54603006 heartbeat IPC: 0.31358 cumulative IPC: 0.387276 (Simulation time: 0 hr 37 min 8 sec) 
Heartbeat CPU 0 instructions: 63000001 cycles: 56178031 heartbeat IPC: 0.63491 cumulative IPC: 0.399255 (Simulation time: 0 hr 37 min 46 sec) 
Heartbeat CPU 0 instructions: 64000000 cycles: 59861147 heartbeat IPC: 0.271509 cumulative IPC: 0.386273 (Simulation time: 0 hr 38 min 36 sec) 
Heartbeat CPU 0 instructions: 65000001 cycles: 61634301 heartbeat IPC: 0.563967 cumulative IPC: 0.394561 (Simulation time: 0 hr 39 min 2 sec) 
Heartbeat CPU 0 instructions: 66000000 cycles: 62727321 heartbeat IPC: 0.914895 cumulative IPC: 0.409103 (Simulation time: 0 hr 39 min 37 sec) 
Heartbeat CPU 0 instructions: 67000003 cycles: 65735916 heartbeat IPC: 0.332382 cumulative IPC: 0.403623 (Simulation time: 0 hr 40 min 18 sec) 
Heartbeat CPU 0 instructions: 68000000 cycles: 69015848 heartbeat IPC: 0.304883 cumulative IPC: 0.396489 (Simulation time: 0 hr 41 min 3 sec) 
Heartbeat CPU 0 instructions: 69000001 cycles: 71903096 heartbeat IPC: 0.346351 cumulative IPC: 0.393491 (Simulation time: 0 hr 41 min 47 sec) 
Heartbeat CPU 0 instructions: 70000000 cycles: 73718089 heartbeat IPC: 0.550966 cumulative IPC: 0.399196 (Simulation time: 0 hr 42 min 22 sec) 
Heartbeat CPU 0 instructions: 71000001 cycles: 77066391 heartbeat IPC: 0.298659 cumulative IPC: 0.392898 (Simulation time: 0 hr 43 min 10 sec) 
Heartbeat CPU 0 instructions: 72000000 cycles: 79198252 heartbeat IPC: 0.469073 cumulative IPC: 0.395819 (Simulation time: 0 hr 43 min 42 sec) 
Heartbeat CPU 0 instructions: 73000000 cycles: 80304912 heartbeat IPC: 0.90362 cumulative IPC: 0.405733 (Simulation time: 0 hr 44 min 6 sec) 
Heartbeat CPU 0 instructions: 74000001 cycles: 83273733 heartbeat IPC: 0.336834 cumulative IPC: 0.402304 (Simulation time: 0 hr 44 min 44 sec) 
Heartbeat CPU 0 instructions: 75000003 cycles: 86555435 heartbeat IPC: 0.304721 cumulative IPC: 0.397216 (Simulation time: 0 hr 45 min 30 sec) 
Heartbeat CPU 0 instructions: 76000000 cycles: 89871657 heartbeat IPC: 0.301547 cumulative IPC: 0.392427 (Simulation time: 0 hr 46 min 16 sec) 
Heartbeat CPU 0 instructions: 77000000 cycles: 91401006 heartbeat IPC: 0.653873 cumulative IPC: 0.398326 (Simulation time: 0 hr 47 min 2 sec) 
Heartbeat CPU 0 instructions: 78000000 cycles: 95175846 heartbeat IPC: 0.264912 cumulative IPC: 0.391288 (Simulation time: 0 hr 48 min 10 sec) 
Heartbeat CPU 0 instructions: 79000002 cycles: 96862151 heartbeat IPC: 0.593014 cumulative IPC: 0.395933 (Simulation time: 0 hr 48 min 36 sec) 
Heartbeat CPU 0 instructions: 80000000 cycles: 97952774 heartbeat IPC: 0.916905 cumulative IPC: 0.403576 (Simulation time: 0 hr 49 min 4 sec) 
Heartbeat CPU 0 instructions: 81000000 cycles: 101149722 heartbeat IPC: 0.312798 cumulative IPC: 0.399833 (Simulation time: 0 hr 49 min 43 sec) 
Heartbeat CPU 0 instructions: 82000000 cycles: 104470701 heartbeat IPC: 0.301116 cumulative IPC: 0.395778 (Simulation time: 0 hr 50 min 28 sec) 
Heartbeat CPU 0 instructions: 83000000 cycles: 107767305 heartbeat IPC: 0.303342 cumulative IPC: 0.392157 (Simulation time: 0 hr 51 min 11 sec) 
Heartbeat CPU 0 instructions: 84000000 cycles: 109400598 heartbeat IPC: 0.61226 cumulative IPC: 0.396348 (Simulation time: 0 hr 51 min 46 sec) 
Heartbeat CPU 0 instructions: 85000000 cycles: 113215521 heartbeat IPC: 0.262129 cumulative IPC: 0.390633 (Simulation time: 0 hr 52 min 44 sec) 
Heartbeat CPU 0 instructions: 86000002 cycles: 114553590 heartbeat IPC: 0.747347 cumulative IPC: 0.395882 (Simulation time: 0 hr 53 min 12 sec) 
Heartbeat CPU 0 instructions: 87000002 cycles: 115638996 heartbeat IPC: 0.921314 cumulative IPC: 0.402079 (Simulation time: 0 hr 53 min 38 sec) 
Heartbeat CPU 0 instructions: 88000000 cycles: 118871563 heartbeat IPC: 0.309351 cumulative IPC: 0.398932 (Simulation time: 0 hr 54 min 26 sec) 
Heartbeat CPU 0 instructions: 89000001 cycles: 122510899 heartbeat IPC: 0.274776 cumulative IPC: 0.394363 (Simulation time: 0 hr 55 min 17 sec) 
Heartbeat CPU 0 instructions: 90000001 cycles: 125549208 heartbeat IPC: 0.32913 cumulative IPC: 0.392419 (Simulation time: 0 hr 55 min 56 sec) 
Heartbeat CPU 0 instructions: 91000003 cycles: 127356297 heartbeat IPC: 0.553377 cumulative IPC: 0.395223 (Simulation time: 0 hr 56 min 35 sec) 
Heartbeat CPU 0 instructions: 92000000 cycles: 130977374 heartbeat IPC: 0.27616 cumulative IPC: 0.391207 (Simulation time: 0 hr 57 min 19 sec) 
Heartbeat CPU 0 instructions: 93000000 cycles: 132161362 heartbeat IPC: 0.844603 cumulative IPC: 0.396153 (Simulation time: 0 hr 57 min 44 sec) 
Heartbeat CPU 0 instructions: 94000000 cycles: 133437963 heartbeat IPC: 0.78333 cumulative IPC: 0.400653 (Simulation time: 0 hr 58 min 14 sec) 
Heartbeat CPU 0 instructions: 95000002 cycles: 136916068 heartbeat IPC: 0.287513 cumulative IPC: 0.39718 (Simulation time: 0 hr 58 min 55 sec) 
Heartbeat CPU 0 instructions: 96000000 cycles: 139860833 heartbeat IPC: 0.339585 cumulative IPC: 0.395721 (Simulation time: 0 hr 59 min 46 sec) 
Heartbeat CPU 0 instructions: 97000003 cycles: 142565229 heartbeat IPC: 0.369769 cumulative IPC: 0.395131 (Simulation time: 1 hr 0 min 26 sec) 
Heartbeat CPU 0 instructions: 98000003 cycles: 144822877 heartbeat IPC: 0.442939 cumulative IPC: 0.396022 (Simulation time: 1 hr 1 min 6 sec) 
Heartbeat CPU 0 instructions: 99000000 cycles: 148029058 heartbeat IPC: 0.311897 cumulative IPC: 0.393854 (Simulation time: 1 hr 1 min 48 sec) 
Heartbeat CPU 0 instructions: 100000000 cycles: 149195894 heartbeat IPC: 0.857018 cumulative IPC: 0.398157 (Simulation time: 1 hr 2 min 16 sec) 
Heartbeat CPU 0 instructions: 101000003 cycles: 151077413 heartbeat IPC: 0.531487 cumulative IPC: 0.400125 (Simulation time: 1 hr 2 min 52 sec) 
Heartbeat CPU 0 instructions: 102000002 cycles: 154452473 heartbeat IPC: 0.296291 cumulative IPC: 0.397447 (Simulation time: 1 hr 3 min 35 sec) 
Heartbeat CPU 0 instructions: 103000000 cycles: 156585646 heartbeat IPC: 0.468784 cumulative IPC: 0.398591 (Simulation time: 1 hr 4 min 17 sec) 
Heartbeat CPU 0 instructions: 104000000 cycles: 165261658 heartbeat IPC: 0.11526 cumulative IPC: 0.381237 (Simulation time: 1 hr 5 min 14 sec) 
Heartbeat CPU 0 instructions: 105000000 cycles: 167295914 heartbeat IPC: 0.49158 cumulative IPC: 0.382799 (Simulation time: 1 hr 6 min 2 sec) 
Heartbeat CPU 0 instructions: 106000002 cycles: 171438455 heartbeat IPC: 0.241398 cumulative IPC: 0.378836 (Simulation time: 1 hr 6 min 57 sec) 
Heartbeat CPU 0 instructions: 107000003 cycles: 175735538 heartbeat IPC: 0.232716 cumulative IPC: 0.374709 (Simulation time: 1 hr 7 min 47 sec) 
Heartbeat CPU 0 instructions: 108000000 cycles: 179062006 heartbeat IPC: 0.300618 cumulative IPC: 0.373123 (Simulation time: 1 hr 8 min 38 sec) 
Heartbeat CPU 0 instructions: 109000000 cycles: 182473504 heartbeat IPC: 0.293126 cumulative IPC: 0.371405 (Simulation time: 1 hr 9 min 27 sec) 
Heartbeat CPU 0 instructions: 110000003 cycles: 186076935 heartbeat IPC: 0.277514 cumulative IPC: 0.369323 (Simulation time: 1 hr 10 min 5 sec) 
Heartbeat CPU 0 instructions: 111000002 cycles: 189634576 heartbeat IPC: 0.281085 cumulative IPC: 0.367432 (Simulation time: 1 hr 10 min 49 sec) 
Heartbeat CPU 0 instructions: 112000000 cycles: 192268644 heartbeat IPC: 0.37964 cumulative IPC: 0.367622 (Simulation time: 1 hr 11 min 38 sec) 
Heartbeat CPU 0 instructions: 113000001 cycles: 195623725 heartbeat IPC: 0.298056 cumulative IPC: 0.366266 (Simulation time: 1 hr 12 min 24 sec) 
Heartbeat CPU 0 instructions: 114000000 cycles: 197599794 heartbeat IPC: 0.506055 cumulative IPC: 0.367853 (Simulation time: 1 hr 13 min 0 sec) 
Heartbeat CPU 0 instructions: 115000002 cycles: 198888568 heartbeat IPC: 0.775933 cumulative IPC: 0.370854 (Simulation time: 1 hr 13 min 34 sec) 
Heartbeat CPU 0 instructions: 116000000 cycles: 200279612 heartbeat IPC: 0.718883 cumulative IPC: 0.373594 (Simulation time: 1 hr 14 min 12 sec) 
Heartbeat CPU 0 instructions: 117000001 cycles: 202864491 heartbeat IPC: 0.386866 cumulative IPC: 0.373786 (Simulation time: 1 hr 14 min 51 sec) 
Heartbeat CPU 0 instructions: 118000002 cycles: 205672305 heartbeat IPC: 0.356149 cumulative IPC: 0.373514 (Simulation time: 1 hr 15 min 36 sec) 
Heartbeat CPU 0 instructions: 119000001 cycles: 207632602 heartbeat IPC: 0.510126 cumulative IPC: 0.374969 (Simulation time: 1 hr 16 min 12 sec) 
Heartbeat CPU 0 instructions: 120000000 cycles: 210339741 heartbeat IPC: 0.369393 cumulative IPC: 0.374888 (Simulation time: 1 hr 16 min 46 sec) 
Heartbeat CPU 0 instructions: 121000000 cycles: 212073498 heartbeat IPC: 0.576782 cumulative IPC: 0.376745 (Simulation time: 1 hr 17 min 21 sec) 
Heartbeat CPU 0 instructions: 122000000 cycles: 215915845 heartbeat IPC: 0.260258 cumulative IPC: 0.374418 (Simulation time: 1 hr 18 min 3 sec) 
Heartbeat CPU 0 instructions: 123000001 cycles: 217129286 heartbeat IPC: 0.824104 cumulative IPC: 0.377238 (Simulation time: 1 hr 18 min 27 sec) 
Heartbeat CPU 0 instructions: 124000000 cycles: 218357352 heartbeat IPC: 0.814288 cumulative IPC: 0.379994 (Simulation time: 1 hr 18 min 52 sec) 
Heartbeat CPU 0 instructions: 125000000 cycles: 221333257 heartbeat IPC: 0.336032 cumulative IPC: 0.379332 (Simulation time: 1 hr 19 min 27 sec) 
Heartbeat CPU 0 instructions: 126000000 cycles: 225349251 heartbeat IPC: 0.249004 cumulative IPC: 0.376738 (Simulation time: 1 hr 20 min 12 sec) 
Heartbeat CPU 0 instructions: 127000003 cycles: 227724537 heartbeat IPC: 0.421003 cumulative IPC: 0.377253 (Simulation time: 1 hr 20 min 41 sec) 
Heartbeat CPU 0 instructions: 128000000 cycles: 230555492 heartbeat IPC: 0.353237 cumulative IPC: 0.376924 (Simulation time: 1 hr 21 min 15 sec) 
Heartbeat CPU 0 instructions: 129000000 cycles: 233223163 heartbeat IPC: 0.374859 cumulative IPC: 0.376898 (Simulation time: 1 hr 21 min 47 sec) 
Heartbeat CPU 0 instructions: 130000003 cycles: 234364366 heartbeat IPC: 0.876271 cumulative IPC: 0.379602 (Simulation time: 1 hr 22 min 11 sec) 
Heartbeat CPU 0 instructions: 131000001 cycles: 236958166 heartbeat IPC: 0.385534 cumulative IPC: 0.379674 (Simulation time: 1 hr 22 min 44 sec) 
Heartbeat CPU 0 instructions: 132000000 cycles: 240262782 heartbeat IPC: 0.302607 cumulative IPC: 0.378499 (Simulation time: 1 hr 23 min 25 sec) 
Heartbeat CPU 0 instructions: 133000000 cycles: 243095141 heartbeat IPC: 0.353063 cumulative IPC: 0.37817 (Simulation time: 1 hr 24 min 2 sec) 
Heartbeat CPU 0 instructions: 134000002 cycles: 244653791 heartbeat IPC: 0.641582 cumulative IPC: 0.380028 (Simulation time: 1 hr 24 min 32 sec) 
Heartbeat CPU 0 instructions: 135000002 cycles: 248442895 heartbeat IPC: 0.263915 cumulative IPC: 0.378071 (Simulation time: 1 hr 25 min 11 sec) 
Heartbeat CPU 0 instructions: 136000000 cycles: 250212431 heartbeat IPC: 0.565119 cumulative IPC: 0.379532 (Simulation time: 1 hr 25 min 36 sec) 
Heartbeat CPU 0 instructions: 137000000 cycles: 251317493 heartbeat IPC: 0.904927 cumulative IPC: 0.382081 (Simulation time: 1 hr 25 min 54 sec) 
Heartbeat CPU 0 instructions: 138000003 cycles: 254413622 heartbeat IPC: 0.322985 cumulative IPC: 0.381289 (Simulation time: 1 hr 26 min 19 sec) 
Heartbeat CPU 0 instructions: 139000000 cycles: 257639651 heartbeat IPC: 0.309978 cumulative IPC: 0.380306 (Simulation time: 1 hr 26 min 50 sec) 
Heartbeat CPU 0 instructions: 140000000 cycles: 259744119 heartbeat IPC: 0.475179 cumulative IPC: 0.381151 (Simulation time: 1 hr 27 min 14 sec) 
Heartbeat CPU 0 instructions: 141000002 cycles: 261461104 heartbeat IPC: 0.582417 cumulative IPC: 0.382604 (Simulation time: 1 hr 27 min 38 sec) 
Heartbeat CPU 0 instructions: 142000001 cycles: 265005595 heartbeat IPC: 0.282128 cumulative IPC: 0.381129 (Simulation time: 1 hr 28 min 10 sec) 
Heartbeat CPU 0 instructions: 143000003 cycles: 266991271 heartbeat IPC: 0.503608 cumulative IPC: 0.382128 (Simulation time: 1 hr 28 min 27 sec) 
Heartbeat CPU 0 instructions: 144000000 cycles: 268093598 heartbeat IPC: 0.907169 cumulative IPC: 0.384495 (Simulation time: 1 hr 28 min 42 sec) 
Heartbeat CPU 0 instructions: 145000000 cycles: 271109873 heartbeat IPC: 0.331535 cumulative IPC: 0.38385 (Simulation time: 1 hr 29 min 9 sec) 
Heartbeat CPU 0 instructions: 146000003 cycles: 274386612 heartbeat IPC: 0.305182 cumulative IPC: 0.382822 (Simulation time: 1 hr 29 min 37 sec) 
Heartbeat CPU 0 instructions: 147000000 cycles: 276435106 heartbeat IPC: 0.488162 cumulative IPC: 0.383676 (Simulation time: 1 hr 29 min 57 sec) 
Heartbeat CPU 0 instructions: 148000000 cycles: 277938587 heartbeat IPC: 0.665123 cumulative IPC: 0.385339 (Simulation time: 1 hr 30 min 17 sec) 
Heartbeat CPU 0 instructions: 149000001 cycles: 281766134 heartbeat IPC: 0.261264 cumulative IPC: 0.3835 (Simulation time: 1 hr 30 min 46 sec) 
Heartbeat CPU 0 instructions: 150000002 cycles: 283457078 heartbeat IPC: 0.591386 cumulative IPC: 0.384853 (Simulation time: 1 hr 31 min 0 sec) 
Finished CPU 0 instructions: 100000002 cycles: 259839723 cummulative IPC: 0.384853 (Simulation time: 1 hr 31 min 0 sec) 

ChampSim completed all CPUs

Region of Interest Statistics

CPU 0 cummulative IPC: 0.384853 instructions: 100000002 cycles: 259839723
LLC TOTAL     ACCESS:    8439233  HIT:    4585699  MISS:    3853534
LLC LOAD      ACCESS:    2160718  HIT:    1002634  MISS:    1158084
LLC RFO       ACCESS:     775968  HIT:     268440  MISS:     507528
LLC PREFETCH  ACCESS:    3416661  HIT:    1590593  MISS:    1826068
LLC WRITEBACK ACCESS:    2085886  HIT:    1724032  MISS:     361854
OPTgen accesses: 69940
OPTgen hits: 50806
OPTgen hit rate: 72.6423


