
*** ChampSim Multicore Out-of-Order Simulator ***

Warmup Instructions: 50000000
Simulation Instructions: 100000000
Configuration: 2
Number of CPUs: 1
LLC sets: 2048
LLC ways: 16
Off-chip DRAM Channels: 1 Width: 64-bit Data Rate: 1600 MT/s

CPU 0 runs /datasets/cs240c-wi22-a00-public/data/Assignment2-gz/lbm_564B.trace.gz
CPU 0 L1D next line prefetcher
CPU 0 L2C IP-based stride prefetcher
Initialize Hawkeye state
Heartbeat CPU 0 instructions: 1000000 cycles: 390168 heartbeat IPC: 2.563 cumulative IPC: 2.563 (Simulation time: 0 hr 0 min 33 sec) 
Heartbeat CPU 0 instructions: 2000003 cycles: 785204 heartbeat IPC: 2.53142 cumulative IPC: 2.54711 (Simulation time: 0 hr 1 min 1 sec) 
Heartbeat CPU 0 instructions: 3000002 cycles: 1175398 heartbeat IPC: 2.56283 cumulative IPC: 2.55233 (Simulation time: 0 hr 1 min 33 sec) 
Heartbeat CPU 0 instructions: 4000000 cycles: 1565574 heartbeat IPC: 2.56294 cumulative IPC: 2.55497 (Simulation time: 0 hr 2 min 2 sec) 
Heartbeat CPU 0 instructions: 5000000 cycles: 1960690 heartbeat IPC: 2.5309 cumulative IPC: 2.55012 (Simulation time: 0 hr 2 min 31 sec) 
Heartbeat CPU 0 instructions: 6000002 cycles: 2350864 heartbeat IPC: 2.56296 cumulative IPC: 2.55225 (Simulation time: 0 hr 3 min 2 sec) 
Heartbeat CPU 0 instructions: 7000001 cycles: 2741130 heartbeat IPC: 2.56235 cumulative IPC: 2.55369 (Simulation time: 0 hr 3 min 30 sec) 
Heartbeat CPU 0 instructions: 8000000 cycles: 3136126 heartbeat IPC: 2.53167 cumulative IPC: 2.55092 (Simulation time: 0 hr 3 min 59 sec) 
Heartbeat CPU 0 instructions: 9000000 cycles: 3526365 heartbeat IPC: 2.56253 cumulative IPC: 2.5522 (Simulation time: 0 hr 4 min 28 sec) 
Heartbeat CPU 0 instructions: 10000002 cycles: 3916516 heartbeat IPC: 2.56312 cumulative IPC: 2.55329 (Simulation time: 0 hr 5 min 1 sec) 
Heartbeat CPU 0 instructions: 11000000 cycles: 4306749 heartbeat IPC: 2.56257 cumulative IPC: 2.55413 (Simulation time: 0 hr 5 min 29 sec) 
Heartbeat CPU 0 instructions: 12000000 cycles: 4701704 heartbeat IPC: 2.53193 cumulative IPC: 2.55227 (Simulation time: 0 hr 6 min 0 sec) 
Heartbeat CPU 0 instructions: 13000001 cycles: 5091909 heartbeat IPC: 2.56276 cumulative IPC: 2.55307 (Simulation time: 0 hr 6 min 32 sec) 
Heartbeat CPU 0 instructions: 14000003 cycles: 5482093 heartbeat IPC: 2.5629 cumulative IPC: 2.55377 (Simulation time: 0 hr 7 min 5 sec) 
Heartbeat CPU 0 instructions: 15000000 cycles: 5877150 heartbeat IPC: 2.53127 cumulative IPC: 2.55226 (Simulation time: 0 hr 7 min 38 sec) 
Heartbeat CPU 0 instructions: 16000000 cycles: 6267359 heartbeat IPC: 2.56273 cumulative IPC: 2.55291 (Simulation time: 0 hr 8 min 15 sec) 
Heartbeat CPU 0 instructions: 17000000 cycles: 6657556 heartbeat IPC: 2.56281 cumulative IPC: 2.55349 (Simulation time: 0 hr 8 min 47 sec) 
Heartbeat CPU 0 instructions: 18000000 cycles: 7052641 heartbeat IPC: 2.5311 cumulative IPC: 2.55224 (Simulation time: 0 hr 9 min 19 sec) 
Heartbeat CPU 0 instructions: 19000001 cycles: 7442806 heartbeat IPC: 2.56302 cumulative IPC: 2.5528 (Simulation time: 0 hr 9 min 49 sec) 
Heartbeat CPU 0 instructions: 20000000 cycles: 7832985 heartbeat IPC: 2.56292 cumulative IPC: 2.55331 (Simulation time: 0 hr 10 min 24 sec) 
Heartbeat CPU 0 instructions: 21000003 cycles: 8223168 heartbeat IPC: 2.56291 cumulative IPC: 2.55376 (Simulation time: 0 hr 10 min 57 sec) 
Heartbeat CPU 0 instructions: 22000002 cycles: 8687180 heartbeat IPC: 2.15511 cumulative IPC: 2.53247 (Simulation time: 0 hr 11 min 30 sec) 
Heartbeat CPU 0 instructions: 23000003 cycles: 9180363 heartbeat IPC: 2.02765 cumulative IPC: 2.50535 (Simulation time: 0 hr 12 min 9 sec) 
Heartbeat CPU 0 instructions: 24000000 cycles: 10024382 heartbeat IPC: 1.1848 cumulative IPC: 2.39416 (Simulation time: 0 hr 12 min 59 sec) 
Heartbeat CPU 0 instructions: 25000003 cycles: 10553046 heartbeat IPC: 1.89157 cumulative IPC: 2.36898 (Simulation time: 0 hr 13 min 41 sec) 
Heartbeat CPU 0 instructions: 26000002 cycles: 11043397 heartbeat IPC: 2.03935 cumulative IPC: 2.35435 (Simulation time: 0 hr 14 min 18 sec) 
Heartbeat CPU 0 instructions: 27000001 cycles: 11433680 heartbeat IPC: 2.56224 cumulative IPC: 2.36144 (Simulation time: 0 hr 14 min 48 sec) 
Heartbeat CPU 0 instructions: 28000000 cycles: 11824029 heartbeat IPC: 2.56181 cumulative IPC: 2.36806 (Simulation time: 0 hr 15 min 21 sec) 
Heartbeat CPU 0 instructions: 29000002 cycles: 12214334 heartbeat IPC: 2.5621 cumulative IPC: 2.37426 (Simulation time: 0 hr 15 min 54 sec) 
Heartbeat CPU 0 instructions: 30000000 cycles: 12609460 heartbeat IPC: 2.53083 cumulative IPC: 2.37917 (Simulation time: 0 hr 16 min 27 sec) 
Heartbeat CPU 0 instructions: 31000000 cycles: 12999777 heartbeat IPC: 2.56202 cumulative IPC: 2.38466 (Simulation time: 0 hr 17 min 1 sec) 
Heartbeat CPU 0 instructions: 32000000 cycles: 13390118 heartbeat IPC: 2.56186 cumulative IPC: 2.38982 (Simulation time: 0 hr 17 min 30 sec) 
Heartbeat CPU 0 instructions: 33000001 cycles: 13785267 heartbeat IPC: 2.53069 cumulative IPC: 2.39386 (Simulation time: 0 hr 17 min 57 sec) 
Heartbeat CPU 0 instructions: 34000001 cycles: 14175493 heartbeat IPC: 2.56262 cumulative IPC: 2.39851 (Simulation time: 0 hr 18 min 25 sec) 
Heartbeat CPU 0 instructions: 35000002 cycles: 14565853 heartbeat IPC: 2.56174 cumulative IPC: 2.40288 (Simulation time: 0 hr 18 min 51 sec) 
Heartbeat CPU 0 instructions: 36000000 cycles: 14956109 heartbeat IPC: 2.56242 cumulative IPC: 2.40704 (Simulation time: 0 hr 19 min 23 sec) 
Heartbeat CPU 0 instructions: 37000003 cycles: 15351206 heartbeat IPC: 2.53103 cumulative IPC: 2.41023 (Simulation time: 0 hr 19 min 52 sec) 
Heartbeat CPU 0 instructions: 38000003 cycles: 15741508 heartbeat IPC: 2.56212 cumulative IPC: 2.414 (Simulation time: 0 hr 20 min 25 sec) 
Heartbeat CPU 0 instructions: 39000002 cycles: 16131860 heartbeat IPC: 2.56179 cumulative IPC: 2.41758 (Simulation time: 0 hr 21 min 0 sec) 
Heartbeat CPU 0 instructions: 40000000 cycles: 16526886 heartbeat IPC: 2.53147 cumulative IPC: 2.4203 (Simulation time: 0 hr 21 min 37 sec) 
Heartbeat CPU 0 instructions: 41000000 cycles: 16917190 heartbeat IPC: 2.56211 cumulative IPC: 2.42357 (Simulation time: 0 hr 22 min 8 sec) 
Heartbeat CPU 0 instructions: 42000002 cycles: 17307546 heartbeat IPC: 2.56177 cumulative IPC: 2.42669 (Simulation time: 0 hr 22 min 42 sec) 
Heartbeat CPU 0 instructions: 43000001 cycles: 17702665 heartbeat IPC: 2.53088 cumulative IPC: 2.42901 (Simulation time: 0 hr 23 min 11 sec) 
Heartbeat CPU 0 instructions: 44000000 cycles: 18092954 heartbeat IPC: 2.5622 cumulative IPC: 2.43189 (Simulation time: 0 hr 23 min 40 sec) 
Heartbeat CPU 0 instructions: 45000001 cycles: 18483300 heartbeat IPC: 2.56183 cumulative IPC: 2.43463 (Simulation time: 0 hr 24 min 16 sec) 
Heartbeat CPU 0 instructions: 46000002 cycles: 18873612 heartbeat IPC: 2.56206 cumulative IPC: 2.43727 (Simulation time: 0 hr 24 min 44 sec) 
Heartbeat CPU 0 instructions: 47000002 cycles: 19268654 heartbeat IPC: 2.53138 cumulative IPC: 2.43919 (Simulation time: 0 hr 25 min 15 sec) 
Heartbeat CPU 0 instructions: 48000000 cycles: 19658980 heartbeat IPC: 2.56196 cumulative IPC: 2.44163 (Simulation time: 0 hr 25 min 44 sec) 
Heartbeat CPU 0 instructions: 49000003 cycles: 20049316 heartbeat IPC: 2.5619 cumulative IPC: 2.44397 (Simulation time: 0 hr 26 min 21 sec) 
Heartbeat CPU 0 instructions: 50000002 cycles: 20444440 heartbeat IPC: 2.53085 cumulative IPC: 2.44565 (Simulation time: 0 hr 26 min 54 sec) 

Warmup complete CPU 0 instructions: 50000002 cycles: 20444440 (Simulation time: 0 hr 26 min 54 sec) 

Heartbeat CPU 0 instructions: 51000002 cycles: 21850121 heartbeat IPC: 0.711399 cumulative IPC: 0.711399 (Simulation time: 0 hr 27 min 32 sec) 
Heartbeat CPU 0 instructions: 52000000 cycles: 23294133 heartbeat IPC: 0.692514 cumulative IPC: 0.701829 (Simulation time: 0 hr 28 min 6 sec) 
Heartbeat CPU 0 instructions: 53000001 cycles: 24723752 heartbeat IPC: 0.699488 cumulative IPC: 0.701047 (Simulation time: 0 hr 28 min 49 sec) 
Heartbeat CPU 0 instructions: 54000001 cycles: 26144126 heartbeat IPC: 0.70404 cumulative IPC: 0.701793 (Simulation time: 0 hr 29 min 30 sec) 
Heartbeat CPU 0 instructions: 55000003 cycles: 27574683 heartbeat IPC: 0.69903 cumulative IPC: 0.701239 (Simulation time: 0 hr 30 min 7 sec) 
Heartbeat CPU 0 instructions: 56000000 cycles: 29048298 heartbeat IPC: 0.678601 cumulative IPC: 0.697361 (Simulation time: 0 hr 30 min 41 sec) 
Heartbeat CPU 0 instructions: 57000001 cycles: 30525198 heartbeat IPC: 0.677095 cumulative IPC: 0.694392 (Simulation time: 0 hr 31 min 18 sec) 
Heartbeat CPU 0 instructions: 58000002 cycles: 31973524 heartbeat IPC: 0.690453 cumulative IPC: 0.693897 (Simulation time: 0 hr 31 min 55 sec) 
Heartbeat CPU 0 instructions: 59000001 cycles: 33365277 heartbeat IPC: 0.718518 cumulative IPC: 0.696549 (Simulation time: 0 hr 32 min 29 sec) 
Heartbeat CPU 0 instructions: 60000000 cycles: 34831523 heartbeat IPC: 0.682013 cumulative IPC: 0.695068 (Simulation time: 0 hr 33 min 2 sec) 
Heartbeat CPU 0 instructions: 61000003 cycles: 36341071 heartbeat IPC: 0.662452 cumulative IPC: 0.691971 (Simulation time: 0 hr 33 min 36 sec) 
Heartbeat CPU 0 instructions: 62000003 cycles: 37711302 heartbeat IPC: 0.729804 cumulative IPC: 0.694973 (Simulation time: 0 hr 34 min 15 sec) 
Heartbeat CPU 0 instructions: 63000000 cycles: 39138922 heartbeat IPC: 0.700464 cumulative IPC: 0.695392 (Simulation time: 0 hr 34 min 52 sec) 
Heartbeat CPU 0 instructions: 64000000 cycles: 40649345 heartbeat IPC: 0.662066 cumulative IPC: 0.692901 (Simulation time: 0 hr 35 min 28 sec) 
Heartbeat CPU 0 instructions: 65000003 cycles: 42158447 heartbeat IPC: 0.662648 cumulative IPC: 0.690798 (Simulation time: 0 hr 36 min 3 sec) 
Heartbeat CPU 0 instructions: 66000001 cycles: 43657303 heartbeat IPC: 0.667174 cumulative IPC: 0.689273 (Simulation time: 0 hr 36 min 39 sec) 
Heartbeat CPU 0 instructions: 67000001 cycles: 45210360 heartbeat IPC: 0.643891 cumulative IPC: 0.686427 (Simulation time: 0 hr 37 min 16 sec) 
Heartbeat CPU 0 instructions: 68000000 cycles: 46774825 heartbeat IPC: 0.639196 cumulative IPC: 0.683621 (Simulation time: 0 hr 37 min 52 sec) 
Heartbeat CPU 0 instructions: 69000003 cycles: 48214954 heartbeat IPC: 0.694384 cumulative IPC: 0.684179 (Simulation time: 0 hr 38 min 35 sec) 
Heartbeat CPU 0 instructions: 70000003 cycles: 49731122 heartbeat IPC: 0.659558 cumulative IPC: 0.682904 (Simulation time: 0 hr 39 min 13 sec) 
Heartbeat CPU 0 instructions: 71000000 cycles: 51357881 heartbeat IPC: 0.614717 cumulative IPC: 0.679316 (Simulation time: 0 hr 39 min 54 sec) 
Heartbeat CPU 0 instructions: 72000000 cycles: 52756027 heartbeat IPC: 0.715233 cumulative IPC: 0.68087 (Simulation time: 0 hr 40 min 30 sec) 
Heartbeat CPU 0 instructions: 73000003 cycles: 54153752 heartbeat IPC: 0.71545 cumulative IPC: 0.682304 (Simulation time: 0 hr 41 min 3 sec) 
Heartbeat CPU 0 instructions: 74000002 cycles: 55731519 heartbeat IPC: 0.633807 cumulative IPC: 0.680136 (Simulation time: 0 hr 41 min 40 sec) 
Heartbeat CPU 0 instructions: 75000002 cycles: 57138476 heartbeat IPC: 0.710754 cumulative IPC: 0.68131 (Simulation time: 0 hr 42 min 14 sec) 
Heartbeat CPU 0 instructions: 76000000 cycles: 58646543 heartbeat IPC: 0.663099 cumulative IPC: 0.680591 (Simulation time: 0 hr 42 min 51 sec) 
Heartbeat CPU 0 instructions: 77000001 cycles: 60288866 heartbeat IPC: 0.608894 cumulative IPC: 0.677636 (Simulation time: 0 hr 43 min 38 sec) 
Heartbeat CPU 0 instructions: 78000002 cycles: 61649366 heartbeat IPC: 0.735025 cumulative IPC: 0.67953 (Simulation time: 0 hr 44 min 16 sec) 
Heartbeat CPU 0 instructions: 79000000 cycles: 63010568 heartbeat IPC: 0.734643 cumulative IPC: 0.681293 (Simulation time: 0 hr 44 min 50 sec) 
Heartbeat CPU 0 instructions: 80000000 cycles: 64634722 heartbeat IPC: 0.615705 cumulative IPC: 0.678882 (Simulation time: 0 hr 45 min 32 sec) 
Heartbeat CPU 0 instructions: 81000003 cycles: 66127874 heartbeat IPC: 0.669726 cumulative IPC: 0.678583 (Simulation time: 0 hr 46 min 18 sec) 
Heartbeat CPU 0 instructions: 82000001 cycles: 67677680 heartbeat IPC: 0.645241 cumulative IPC: 0.677489 (Simulation time: 0 hr 46 min 57 sec) 
Heartbeat CPU 0 instructions: 83000001 cycles: 69293348 heartbeat IPC: 0.618939 cumulative IPC: 0.675552 (Simulation time: 0 hr 47 min 39 sec) 
Heartbeat CPU 0 instructions: 84000000 cycles: 70751856 heartbeat IPC: 0.685631 cumulative IPC: 0.675845 (Simulation time: 0 hr 48 min 13 sec) 
Heartbeat CPU 0 instructions: 85000002 cycles: 72100718 heartbeat IPC: 0.741367 cumulative IPC: 0.677556 (Simulation time: 0 hr 48 min 46 sec) 
Heartbeat CPU 0 instructions: 86000001 cycles: 73757331 heartbeat IPC: 0.603641 cumulative IPC: 0.675259 (Simulation time: 0 hr 49 min 23 sec) 
Heartbeat CPU 0 instructions: 87000003 cycles: 75305493 heartbeat IPC: 0.645929 cumulative IPC: 0.674431 (Simulation time: 0 hr 49 min 57 sec) 
Heartbeat CPU 0 instructions: 88000000 cycles: 76750377 heartbeat IPC: 0.692095 cumulative IPC: 0.674884 (Simulation time: 0 hr 50 min 42 sec) 
Heartbeat CPU 0 instructions: 89000003 cycles: 78403047 heartbeat IPC: 0.605083 cumulative IPC: 0.672894 (Simulation time: 0 hr 51 min 29 sec) 
Heartbeat CPU 0 instructions: 90000001 cycles: 79961403 heartbeat IPC: 0.641701 cumulative IPC: 0.672077 (Simulation time: 0 hr 52 min 9 sec) 
Heartbeat CPU 0 instructions: 91000000 cycles: 81354846 heartbeat IPC: 0.717646 cumulative IPC: 0.67312 (Simulation time: 0 hr 52 min 47 sec) 
Heartbeat CPU 0 instructions: 92000000 cycles: 82937073 heartbeat IPC: 0.632021 cumulative IPC: 0.672079 (Simulation time: 0 hr 53 min 31 sec) 
Heartbeat CPU 0 instructions: 93000003 cycles: 84514432 heartbeat IPC: 0.633973 cumulative IPC: 0.671141 (Simulation time: 0 hr 54 min 16 sec) 
Heartbeat CPU 0 instructions: 94000002 cycles: 85875505 heartbeat IPC: 0.734714 cumulative IPC: 0.672463 (Simulation time: 0 hr 54 min 50 sec) 
Heartbeat CPU 0 instructions: 95000001 cycles: 87469734 heartbeat IPC: 0.627262 cumulative IPC: 0.671388 (Simulation time: 0 hr 55 min 27 sec) 
Heartbeat CPU 0 instructions: 96000000 cycles: 89087333 heartbeat IPC: 0.6182 cumulative IPC: 0.670135 (Simulation time: 0 hr 56 min 1 sec) 
Heartbeat CPU 0 instructions: 97000002 cycles: 90507822 heartbeat IPC: 0.703984 cumulative IPC: 0.670821 (Simulation time: 0 hr 56 min 34 sec) 
Heartbeat CPU 0 instructions: 98000000 cycles: 92149020 heartbeat IPC: 0.60931 cumulative IPC: 0.669413 (Simulation time: 0 hr 57 min 13 sec) 
Heartbeat CPU 0 instructions: 99000001 cycles: 93671154 heartbeat IPC: 0.656973 cumulative IPC: 0.669155 (Simulation time: 0 hr 58 min 0 sec) 
Heartbeat CPU 0 instructions: 100000000 cycles: 95053000 heartbeat IPC: 0.723669 cumulative IPC: 0.670164 (Simulation time: 0 hr 58 min 43 sec) 
Heartbeat CPU 0 instructions: 101000002 cycles: 96733397 heartbeat IPC: 0.595099 cumulative IPC: 0.668511 (Simulation time: 0 hr 59 min 27 sec) 
Heartbeat CPU 0 instructions: 102000002 cycles: 98310443 heartbeat IPC: 0.634097 cumulative IPC: 0.667814 (Simulation time: 1 hr 0 min 7 sec) 
Heartbeat CPU 0 instructions: 103000001 cycles: 99731204 heartbeat IPC: 0.703847 cumulative IPC: 0.66846 (Simulation time: 1 hr 0 min 40 sec) 
Heartbeat CPU 0 instructions: 104000000 cycles: 101410989 heartbeat IPC: 0.595314 cumulative IPC: 0.666942 (Simulation time: 1 hr 1 min 16 sec) 
Heartbeat CPU 0 instructions: 105000001 cycles: 102982688 heartbeat IPC: 0.636255 cumulative IPC: 0.666358 (Simulation time: 1 hr 1 min 51 sec) 
Heartbeat CPU 0 instructions: 106000001 cycles: 104455216 heartbeat IPC: 0.679104 cumulative IPC: 0.666581 (Simulation time: 1 hr 2 min 29 sec) 
Heartbeat CPU 0 instructions: 107000001 cycles: 106137018 heartbeat IPC: 0.5946 cumulative IPC: 0.665168 (Simulation time: 1 hr 3 min 13 sec) 
Heartbeat CPU 0 instructions: 108000000 cycles: 107677563 heartbeat IPC: 0.64912 cumulative IPC: 0.664885 (Simulation time: 1 hr 3 min 47 sec) 
Heartbeat CPU 0 instructions: 109000003 cycles: 109044171 heartbeat IPC: 0.731741 cumulative IPC: 0.665916 (Simulation time: 1 hr 4 min 20 sec) 
Heartbeat CPU 0 instructions: 110000001 cycles: 110734046 heartbeat IPC: 0.591759 cumulative IPC: 0.664528 (Simulation time: 1 hr 5 min 1 sec) 
Heartbeat CPU 0 instructions: 111000002 cycles: 112280028 heartbeat IPC: 0.646839 cumulative IPC: 0.664231 (Simulation time: 1 hr 5 min 41 sec) 
Heartbeat CPU 0 instructions: 112000000 cycles: 113793204 heartbeat IPC: 0.66086 cumulative IPC: 0.664176 (Simulation time: 1 hr 6 min 27 sec) 
Heartbeat CPU 0 instructions: 113000001 cycles: 115502965 heartbeat IPC: 0.584878 cumulative IPC: 0.66275 (Simulation time: 1 hr 7 min 4 sec) 
Heartbeat CPU 0 instructions: 114000002 cycles: 116984455 heartbeat IPC: 0.674997 cumulative IPC: 0.662938 (Simulation time: 1 hr 7 min 46 sec) 
Heartbeat CPU 0 instructions: 115000002 cycles: 118354497 heartbeat IPC: 0.729905 cumulative IPC: 0.663875 (Simulation time: 1 hr 8 min 19 sec) 
Heartbeat CPU 0 instructions: 116000000 cycles: 120083290 heartbeat IPC: 0.578437 cumulative IPC: 0.662392 (Simulation time: 1 hr 8 min 56 sec) 
Heartbeat CPU 0 instructions: 117000001 cycles: 121558941 heartbeat IPC: 0.677668 cumulative IPC: 0.662615 (Simulation time: 1 hr 9 min 28 sec) 
Heartbeat CPU 0 instructions: 118000003 cycles: 122986711 heartbeat IPC: 0.700394 cumulative IPC: 0.663141 (Simulation time: 1 hr 10 min 4 sec) 
Heartbeat CPU 0 instructions: 119000002 cycles: 124702370 heartbeat IPC: 0.582866 cumulative IPC: 0.66182 (Simulation time: 1 hr 10 min 40 sec) 
Heartbeat CPU 0 instructions: 120000000 cycles: 126138982 heartbeat IPC: 0.696081 cumulative IPC: 0.662286 (Simulation time: 1 hr 11 min 28 sec) 
Heartbeat CPU 0 instructions: 121000000 cycles: 127592514 heartbeat IPC: 0.687979 cumulative IPC: 0.662634 (Simulation time: 1 hr 12 min 12 sec) 
Heartbeat CPU 0 instructions: 122000001 cycles: 129308979 heartbeat IPC: 0.582593 cumulative IPC: 0.661372 (Simulation time: 1 hr 12 min 52 sec) 
Heartbeat CPU 0 instructions: 123000002 cycles: 130735977 heartbeat IPC: 0.700773 cumulative IPC: 0.661882 (Simulation time: 1 hr 13 min 24 sec) 
Heartbeat CPU 0 instructions: 124000000 cycles: 132253987 heartbeat IPC: 0.658756 cumulative IPC: 0.66184 (Simulation time: 1 hr 13 min 55 sec) 
Heartbeat CPU 0 instructions: 125000003 cycles: 134161260 heartbeat IPC: 0.52431 cumulative IPC: 0.659533 (Simulation time: 1 hr 14 min 34 sec) 
Heartbeat CPU 0 instructions: 126000001 cycles: 135600421 heartbeat IPC: 0.694848 cumulative IPC: 0.659974 (Simulation time: 1 hr 15 min 18 sec) 
Heartbeat CPU 0 instructions: 127000001 cycles: 137021618 heartbeat IPC: 0.703632 cumulative IPC: 0.660507 (Simulation time: 1 hr 16 min 1 sec) 
Heartbeat CPU 0 instructions: 128000000 cycles: 138773607 heartbeat IPC: 0.570779 cumulative IPC: 0.659178 (Simulation time: 1 hr 16 min 34 sec) 
Heartbeat CPU 0 instructions: 129000003 cycles: 140184338 heartbeat IPC: 0.708854 cumulative IPC: 0.659763 (Simulation time: 1 hr 17 min 3 sec) 
Heartbeat CPU 0 instructions: 130000003 cycles: 141672469 heartbeat IPC: 0.671984 cumulative IPC: 0.659913 (Simulation time: 1 hr 17 min 36 sec) 
Heartbeat CPU 0 instructions: 131000000 cycles: 143450522 heartbeat IPC: 0.562411 cumulative IPC: 0.658504 (Simulation time: 1 hr 18 min 15 sec) 
Heartbeat CPU 0 instructions: 132000000 cycles: 144858014 heartbeat IPC: 0.710484 cumulative IPC: 0.659092 (Simulation time: 1 hr 18 min 46 sec) 
Heartbeat CPU 0 instructions: 133000001 cycles: 146314414 heartbeat IPC: 0.686625 cumulative IPC: 0.659411 (Simulation time: 1 hr 19 min 22 sec) 
Heartbeat CPU 0 instructions: 134000000 cycles: 148130988 heartbeat IPC: 0.550486 cumulative IPC: 0.657861 (Simulation time: 1 hr 20 min 7 sec) 
Heartbeat CPU 0 instructions: 135000003 cycles: 149545887 heartbeat IPC: 0.706766 cumulative IPC: 0.658397 (Simulation time: 1 hr 20 min 42 sec) 
Heartbeat CPU 0 instructions: 136000000 cycles: 150985751 heartbeat IPC: 0.694508 cumulative IPC: 0.658795 (Simulation time: 1 hr 21 min 9 sec) 
Heartbeat CPU 0 instructions: 137000001 cycles: 152737184 heartbeat IPC: 0.570962 cumulative IPC: 0.657632 (Simulation time: 1 hr 21 min 39 sec) 
Heartbeat CPU 0 instructions: 138000000 cycles: 154195310 heartbeat IPC: 0.685811 cumulative IPC: 0.65794 (Simulation time: 1 hr 22 min 7 sec) 
Heartbeat CPU 0 instructions: 139000003 cycles: 155637363 heartbeat IPC: 0.693458 cumulative IPC: 0.658319 (Simulation time: 1 hr 22 min 34 sec) 
Heartbeat CPU 0 instructions: 140000000 cycles: 157281127 heartbeat IPC: 0.608358 cumulative IPC: 0.657718 (Simulation time: 1 hr 23 min 4 sec) 
Heartbeat CPU 0 instructions: 141000003 cycles: 158708474 heartbeat IPC: 0.700603 cumulative IPC: 0.658161 (Simulation time: 1 hr 23 min 31 sec) 
Heartbeat CPU 0 instructions: 142000001 cycles: 160218188 heartbeat IPC: 0.662376 cumulative IPC: 0.658207 (Simulation time: 1 hr 24 min 4 sec) 
Heartbeat CPU 0 instructions: 143000000 cycles: 161892245 heartbeat IPC: 0.597351 cumulative IPC: 0.657486 (Simulation time: 1 hr 24 min 36 sec) 
Heartbeat CPU 0 instructions: 144000000 cycles: 163304844 heartbeat IPC: 0.707915 cumulative IPC: 0.657985 (Simulation time: 1 hr 25 min 4 sec) 
Heartbeat CPU 0 instructions: 145000002 cycles: 164822988 heartbeat IPC: 0.6587 cumulative IPC: 0.657992 (Simulation time: 1 hr 25 min 33 sec) 
Heartbeat CPU 0 instructions: 146000001 cycles: 166480212 heartbeat IPC: 0.603418 cumulative IPC: 0.657373 (Simulation time: 1 hr 26 min 1 sec) 
Heartbeat CPU 0 instructions: 147000000 cycles: 167894250 heartbeat IPC: 0.707194 cumulative IPC: 0.657851 (Simulation time: 1 hr 26 min 27 sec) 
Heartbeat CPU 0 instructions: 148000000 cycles: 169346795 heartbeat IPC: 0.688447 cumulative IPC: 0.658149 (Simulation time: 1 hr 26 min 49 sec) 
Heartbeat CPU 0 instructions: 149000003 cycles: 171004110 heartbeat IPC: 0.603387 cumulative IPC: 0.657547 (Simulation time: 1 hr 27 min 13 sec) 
Heartbeat CPU 0 instructions: 150000003 cycles: 172450136 heartbeat IPC: 0.69155 cumulative IPC: 0.65787 (Simulation time: 1 hr 27 min 35 sec) 
Finished CPU 0 instructions: 100000001 cycles: 152005696 cummulative IPC: 0.65787 (Simulation time: 1 hr 27 min 35 sec) 

ChampSim completed all CPUs

Region of Interest Statistics

CPU 0 cummulative IPC: 0.65787 instructions: 100000001 cycles: 152005696
LLC TOTAL     ACCESS:    5886225  HIT:    1894625  MISS:    3991600
LLC LOAD      ACCESS:     433274  HIT:      18134  MISS:     415140
LLC RFO       ACCESS:    2513661  HIT:     671807  MISS:    1841854
LLC PREFETCH  ACCESS:     425330  HIT:      22264  MISS:     403066
LLC WRITEBACK ACCESS:    2513960  HIT:    1182420  MISS:    1331540
OPTgen accesses: 69843
OPTgen hits: 21924
OPTgen hit rate: 31.3904


