
*** ChampSim Multicore Out-of-Order Simulator ***

Warmup Instructions: 50000000
Simulation Instructions: 100000000
Configuration: 2
Number of CPUs: 1
LLC sets: 2048
LLC ways: 16
Off-chip DRAM Channels: 1 Width: 64-bit Data Rate: 1600 MT/s

CPU 0 runs /datasets/cs240c-wi22-a00-public/data/Assignment2-gz/lbm_94B.trace.gz
CPU 0 L1D next line prefetcher
CPU 0 L2C IP-based stride prefetcher
Initialize Hawkeye state
Heartbeat CPU 0 instructions: 1000000 cycles: 422068 heartbeat IPC: 2.36929 cumulative IPC: 2.36929 (Simulation time: 0 hr 0 min 36 sec) 
Heartbeat CPU 0 instructions: 2000000 cycles: 812399 heartbeat IPC: 2.56193 cumulative IPC: 2.46184 (Simulation time: 0 hr 1 min 9 sec) 
Heartbeat CPU 0 instructions: 3000000 cycles: 1211539 heartbeat IPC: 2.50539 cumulative IPC: 2.47619 (Simulation time: 0 hr 1 min 41 sec) 
Heartbeat CPU 0 instructions: 4000000 cycles: 1631528 heartbeat IPC: 2.38101 cumulative IPC: 2.45169 (Simulation time: 0 hr 2 min 17 sec) 
Heartbeat CPU 0 instructions: 5000001 cycles: 2021787 heartbeat IPC: 2.5624 cumulative IPC: 2.47306 (Simulation time: 0 hr 2 min 51 sec) 
Heartbeat CPU 0 instructions: 6000000 cycles: 2422466 heartbeat IPC: 2.49576 cumulative IPC: 2.47681 (Simulation time: 0 hr 3 min 25 sec) 
Heartbeat CPU 0 instructions: 7000001 cycles: 2840598 heartbeat IPC: 2.39159 cumulative IPC: 2.46427 (Simulation time: 0 hr 3 min 58 sec) 
Heartbeat CPU 0 instructions: 8000000 cycles: 3230808 heartbeat IPC: 2.56272 cumulative IPC: 2.47616 (Simulation time: 0 hr 4 min 31 sec) 
Heartbeat CPU 0 instructions: 9000003 cycles: 3631834 heartbeat IPC: 2.49361 cumulative IPC: 2.47809 (Simulation time: 0 hr 5 min 2 sec) 
Heartbeat CPU 0 instructions: 10000000 cycles: 4048406 heartbeat IPC: 2.40054 cumulative IPC: 2.47011 (Simulation time: 0 hr 5 min 38 sec) 
Heartbeat CPU 0 instructions: 11000003 cycles: 4438595 heartbeat IPC: 2.56287 cumulative IPC: 2.47826 (Simulation time: 0 hr 6 min 14 sec) 
Heartbeat CPU 0 instructions: 12000000 cycles: 4839136 heartbeat IPC: 2.49662 cumulative IPC: 2.47978 (Simulation time: 0 hr 6 min 47 sec) 
Heartbeat CPU 0 instructions: 13000000 cycles: 5254528 heartbeat IPC: 2.40736 cumulative IPC: 2.47406 (Simulation time: 0 hr 7 min 23 sec) 
Heartbeat CPU 0 instructions: 14000003 cycles: 5644781 heartbeat IPC: 2.56245 cumulative IPC: 2.48017 (Simulation time: 0 hr 7 min 57 sec) 
Heartbeat CPU 0 instructions: 15000001 cycles: 6045167 heartbeat IPC: 2.49758 cumulative IPC: 2.48132 (Simulation time: 0 hr 8 min 27 sec) 
Heartbeat CPU 0 instructions: 16000000 cycles: 6459561 heartbeat IPC: 2.41316 cumulative IPC: 2.47695 (Simulation time: 0 hr 8 min 57 sec) 
Heartbeat CPU 0 instructions: 17000001 cycles: 6849809 heartbeat IPC: 2.56248 cumulative IPC: 2.48182 (Simulation time: 0 hr 9 min 31 sec) 
Heartbeat CPU 0 instructions: 18000001 cycles: 7248671 heartbeat IPC: 2.50713 cumulative IPC: 2.48321 (Simulation time: 0 hr 10 min 5 sec) 
Heartbeat CPU 0 instructions: 19000000 cycles: 7663216 heartbeat IPC: 2.41228 cumulative IPC: 2.47938 (Simulation time: 0 hr 10 min 35 sec) 
Heartbeat CPU 0 instructions: 20000000 cycles: 8053488 heartbeat IPC: 2.56232 cumulative IPC: 2.4834 (Simulation time: 0 hr 11 min 7 sec) 
Heartbeat CPU 0 instructions: 21000003 cycles: 8451571 heartbeat IPC: 2.51205 cumulative IPC: 2.48475 (Simulation time: 0 hr 11 min 39 sec) 
Heartbeat CPU 0 instructions: 22000000 cycles: 8865752 heartbeat IPC: 2.4144 cumulative IPC: 2.48146 (Simulation time: 0 hr 12 min 9 sec) 
Heartbeat CPU 0 instructions: 23000000 cycles: 9255920 heartbeat IPC: 2.563 cumulative IPC: 2.4849 (Simulation time: 0 hr 12 min 39 sec) 
Heartbeat CPU 0 instructions: 24000000 cycles: 9651983 heartbeat IPC: 2.52485 cumulative IPC: 2.48654 (Simulation time: 0 hr 13 min 12 sec) 
Heartbeat CPU 0 instructions: 25000000 cycles: 10065644 heartbeat IPC: 2.41744 cumulative IPC: 2.4837 (Simulation time: 0 hr 13 min 46 sec) 
Heartbeat CPU 0 instructions: 26000003 cycles: 10455888 heartbeat IPC: 2.56251 cumulative IPC: 2.48664 (Simulation time: 0 hr 14 min 15 sec) 
Heartbeat CPU 0 instructions: 27000002 cycles: 10850945 heartbeat IPC: 2.53128 cumulative IPC: 2.48826 (Simulation time: 0 hr 14 min 49 sec) 
Heartbeat CPU 0 instructions: 28000000 cycles: 11264385 heartbeat IPC: 2.41873 cumulative IPC: 2.48571 (Simulation time: 0 hr 15 min 18 sec) 
Heartbeat CPU 0 instructions: 29000000 cycles: 11654569 heartbeat IPC: 2.56289 cumulative IPC: 2.48829 (Simulation time: 0 hr 15 min 47 sec) 
Heartbeat CPU 0 instructions: 30000000 cycles: 12049619 heartbeat IPC: 2.53133 cumulative IPC: 2.48971 (Simulation time: 0 hr 16 min 17 sec) 
Heartbeat CPU 0 instructions: 31000003 cycles: 12460553 heartbeat IPC: 2.43349 cumulative IPC: 2.48785 (Simulation time: 0 hr 16 min 46 sec) 
Heartbeat CPU 0 instructions: 32000000 cycles: 12850836 heartbeat IPC: 2.56224 cumulative IPC: 2.49011 (Simulation time: 0 hr 17 min 16 sec) 
Heartbeat CPU 0 instructions: 33000002 cycles: 13245958 heartbeat IPC: 2.53087 cumulative IPC: 2.49133 (Simulation time: 0 hr 17 min 46 sec) 
Heartbeat CPU 0 instructions: 34000003 cycles: 13653500 heartbeat IPC: 2.45374 cumulative IPC: 2.4902 (Simulation time: 0 hr 18 min 17 sec) 
Heartbeat CPU 0 instructions: 35000002 cycles: 14045165 heartbeat IPC: 2.5532 cumulative IPC: 2.49196 (Simulation time: 0 hr 18 min 46 sec) 
Heartbeat CPU 0 instructions: 36000000 cycles: 14440188 heartbeat IPC: 2.53149 cumulative IPC: 2.49304 (Simulation time: 0 hr 19 min 14 sec) 
Heartbeat CPU 0 instructions: 37000003 cycles: 14842401 heartbeat IPC: 2.48625 cumulative IPC: 2.49286 (Simulation time: 0 hr 19 min 43 sec) 
Heartbeat CPU 0 instructions: 38000002 cycles: 15236923 heartbeat IPC: 2.53471 cumulative IPC: 2.49394 (Simulation time: 0 hr 20 min 11 sec) 
Heartbeat CPU 0 instructions: 39000000 cycles: 15627135 heartbeat IPC: 2.5627 cumulative IPC: 2.49566 (Simulation time: 0 hr 20 min 40 sec) 
Heartbeat CPU 0 instructions: 40000000 cycles: 16027448 heartbeat IPC: 2.49805 cumulative IPC: 2.49572 (Simulation time: 0 hr 21 min 8 sec) 
Heartbeat CPU 0 instructions: 41000003 cycles: 16426116 heartbeat IPC: 2.50836 cumulative IPC: 2.49603 (Simulation time: 0 hr 21 min 34 sec) 
Heartbeat CPU 0 instructions: 42000003 cycles: 16816352 heartbeat IPC: 2.56255 cumulative IPC: 2.49757 (Simulation time: 0 hr 22 min 4 sec) 
Heartbeat CPU 0 instructions: 43000003 cycles: 17211605 heartbeat IPC: 2.53003 cumulative IPC: 2.49831 (Simulation time: 0 hr 22 min 33 sec) 
Heartbeat CPU 0 instructions: 44000000 cycles: 17612576 heartbeat IPC: 2.49394 cumulative IPC: 2.49821 (Simulation time: 0 hr 23 min 7 sec) 
Heartbeat CPU 0 instructions: 45000002 cycles: 18002833 heartbeat IPC: 2.56242 cumulative IPC: 2.49961 (Simulation time: 0 hr 23 min 35 sec) 
Heartbeat CPU 0 instructions: 46000001 cycles: 18397984 heartbeat IPC: 2.53068 cumulative IPC: 2.50027 (Simulation time: 0 hr 24 min 5 sec) 
Heartbeat CPU 0 instructions: 47000003 cycles: 18796389 heartbeat IPC: 2.51001 cumulative IPC: 2.50048 (Simulation time: 0 hr 24 min 34 sec) 
Heartbeat CPU 0 instructions: 48000000 cycles: 19186536 heartbeat IPC: 2.56313 cumulative IPC: 2.50175 (Simulation time: 0 hr 25 min 7 sec) 
Heartbeat CPU 0 instructions: 49000000 cycles: 19581614 heartbeat IPC: 2.53115 cumulative IPC: 2.50235 (Simulation time: 0 hr 25 min 37 sec) 
Heartbeat CPU 0 instructions: 50000003 cycles: 19975904 heartbeat IPC: 2.53621 cumulative IPC: 2.50302 (Simulation time: 0 hr 26 min 15 sec) 

Warmup complete CPU 0 instructions: 50000003 cycles: 19975904 (Simulation time: 0 hr 26 min 15 sec) 

Heartbeat CPU 0 instructions: 51000003 cycles: 21380175 heartbeat IPC: 0.712113 cumulative IPC: 0.712113 (Simulation time: 0 hr 26 min 49 sec) 
Heartbeat CPU 0 instructions: 52000000 cycles: 22851718 heartbeat IPC: 0.679557 cumulative IPC: 0.695454 (Simulation time: 0 hr 27 min 23 sec) 
Heartbeat CPU 0 instructions: 53000001 cycles: 24329667 heartbeat IPC: 0.676614 cumulative IPC: 0.689059 (Simulation time: 0 hr 27 min 59 sec) 
Heartbeat CPU 0 instructions: 54000000 cycles: 25739789 heartbeat IPC: 0.709158 cumulative IPC: 0.693976 (Simulation time: 0 hr 28 min 30 sec) 
Heartbeat CPU 0 instructions: 55000003 cycles: 27132969 heartbeat IPC: 0.717784 cumulative IPC: 0.69861 (Simulation time: 0 hr 29 min 3 sec) 
Heartbeat CPU 0 instructions: 56000000 cycles: 28596246 heartbeat IPC: 0.683396 cumulative IPC: 0.696028 (Simulation time: 0 hr 29 min 48 sec) 
Heartbeat CPU 0 instructions: 57000003 cycles: 30053797 heartbeat IPC: 0.686084 cumulative IPC: 0.69459 (Simulation time: 0 hr 30 min 21 sec) 
Heartbeat CPU 0 instructions: 58000003 cycles: 31523725 heartbeat IPC: 0.680305 cumulative IPC: 0.692771 (Simulation time: 0 hr 30 min 57 sec) 
Heartbeat CPU 0 instructions: 59000002 cycles: 33022090 heartbeat IPC: 0.667393 cumulative IPC: 0.689857 (Simulation time: 0 hr 31 min 33 sec) 
Heartbeat CPU 0 instructions: 60000000 cycles: 34433379 heartbeat IPC: 0.708571 cumulative IPC: 0.691684 (Simulation time: 0 hr 32 min 5 sec) 
Heartbeat CPU 0 instructions: 61000000 cycles: 35827899 heartbeat IPC: 0.717093 cumulative IPC: 0.693919 (Simulation time: 0 hr 32 min 38 sec) 
Heartbeat CPU 0 instructions: 62000000 cycles: 37208050 heartbeat IPC: 0.724558 cumulative IPC: 0.696373 (Simulation time: 0 hr 33 min 11 sec) 
Heartbeat CPU 0 instructions: 63000001 cycles: 38655258 heartbeat IPC: 0.690986 cumulative IPC: 0.695955 (Simulation time: 0 hr 33 min 44 sec) 
Heartbeat CPU 0 instructions: 64000000 cycles: 40060770 heartbeat IPC: 0.711484 cumulative IPC: 0.697042 (Simulation time: 0 hr 34 min 21 sec) 
Heartbeat CPU 0 instructions: 65000003 cycles: 41452629 heartbeat IPC: 0.718466 cumulative IPC: 0.698431 (Simulation time: 0 hr 35 min 1 sec) 
Heartbeat CPU 0 instructions: 66000002 cycles: 42900594 heartbeat IPC: 0.690624 cumulative IPC: 0.697937 (Simulation time: 0 hr 35 min 37 sec) 
Heartbeat CPU 0 instructions: 67000002 cycles: 44345339 heartbeat IPC: 0.692164 cumulative IPC: 0.697595 (Simulation time: 0 hr 36 min 15 sec) 
Heartbeat CPU 0 instructions: 68000000 cycles: 45776082 heartbeat IPC: 0.698936 cumulative IPC: 0.69767 (Simulation time: 0 hr 36 min 52 sec) 
Heartbeat CPU 0 instructions: 69000000 cycles: 47170466 heartbeat IPC: 0.717163 cumulative IPC: 0.698669 (Simulation time: 0 hr 37 min 30 sec) 
Heartbeat CPU 0 instructions: 70000001 cycles: 48582473 heartbeat IPC: 0.708212 cumulative IPC: 0.69914 (Simulation time: 0 hr 38 min 6 sec) 
Heartbeat CPU 0 instructions: 71000001 cycles: 49968204 heartbeat IPC: 0.721641 cumulative IPC: 0.70018 (Simulation time: 0 hr 38 min 40 sec) 
Heartbeat CPU 0 instructions: 72000000 cycles: 51474365 heartbeat IPC: 0.663939 cumulative IPC: 0.698447 (Simulation time: 0 hr 39 min 15 sec) 
Heartbeat CPU 0 instructions: 73000001 cycles: 53014112 heartbeat IPC: 0.649458 cumulative IPC: 0.696164 (Simulation time: 0 hr 39 min 57 sec) 
Heartbeat CPU 0 instructions: 74000001 cycles: 54484623 heartbeat IPC: 0.680036 cumulative IPC: 0.695476 (Simulation time: 0 hr 40 min 31 sec) 
Heartbeat CPU 0 instructions: 75000000 cycles: 55913262 heartbeat IPC: 0.699966 cumulative IPC: 0.695655 (Simulation time: 0 hr 41 min 8 sec) 
Heartbeat CPU 0 instructions: 76000000 cycles: 57317379 heartbeat IPC: 0.712191 cumulative IPC: 0.696277 (Simulation time: 0 hr 41 min 45 sec) 
Heartbeat CPU 0 instructions: 77000002 cycles: 58702070 heartbeat IPC: 0.722184 cumulative IPC: 0.697203 (Simulation time: 0 hr 42 min 19 sec) 
Heartbeat CPU 0 instructions: 78000003 cycles: 60142459 heartbeat IPC: 0.694258 cumulative IPC: 0.697097 (Simulation time: 0 hr 42 min 56 sec) 
Heartbeat CPU 0 instructions: 79000000 cycles: 61593146 heartbeat IPC: 0.689327 cumulative IPC: 0.696827 (Simulation time: 0 hr 43 min 33 sec) 
Heartbeat CPU 0 instructions: 80000000 cycles: 63075435 heartbeat IPC: 0.674632 cumulative IPC: 0.696063 (Simulation time: 0 hr 44 min 17 sec) 
Heartbeat CPU 0 instructions: 81000000 cycles: 64483510 heartbeat IPC: 0.710189 cumulative IPC: 0.69651 (Simulation time: 0 hr 44 min 52 sec) 
Heartbeat CPU 0 instructions: 82000000 cycles: 65905741 heartbeat IPC: 0.703121 cumulative IPC: 0.696715 (Simulation time: 0 hr 45 min 30 sec) 
Heartbeat CPU 0 instructions: 83000003 cycles: 67335748 heartbeat IPC: 0.699299 cumulative IPC: 0.696793 (Simulation time: 0 hr 46 min 7 sec) 
Heartbeat CPU 0 instructions: 84000000 cycles: 68662110 heartbeat IPC: 0.75394 cumulative IPC: 0.69835 (Simulation time: 0 hr 46 min 42 sec) 
Heartbeat CPU 0 instructions: 85000001 cycles: 70033754 heartbeat IPC: 0.729053 cumulative IPC: 0.699191 (Simulation time: 0 hr 47 min 17 sec) 
Heartbeat CPU 0 instructions: 86000003 cycles: 71544352 heartbeat IPC: 0.661991 cumulative IPC: 0.698101 (Simulation time: 0 hr 47 min 51 sec) 
Heartbeat CPU 0 instructions: 87000000 cycles: 72971268 heartbeat IPC: 0.70081 cumulative IPC: 0.698174 (Simulation time: 0 hr 48 min 24 sec) 
Heartbeat CPU 0 instructions: 88000000 cycles: 74390626 heartbeat IPC: 0.704544 cumulative IPC: 0.69834 (Simulation time: 0 hr 49 min 3 sec) 
Heartbeat CPU 0 instructions: 89000003 cycles: 75748200 heartbeat IPC: 0.73661 cumulative IPC: 0.699272 (Simulation time: 0 hr 49 min 38 sec) 
Heartbeat CPU 0 instructions: 90000003 cycles: 77202644 heartbeat IPC: 0.687548 cumulative IPC: 0.698974 (Simulation time: 0 hr 50 min 17 sec) 
Heartbeat CPU 0 instructions: 91000002 cycles: 78679509 heartbeat IPC: 0.677109 cumulative IPC: 0.698424 (Simulation time: 0 hr 50 min 57 sec) 
Heartbeat CPU 0 instructions: 92000000 cycles: 80116660 heartbeat IPC: 0.69582 cumulative IPC: 0.698362 (Simulation time: 0 hr 51 min 39 sec) 
Heartbeat CPU 0 instructions: 93000003 cycles: 81550641 heartbeat IPC: 0.697361 cumulative IPC: 0.698338 (Simulation time: 0 hr 52 min 19 sec) 
Heartbeat CPU 0 instructions: 94000001 cycles: 82937578 heartbeat IPC: 0.721012 cumulative IPC: 0.698838 (Simulation time: 0 hr 52 min 54 sec) 
Heartbeat CPU 0 instructions: 95000001 cycles: 84379650 heartbeat IPC: 0.693447 cumulative IPC: 0.698717 (Simulation time: 0 hr 53 min 31 sec) 
Heartbeat CPU 0 instructions: 96000000 cycles: 85771618 heartbeat IPC: 0.718407 cumulative IPC: 0.699134 (Simulation time: 0 hr 54 min 15 sec) 
Heartbeat CPU 0 instructions: 97000000 cycles: 87225916 heartbeat IPC: 0.687617 cumulative IPC: 0.698885 (Simulation time: 0 hr 54 min 51 sec) 
Heartbeat CPU 0 instructions: 98000002 cycles: 88604555 heartbeat IPC: 0.725354 cumulative IPC: 0.699416 (Simulation time: 0 hr 55 min 30 sec) 
Heartbeat CPU 0 instructions: 99000001 cycles: 89990443 heartbeat IPC: 0.721558 cumulative IPC: 0.699855 (Simulation time: 0 hr 56 min 6 sec) 
Heartbeat CPU 0 instructions: 100000000 cycles: 91470005 heartbeat IPC: 0.675875 cumulative IPC: 0.699358 (Simulation time: 0 hr 56 min 47 sec) 
Heartbeat CPU 0 instructions: 101000003 cycles: 92888956 heartbeat IPC: 0.704748 cumulative IPC: 0.699463 (Simulation time: 0 hr 57 min 24 sec) 
Heartbeat CPU 0 instructions: 102000002 cycles: 94246294 heartbeat IPC: 0.736735 cumulative IPC: 0.700144 (Simulation time: 0 hr 58 min 1 sec) 
Heartbeat CPU 0 instructions: 103000000 cycles: 95654829 heartbeat IPC: 0.709956 cumulative IPC: 0.700327 (Simulation time: 0 hr 58 min 44 sec) 
Heartbeat CPU 0 instructions: 104000000 cycles: 97100680 heartbeat IPC: 0.691634 cumulative IPC: 0.700164 (Simulation time: 0 hr 59 min 29 sec) 
Heartbeat CPU 0 instructions: 105000002 cycles: 98522628 heartbeat IPC: 0.703262 cumulative IPC: 0.70022 (Simulation time: 1 hr 0 min 12 sec) 
Heartbeat CPU 0 instructions: 106000001 cycles: 99941156 heartbeat IPC: 0.704955 cumulative IPC: 0.700304 (Simulation time: 1 hr 0 min 55 sec) 
Heartbeat CPU 0 instructions: 107000000 cycles: 101407089 heartbeat IPC: 0.682159 cumulative IPC: 0.699978 (Simulation time: 1 hr 1 min 39 sec) 
Heartbeat CPU 0 instructions: 108000000 cycles: 102817273 heartbeat IPC: 0.709127 cumulative IPC: 0.700133 (Simulation time: 1 hr 2 min 14 sec) 
Heartbeat CPU 0 instructions: 109000002 cycles: 104207603 heartbeat IPC: 0.719255 cumulative IPC: 0.700449 (Simulation time: 1 hr 2 min 54 sec) 
Heartbeat CPU 0 instructions: 110000000 cycles: 105684318 heartbeat IPC: 0.677177 cumulative IPC: 0.700048 (Simulation time: 1 hr 3 min 35 sec) 
Heartbeat CPU 0 instructions: 111000003 cycles: 107081055 heartbeat IPC: 0.715957 cumulative IPC: 0.700303 (Simulation time: 1 hr 4 min 15 sec) 
Heartbeat CPU 0 instructions: 112000000 cycles: 108520167 heartbeat IPC: 0.694871 cumulative IPC: 0.700215 (Simulation time: 1 hr 4 min 52 sec) 
Heartbeat CPU 0 instructions: 113000001 cycles: 110025152 heartbeat IPC: 0.664459 cumulative IPC: 0.699617 (Simulation time: 1 hr 5 min 37 sec) 
Heartbeat CPU 0 instructions: 114000003 cycles: 111418322 heartbeat IPC: 0.717789 cumulative IPC: 0.699894 (Simulation time: 1 hr 6 min 19 sec) 
Heartbeat CPU 0 instructions: 115000003 cycles: 112796708 heartbeat IPC: 0.725486 cumulative IPC: 0.700274 (Simulation time: 1 hr 6 min 59 sec) 
Heartbeat CPU 0 instructions: 116000000 cycles: 114143249 heartbeat IPC: 0.742641 cumulative IPC: 0.70088 (Simulation time: 1 hr 7 min 35 sec) 
Heartbeat CPU 0 instructions: 117000003 cycles: 115609991 heartbeat IPC: 0.681785 cumulative IPC: 0.700587 (Simulation time: 1 hr 8 min 8 sec) 
Heartbeat CPU 0 instructions: 118000003 cycles: 117052321 heartbeat IPC: 0.693323 cumulative IPC: 0.700479 (Simulation time: 1 hr 8 min 41 sec) 
Heartbeat CPU 0 instructions: 119000000 cycles: 118497078 heartbeat IPC: 0.692156 cumulative IPC: 0.700357 (Simulation time: 1 hr 9 min 16 sec) 
Heartbeat CPU 0 instructions: 120000000 cycles: 119939947 heartbeat IPC: 0.693064 cumulative IPC: 0.700252 (Simulation time: 1 hr 9 min 51 sec) 
Heartbeat CPU 0 instructions: 121000002 cycles: 121309678 heartbeat IPC: 0.730072 cumulative IPC: 0.700655 (Simulation time: 1 hr 10 min 28 sec) 
Heartbeat CPU 0 instructions: 122000003 cycles: 122717180 heartbeat IPC: 0.710479 cumulative IPC: 0.700789 (Simulation time: 1 hr 11 min 3 sec) 
Heartbeat CPU 0 instructions: 123000002 cycles: 124124426 heartbeat IPC: 0.710607 cumulative IPC: 0.700922 (Simulation time: 1 hr 11 min 37 sec) 
Heartbeat CPU 0 instructions: 124000000 cycles: 125545290 heartbeat IPC: 0.703796 cumulative IPC: 0.700961 (Simulation time: 1 hr 12 min 20 sec) 
Heartbeat CPU 0 instructions: 125000001 cycles: 126919902 heartbeat IPC: 0.727479 cumulative IPC: 0.701302 (Simulation time: 1 hr 12 min 55 sec) 
Heartbeat CPU 0 instructions: 126000003 cycles: 128329956 heartbeat IPC: 0.709194 cumulative IPC: 0.701404 (Simulation time: 1 hr 13 min 27 sec) 
Heartbeat CPU 0 instructions: 127000002 cycles: 129811250 heartbeat IPC: 0.675085 cumulative IPC: 0.701049 (Simulation time: 1 hr 13 min 58 sec) 
Heartbeat CPU 0 instructions: 128000000 cycles: 131187689 heartbeat IPC: 0.726511 cumulative IPC: 0.701365 (Simulation time: 1 hr 14 min 29 sec) 
Heartbeat CPU 0 instructions: 129000003 cycles: 132541652 heartbeat IPC: 0.738575 cumulative IPC: 0.701812 (Simulation time: 1 hr 15 min 3 sec) 
Heartbeat CPU 0 instructions: 130000000 cycles: 133922708 heartbeat IPC: 0.724081 cumulative IPC: 0.702082 (Simulation time: 1 hr 15 min 32 sec) 
Heartbeat CPU 0 instructions: 131000001 cycles: 135322398 heartbeat IPC: 0.714445 cumulative IPC: 0.702232 (Simulation time: 1 hr 16 min 3 sec) 
Heartbeat CPU 0 instructions: 132000000 cycles: 136823083 heartbeat IPC: 0.666362 cumulative IPC: 0.701771 (Simulation time: 1 hr 16 min 35 sec) 
Heartbeat CPU 0 instructions: 133000003 cycles: 138261636 heartbeat IPC: 0.695145 cumulative IPC: 0.701691 (Simulation time: 1 hr 17 min 8 sec) 
Heartbeat CPU 0 instructions: 134000001 cycles: 139738731 heartbeat IPC: 0.677003 cumulative IPC: 0.701386 (Simulation time: 1 hr 17 min 45 sec) 
Heartbeat CPU 0 instructions: 135000000 cycles: 141098029 heartbeat IPC: 0.735673 cumulative IPC: 0.701771 (Simulation time: 1 hr 18 min 14 sec) 
Heartbeat CPU 0 instructions: 136000000 cycles: 142458094 heartbeat IPC: 0.735259 cumulative IPC: 0.702143 (Simulation time: 1 hr 18 min 43 sec) 
Heartbeat CPU 0 instructions: 137000002 cycles: 144018984 heartbeat IPC: 0.640661 cumulative IPC: 0.701369 (Simulation time: 1 hr 19 min 17 sec) 
Heartbeat CPU 0 instructions: 138000001 cycles: 145480077 heartbeat IPC: 0.684418 cumulative IPC: 0.701172 (Simulation time: 1 hr 19 min 45 sec) 
Heartbeat CPU 0 instructions: 139000000 cycles: 146879272 heartbeat IPC: 0.714696 cumulative IPC: 0.701321 (Simulation time: 1 hr 20 min 12 sec) 
Heartbeat CPU 0 instructions: 140000000 cycles: 148323693 heartbeat IPC: 0.692319 cumulative IPC: 0.70122 (Simulation time: 1 hr 20 min 40 sec) 
Heartbeat CPU 0 instructions: 141000001 cycles: 149806273 heartbeat IPC: 0.674501 cumulative IPC: 0.700915 (Simulation time: 1 hr 21 min 10 sec) 
Heartbeat CPU 0 instructions: 142000003 cycles: 151193672 heartbeat IPC: 0.720775 cumulative IPC: 0.701125 (Simulation time: 1 hr 21 min 37 sec) 
Heartbeat CPU 0 instructions: 143000003 cycles: 152583550 heartbeat IPC: 0.719488 cumulative IPC: 0.701317 (Simulation time: 1 hr 22 min 5 sec) 
Heartbeat CPU 0 instructions: 144000000 cycles: 154035220 heartbeat IPC: 0.68886 cumulative IPC: 0.701182 (Simulation time: 1 hr 22 min 31 sec) 
Heartbeat CPU 0 instructions: 145000002 cycles: 155442073 heartbeat IPC: 0.710808 cumulative IPC: 0.701282 (Simulation time: 1 hr 22 min 57 sec) 
Heartbeat CPU 0 instructions: 146000000 cycles: 156857542 heartbeat IPC: 0.706478 cumulative IPC: 0.701336 (Simulation time: 1 hr 23 min 23 sec) 
Heartbeat CPU 0 instructions: 147000000 cycles: 158272763 heartbeat IPC: 0.706603 cumulative IPC: 0.70139 (Simulation time: 1 hr 23 min 48 sec) 
Heartbeat CPU 0 instructions: 148000000 cycles: 159692399 heartbeat IPC: 0.704406 cumulative IPC: 0.70142 (Simulation time: 1 hr 24 min 12 sec) 
Heartbeat CPU 0 instructions: 149000001 cycles: 161150777 heartbeat IPC: 0.685694 cumulative IPC: 0.701258 (Simulation time: 1 hr 24 min 37 sec) 
Heartbeat CPU 0 instructions: 150000003 cycles: 162601060 heartbeat IPC: 0.689522 cumulative IPC: 0.701139 (Simulation time: 1 hr 25 min 2 sec) 
Finished CPU 0 instructions: 100000000 cycles: 142625156 cummulative IPC: 0.701139 (Simulation time: 1 hr 25 min 2 sec) 

ChampSim completed all CPUs

Region of Interest Statistics

CPU 0 cummulative IPC: 0.701139 instructions: 100000000 cycles: 142625156
LLC TOTAL     ACCESS:    5314536  HIT:    1687881  MISS:    3626655
LLC LOAD      ACCESS:     372911  HIT:      14544  MISS:     358367
LLC RFO       ACCESS:    2270817  HIT:     597121  MISS:    1673696
LLC PREFETCH  ACCESS:     400048  HIT:      18630  MISS:     381418
LLC WRITEBACK ACCESS:    2270760  HIT:    1057586  MISS:    1213174
OPTgen accesses: 63495
OPTgen hits: 20312
OPTgen hit rate: 31.9899


