
*** ChampSim Multicore Out-of-Order Simulator ***

Warmup Instructions: 50000000
Simulation Instructions: 100000000
Configuration: 2
Number of CPUs: 1
LLC sets: 2048
LLC ways: 16
Off-chip DRAM Channels: 1 Width: 64-bit Data Rate: 1600 MT/s

CPU 0 runs /datasets/cs240c-wi22-a00-public/data/Assignment2-gz/bzip2_259B.trace.gz
CPU 0 L1D next line prefetcher
CPU 0 L2C IP-based stride prefetcher
Initialize Hawkeye state
Heartbeat CPU 0 instructions: 1000002 cycles: 428875 heartbeat IPC: 2.33169 cumulative IPC: 2.33169 (Simulation time: 0 hr 0 min 44 sec) 
Heartbeat CPU 0 instructions: 2000003 cycles: 861057 heartbeat IPC: 2.31384 cumulative IPC: 2.32273 (Simulation time: 0 hr 1 min 22 sec) 
Heartbeat CPU 0 instructions: 3000001 cycles: 1286790 heartbeat IPC: 2.34889 cumulative IPC: 2.33138 (Simulation time: 0 hr 1 min 54 sec) 
Heartbeat CPU 0 instructions: 4000000 cycles: 1685062 heartbeat IPC: 2.51084 cumulative IPC: 2.3738 (Simulation time: 0 hr 2 min 28 sec) 
Heartbeat CPU 0 instructions: 5000001 cycles: 2103495 heartbeat IPC: 2.38987 cumulative IPC: 2.377 (Simulation time: 0 hr 3 min 3 sec) 
Heartbeat CPU 0 instructions: 6000001 cycles: 2532858 heartbeat IPC: 2.32903 cumulative IPC: 2.36887 (Simulation time: 0 hr 3 min 37 sec) 
Heartbeat CPU 0 instructions: 7000003 cycles: 2961906 heartbeat IPC: 2.33075 cumulative IPC: 2.36334 (Simulation time: 0 hr 4 min 13 sec) 
Heartbeat CPU 0 instructions: 8000000 cycles: 3391719 heartbeat IPC: 2.32659 cumulative IPC: 2.35869 (Simulation time: 0 hr 4 min 48 sec) 
Heartbeat CPU 0 instructions: 9000000 cycles: 3819845 heartbeat IPC: 2.33576 cumulative IPC: 2.35612 (Simulation time: 0 hr 5 min 20 sec) 
Heartbeat CPU 0 instructions: 10000002 cycles: 4193917 heartbeat IPC: 2.67329 cumulative IPC: 2.38441 (Simulation time: 0 hr 5 min 46 sec) 
Heartbeat CPU 0 instructions: 11000003 cycles: 4560316 heartbeat IPC: 2.72927 cumulative IPC: 2.41211 (Simulation time: 0 hr 6 min 15 sec) 
Heartbeat CPU 0 instructions: 12000000 cycles: 5001191 heartbeat IPC: 2.26821 cumulative IPC: 2.39943 (Simulation time: 0 hr 6 min 54 sec) 
Heartbeat CPU 0 instructions: 13000003 cycles: 5458025 heartbeat IPC: 2.18899 cumulative IPC: 2.38181 (Simulation time: 0 hr 7 min 31 sec) 
Heartbeat CPU 0 instructions: 14000002 cycles: 5909699 heartbeat IPC: 2.21398 cumulative IPC: 2.36899 (Simulation time: 0 hr 8 min 4 sec) 
Heartbeat CPU 0 instructions: 15000003 cycles: 6349535 heartbeat IPC: 2.27358 cumulative IPC: 2.36238 (Simulation time: 0 hr 8 min 33 sec) 
Heartbeat CPU 0 instructions: 16000000 cycles: 6790847 heartbeat IPC: 2.26596 cumulative IPC: 2.35611 (Simulation time: 0 hr 9 min 8 sec) 
Heartbeat CPU 0 instructions: 17000003 cycles: 7220656 heartbeat IPC: 2.32662 cumulative IPC: 2.35436 (Simulation time: 0 hr 9 min 42 sec) 
Heartbeat CPU 0 instructions: 18000000 cycles: 7665091 heartbeat IPC: 2.25004 cumulative IPC: 2.34831 (Simulation time: 0 hr 10 min 11 sec) 
Heartbeat CPU 0 instructions: 19000002 cycles: 8147886 heartbeat IPC: 2.07128 cumulative IPC: 2.33189 (Simulation time: 0 hr 10 min 35 sec) 
Heartbeat CPU 0 instructions: 20000000 cycles: 8643239 heartbeat IPC: 2.01876 cumulative IPC: 2.31395 (Simulation time: 0 hr 11 min 1 sec) 
Heartbeat CPU 0 instructions: 21000001 cycles: 9135536 heartbeat IPC: 2.0313 cumulative IPC: 2.29872 (Simulation time: 0 hr 11 min 25 sec) 
Heartbeat CPU 0 instructions: 22000002 cycles: 9619242 heartbeat IPC: 2.06737 cumulative IPC: 2.28708 (Simulation time: 0 hr 11 min 47 sec) 
Heartbeat CPU 0 instructions: 23000003 cycles: 10104880 heartbeat IPC: 2.05915 cumulative IPC: 2.27613 (Simulation time: 0 hr 12 min 7 sec) 
Heartbeat CPU 0 instructions: 24000000 cycles: 10588647 heartbeat IPC: 2.0671 cumulative IPC: 2.26658 (Simulation time: 0 hr 12 min 30 sec) 
Heartbeat CPU 0 instructions: 25000000 cycles: 11073913 heartbeat IPC: 2.06073 cumulative IPC: 2.25756 (Simulation time: 0 hr 12 min 54 sec) 
Heartbeat CPU 0 instructions: 26000003 cycles: 11575248 heartbeat IPC: 1.99468 cumulative IPC: 2.24617 (Simulation time: 0 hr 13 min 18 sec) 
Heartbeat CPU 0 instructions: 27000000 cycles: 12067734 heartbeat IPC: 2.03051 cumulative IPC: 2.23737 (Simulation time: 0 hr 13 min 44 sec) 
Heartbeat CPU 0 instructions: 28000000 cycles: 12556510 heartbeat IPC: 2.04593 cumulative IPC: 2.22992 (Simulation time: 0 hr 14 min 6 sec) 
Heartbeat CPU 0 instructions: 29000000 cycles: 13046259 heartbeat IPC: 2.04186 cumulative IPC: 2.22286 (Simulation time: 0 hr 14 min 29 sec) 
Heartbeat CPU 0 instructions: 30000000 cycles: 13547976 heartbeat IPC: 1.99316 cumulative IPC: 2.21435 (Simulation time: 0 hr 14 min 51 sec) 
Heartbeat CPU 0 instructions: 31000000 cycles: 14111762 heartbeat IPC: 1.77372 cumulative IPC: 2.19675 (Simulation time: 0 hr 15 min 22 sec) 
Heartbeat CPU 0 instructions: 32000000 cycles: 14704895 heartbeat IPC: 1.68596 cumulative IPC: 2.17615 (Simulation time: 0 hr 15 min 49 sec) 
Heartbeat CPU 0 instructions: 33000003 cycles: 15227553 heartbeat IPC: 1.9133 cumulative IPC: 2.16712 (Simulation time: 0 hr 16 min 14 sec) 
Heartbeat CPU 0 instructions: 34000002 cycles: 15629027 heartbeat IPC: 2.49082 cumulative IPC: 2.17544 (Simulation time: 0 hr 16 min 38 sec) 
Heartbeat CPU 0 instructions: 35000003 cycles: 16028400 heartbeat IPC: 2.50393 cumulative IPC: 2.18362 (Simulation time: 0 hr 17 min 4 sec) 
Heartbeat CPU 0 instructions: 36000000 cycles: 16469401 heartbeat IPC: 2.26756 cumulative IPC: 2.18587 (Simulation time: 0 hr 17 min 38 sec) 
Heartbeat CPU 0 instructions: 37000000 cycles: 16860803 heartbeat IPC: 2.55492 cumulative IPC: 2.19444 (Simulation time: 0 hr 18 min 4 sec) 
Heartbeat CPU 0 instructions: 38000000 cycles: 17283217 heartbeat IPC: 2.36735 cumulative IPC: 2.19866 (Simulation time: 0 hr 18 min 32 sec) 
Heartbeat CPU 0 instructions: 39000000 cycles: 17714575 heartbeat IPC: 2.31826 cumulative IPC: 2.20158 (Simulation time: 0 hr 19 min 4 sec) 
Heartbeat CPU 0 instructions: 40000000 cycles: 18136290 heartbeat IPC: 2.37127 cumulative IPC: 2.20552 (Simulation time: 0 hr 19 min 42 sec) 
Heartbeat CPU 0 instructions: 41000001 cycles: 18560819 heartbeat IPC: 2.35555 cumulative IPC: 2.20895 (Simulation time: 0 hr 20 min 16 sec) 
Heartbeat CPU 0 instructions: 42000000 cycles: 18998519 heartbeat IPC: 2.28467 cumulative IPC: 2.2107 (Simulation time: 0 hr 20 min 46 sec) 
Heartbeat CPU 0 instructions: 43000003 cycles: 19431469 heartbeat IPC: 2.30974 cumulative IPC: 2.21291 (Simulation time: 0 hr 21 min 21 sec) 
Heartbeat CPU 0 instructions: 44000000 cycles: 19863446 heartbeat IPC: 2.31493 cumulative IPC: 2.21512 (Simulation time: 0 hr 21 min 54 sec) 
Heartbeat CPU 0 instructions: 45000002 cycles: 20294439 heartbeat IPC: 2.32023 cumulative IPC: 2.21736 (Simulation time: 0 hr 22 min 28 sec) 
Heartbeat CPU 0 instructions: 46000001 cycles: 20725852 heartbeat IPC: 2.31796 cumulative IPC: 2.21945 (Simulation time: 0 hr 23 min 1 sec) 
Heartbeat CPU 0 instructions: 47000003 cycles: 21157211 heartbeat IPC: 2.31826 cumulative IPC: 2.22146 (Simulation time: 0 hr 23 min 35 sec) 
Heartbeat CPU 0 instructions: 48000000 cycles: 21590707 heartbeat IPC: 2.30682 cumulative IPC: 2.22318 (Simulation time: 0 hr 24 min 8 sec) 
Heartbeat CPU 0 instructions: 49000003 cycles: 22028811 heartbeat IPC: 2.28257 cumulative IPC: 2.22436 (Simulation time: 0 hr 24 min 39 sec) 
Heartbeat CPU 0 instructions: 50000003 cycles: 22446610 heartbeat IPC: 2.3935 cumulative IPC: 2.22751 (Simulation time: 0 hr 25 min 17 sec) 

Warmup complete CPU 0 instructions: 50000003 cycles: 22446610 (Simulation time: 0 hr 25 min 17 sec) 

Heartbeat CPU 0 instructions: 51000002 cycles: 23610741 heartbeat IPC: 0.859009 cumulative IPC: 0.859009 (Simulation time: 0 hr 25 min 48 sec) 
Heartbeat CPU 0 instructions: 52000000 cycles: 24728902 heartbeat IPC: 0.894324 cumulative IPC: 0.876311 (Simulation time: 0 hr 26 min 14 sec) 
Heartbeat CPU 0 instructions: 53000001 cycles: 25925167 heartbeat IPC: 0.835936 cumulative IPC: 0.862426 (Simulation time: 0 hr 26 min 39 sec) 
Heartbeat CPU 0 instructions: 54000000 cycles: 27150955 heartbeat IPC: 0.815801 cumulative IPC: 0.850277 (Simulation time: 0 hr 27 min 7 sec) 
Heartbeat CPU 0 instructions: 55000000 cycles: 28302558 heartbeat IPC: 0.868355 cumulative IPC: 0.853832 (Simulation time: 0 hr 27 min 37 sec) 
Heartbeat CPU 0 instructions: 56000000 cycles: 29527424 heartbeat IPC: 0.816416 cumulative IPC: 0.84736 (Simulation time: 0 hr 28 min 5 sec) 
Heartbeat CPU 0 instructions: 57000000 cycles: 30748473 heartbeat IPC: 0.818968 cumulative IPC: 0.843184 (Simulation time: 0 hr 28 min 32 sec) 
Heartbeat CPU 0 instructions: 58000002 cycles: 31781778 heartbeat IPC: 0.96777 cumulative IPC: 0.856974 (Simulation time: 0 hr 29 min 3 sec) 
Heartbeat CPU 0 instructions: 59000000 cycles: 32882681 heartbeat IPC: 0.908343 cumulative IPC: 0.862393 (Simulation time: 0 hr 29 min 39 sec) 
Heartbeat CPU 0 instructions: 60000000 cycles: 34062129 heartbeat IPC: 0.847854 cumulative IPC: 0.860917 (Simulation time: 0 hr 30 min 7 sec) 
Heartbeat CPU 0 instructions: 61000000 cycles: 35206267 heartbeat IPC: 0.87402 cumulative IPC: 0.862092 (Simulation time: 0 hr 30 min 43 sec) 
Heartbeat CPU 0 instructions: 62000002 cycles: 36050092 heartbeat IPC: 1.18508 cumulative IPC: 0.882127 (Simulation time: 0 hr 31 min 14 sec) 
Heartbeat CPU 0 instructions: 63000003 cycles: 36954805 heartbeat IPC: 1.10532 cumulative IPC: 0.896045 (Simulation time: 0 hr 31 min 44 sec) 
Heartbeat CPU 0 instructions: 64000000 cycles: 38037923 heartbeat IPC: 0.923258 cumulative IPC: 0.897936 (Simulation time: 0 hr 32 min 25 sec) 
Heartbeat CPU 0 instructions: 65000003 cycles: 39058749 heartbeat IPC: 0.979602 cumulative IPC: 0.902954 (Simulation time: 0 hr 32 min 58 sec) 
Heartbeat CPU 0 instructions: 66000003 cycles: 40028528 heartbeat IPC: 1.03116 cumulative IPC: 0.910026 (Simulation time: 0 hr 33 min 35 sec) 
Heartbeat CPU 0 instructions: 67000003 cycles: 41103496 heartbeat IPC: 0.93026 cumulative IPC: 0.911192 (Simulation time: 0 hr 34 min 11 sec) 
Heartbeat CPU 0 instructions: 68000000 cycles: 42220368 heartbeat IPC: 0.895355 cumulative IPC: 0.910297 (Simulation time: 0 hr 34 min 53 sec) 
Heartbeat CPU 0 instructions: 69000003 cycles: 43371943 heartbeat IPC: 0.868379 cumulative IPC: 0.90799 (Simulation time: 0 hr 35 min 30 sec) 
Heartbeat CPU 0 instructions: 70000003 cycles: 44656161 heartbeat IPC: 0.778684 cumulative IPC: 0.900513 (Simulation time: 0 hr 36 min 4 sec) 
Heartbeat CPU 0 instructions: 71000000 cycles: 45990730 heartbeat IPC: 0.749303 cumulative IPC: 0.891942 (Simulation time: 0 hr 36 min 43 sec) 
Heartbeat CPU 0 instructions: 72000000 cycles: 47127967 heartbeat IPC: 0.879324 cumulative IPC: 0.891361 (Simulation time: 0 hr 37 min 17 sec) 
Heartbeat CPU 0 instructions: 73000003 cycles: 48450350 heartbeat IPC: 0.756213 cumulative IPC: 0.884488 (Simulation time: 0 hr 37 min 50 sec) 
Heartbeat CPU 0 instructions: 74000001 cycles: 49642024 heartbeat IPC: 0.839154 cumulative IPC: 0.882502 (Simulation time: 0 hr 38 min 26 sec) 
Heartbeat CPU 0 instructions: 75000000 cycles: 50797034 heartbeat IPC: 0.865793 cumulative IPC: 0.881821 (Simulation time: 0 hr 39 min 1 sec) 
Heartbeat CPU 0 instructions: 76000000 cycles: 51899909 heartbeat IPC: 0.906721 cumulative IPC: 0.882753 (Simulation time: 0 hr 39 min 40 sec) 
Heartbeat CPU 0 instructions: 77000003 cycles: 52878733 heartbeat IPC: 1.02164 cumulative IPC: 0.88722 (Simulation time: 0 hr 40 min 15 sec) 
Heartbeat CPU 0 instructions: 78000000 cycles: 53860460 heartbeat IPC: 1.01861 cumulative IPC: 0.891326 (Simulation time: 0 hr 40 min 46 sec) 
Heartbeat CPU 0 instructions: 79000003 cycles: 54956974 heartbeat IPC: 0.911984 cumulative IPC: 0.892023 (Simulation time: 0 hr 41 min 21 sec) 
Heartbeat CPU 0 instructions: 80000000 cycles: 56284036 heartbeat IPC: 0.753542 cumulative IPC: 0.886592 (Simulation time: 0 hr 41 min 57 sec) 
Heartbeat CPU 0 instructions: 81000001 cycles: 57461139 heartbeat IPC: 0.849544 cumulative IPC: 0.885347 (Simulation time: 0 hr 42 min 36 sec) 
Heartbeat CPU 0 instructions: 82000003 cycles: 58587225 heartbeat IPC: 0.888033 cumulative IPC: 0.88543 (Simulation time: 0 hr 43 min 15 sec) 
Heartbeat CPU 0 instructions: 83000002 cycles: 59669642 heartbeat IPC: 0.923857 cumulative IPC: 0.886548 (Simulation time: 0 hr 43 min 57 sec) 
Heartbeat CPU 0 instructions: 84000000 cycles: 60629138 heartbeat IPC: 1.04221 cumulative IPC: 0.89046 (Simulation time: 0 hr 44 min 30 sec) 
Heartbeat CPU 0 instructions: 85000003 cycles: 61588593 heartbeat IPC: 1.04226 cumulative IPC: 0.894181 (Simulation time: 0 hr 45 min 4 sec) 
Heartbeat CPU 0 instructions: 86000003 cycles: 62644906 heartbeat IPC: 0.946689 cumulative IPC: 0.89556 (Simulation time: 0 hr 45 min 38 sec) 
Heartbeat CPU 0 instructions: 87000002 cycles: 63693869 heartbeat IPC: 0.953322 cumulative IPC: 0.897029 (Simulation time: 0 hr 46 min 11 sec) 
Heartbeat CPU 0 instructions: 88000000 cycles: 64820381 heartbeat IPC: 0.887694 cumulative IPC: 0.896781 (Simulation time: 0 hr 46 min 41 sec) 
Heartbeat CPU 0 instructions: 89000002 cycles: 65826747 heartbeat IPC: 0.993676 cumulative IPC: 0.899029 (Simulation time: 0 hr 47 min 7 sec) 
Heartbeat CPU 0 instructions: 90000001 cycles: 66951483 heartbeat IPC: 0.889097 cumulative IPC: 0.898778 (Simulation time: 0 hr 47 min 34 sec) 
Heartbeat CPU 0 instructions: 91000002 cycles: 68064955 heartbeat IPC: 0.898093 cumulative IPC: 0.898761 (Simulation time: 0 hr 48 min 0 sec) 
Heartbeat CPU 0 instructions: 92000000 cycles: 69103399 heartbeat IPC: 0.962977 cumulative IPC: 0.90019 (Simulation time: 0 hr 48 min 27 sec) 
Heartbeat CPU 0 instructions: 93000000 cycles: 70293070 heartbeat IPC: 0.840569 cumulative IPC: 0.898708 (Simulation time: 0 hr 48 min 57 sec) 
Heartbeat CPU 0 instructions: 94000003 cycles: 71469261 heartbeat IPC: 0.850205 cumulative IPC: 0.897544 (Simulation time: 0 hr 49 min 28 sec) 
Heartbeat CPU 0 instructions: 95000002 cycles: 72655403 heartbeat IPC: 0.843069 cumulative IPC: 0.896257 (Simulation time: 0 hr 49 min 55 sec) 
Heartbeat CPU 0 instructions: 96000000 cycles: 73825018 heartbeat IPC: 0.85498 cumulative IPC: 0.895318 (Simulation time: 0 hr 50 min 27 sec) 
Heartbeat CPU 0 instructions: 97000002 cycles: 75041925 heartbeat IPC: 0.821757 cumulative IPC: 0.893616 (Simulation time: 0 hr 50 min 55 sec) 
Heartbeat CPU 0 instructions: 98000000 cycles: 76275543 heartbeat IPC: 0.810622 cumulative IPC: 0.891714 (Simulation time: 0 hr 51 min 28 sec) 
Heartbeat CPU 0 instructions: 99000000 cycles: 77515745 heartbeat IPC: 0.80632 cumulative IPC: 0.889791 (Simulation time: 0 hr 52 min 2 sec) 
Heartbeat CPU 0 instructions: 100000000 cycles: 78757812 heartbeat IPC: 0.80511 cumulative IPC: 0.887923 (Simulation time: 0 hr 52 min 30 sec) 
Heartbeat CPU 0 instructions: 101000003 cycles: 79905405 heartbeat IPC: 0.871392 cumulative IPC: 0.887593 (Simulation time: 0 hr 52 min 57 sec) 
Heartbeat CPU 0 instructions: 102000000 cycles: 81026056 heartbeat IPC: 0.892336 cumulative IPC: 0.887683 (Simulation time: 0 hr 53 min 29 sec) 
Heartbeat CPU 0 instructions: 103000000 cycles: 82127414 heartbeat IPC: 0.90797 cumulative IPC: 0.888058 (Simulation time: 0 hr 53 min 57 sec) 
Heartbeat CPU 0 instructions: 104000000 cycles: 83281840 heartbeat IPC: 0.866231 cumulative IPC: 0.887644 (Simulation time: 0 hr 54 min 33 sec) 
Heartbeat CPU 0 instructions: 105000002 cycles: 84493919 heartbeat IPC: 0.82503 cumulative IPC: 0.88642 (Simulation time: 0 hr 55 min 5 sec) 
Heartbeat CPU 0 instructions: 106000001 cycles: 85627479 heartbeat IPC: 0.882176 cumulative IPC: 0.886344 (Simulation time: 0 hr 55 min 33 sec) 
Heartbeat CPU 0 instructions: 107000000 cycles: 86831863 heartbeat IPC: 0.830299 cumulative IPC: 0.885296 (Simulation time: 0 hr 56 min 6 sec) 
Heartbeat CPU 0 instructions: 108000000 cycles: 88031760 heartbeat IPC: 0.833405 cumulative IPC: 0.884346 (Simulation time: 0 hr 56 min 34 sec) 
Heartbeat CPU 0 instructions: 109000000 cycles: 89044106 heartbeat IPC: 0.987805 cumulative IPC: 0.885919 (Simulation time: 0 hr 57 min 5 sec) 
Heartbeat CPU 0 instructions: 110000000 cycles: 90206476 heartbeat IPC: 0.860311 cumulative IPC: 0.88548 (Simulation time: 0 hr 57 min 35 sec) 
Heartbeat CPU 0 instructions: 111000002 cycles: 91331531 heartbeat IPC: 0.888847 cumulative IPC: 0.885535 (Simulation time: 0 hr 58 min 6 sec) 
Heartbeat CPU 0 instructions: 112000000 cycles: 92479709 heartbeat IPC: 0.870943 cumulative IPC: 0.885296 (Simulation time: 0 hr 58 min 36 sec) 
Heartbeat CPU 0 instructions: 113000003 cycles: 93410039 heartbeat IPC: 1.07489 cumulative IPC: 0.887781 (Simulation time: 0 hr 59 min 9 sec) 
Heartbeat CPU 0 instructions: 114000001 cycles: 94151037 heartbeat IPC: 1.34953 cumulative IPC: 0.892553 (Simulation time: 0 hr 59 min 41 sec) 
Heartbeat CPU 0 instructions: 115000000 cycles: 95281341 heartbeat IPC: 0.884717 cumulative IPC: 0.892431 (Simulation time: 1 hr 0 min 22 sec) 
Heartbeat CPU 0 instructions: 116000000 cycles: 96259217 heartbeat IPC: 1.02262 cumulative IPC: 0.894156 (Simulation time: 1 hr 1 min 2 sec) 
Heartbeat CPU 0 instructions: 117000003 cycles: 97210491 heartbeat IPC: 1.05122 cumulative IPC: 0.896155 (Simulation time: 1 hr 1 min 45 sec) 
Heartbeat CPU 0 instructions: 118000001 cycles: 98151932 heartbeat IPC: 1.0622 cumulative IPC: 0.89822 (Simulation time: 1 hr 2 min 27 sec) 
Heartbeat CPU 0 instructions: 119000001 cycles: 99223931 heartbeat IPC: 0.932837 cumulative IPC: 0.898703 (Simulation time: 1 hr 3 min 11 sec) 
Heartbeat CPU 0 instructions: 120000000 cycles: 100430354 heartbeat IPC: 0.828896 cumulative IPC: 0.897623 (Simulation time: 1 hr 3 min 51 sec) 
Heartbeat CPU 0 instructions: 121000002 cycles: 101586097 heartbeat IPC: 0.865246 cumulative IPC: 0.89715 (Simulation time: 1 hr 4 min 28 sec) 
Heartbeat CPU 0 instructions: 122000000 cycles: 103113684 heartbeat IPC: 0.654626 cumulative IPC: 0.892557 (Simulation time: 1 hr 5 min 16 sec) 
Heartbeat CPU 0 instructions: 123000000 cycles: 104442037 heartbeat IPC: 0.752812 cumulative IPC: 0.890294 (Simulation time: 1 hr 5 min 56 sec) 
Heartbeat CPU 0 instructions: 124000000 cycles: 105711637 heartbeat IPC: 0.78765 cumulative IPC: 0.888728 (Simulation time: 1 hr 6 min 38 sec) 
Heartbeat CPU 0 instructions: 125000001 cycles: 106911724 heartbeat IPC: 0.833274 cumulative IPC: 0.887941 (Simulation time: 1 hr 7 min 17 sec) 
Heartbeat CPU 0 instructions: 126000002 cycles: 107938867 heartbeat IPC: 0.973575 cumulative IPC: 0.888969 (Simulation time: 1 hr 7 min 50 sec) 
Heartbeat CPU 0 instructions: 127000001 cycles: 108988583 heartbeat IPC: 0.952638 cumulative IPC: 0.889742 (Simulation time: 1 hr 8 min 21 sec) 
Heartbeat CPU 0 instructions: 128000000 cycles: 110081621 heartbeat IPC: 0.91488 cumulative IPC: 0.890055 (Simulation time: 1 hr 8 min 52 sec) 
Heartbeat CPU 0 instructions: 129000003 cycles: 111277723 heartbeat IPC: 0.836052 cumulative IPC: 0.889328 (Simulation time: 1 hr 9 min 25 sec) 
Heartbeat CPU 0 instructions: 130000001 cycles: 112576207 heartbeat IPC: 0.770127 cumulative IPC: 0.887611 (Simulation time: 1 hr 10 min 0 sec) 
Heartbeat CPU 0 instructions: 131000003 cycles: 113827828 heartbeat IPC: 0.798966 cumulative IPC: 0.886397 (Simulation time: 1 hr 10 min 37 sec) 
Heartbeat CPU 0 instructions: 132000000 cycles: 114873265 heartbeat IPC: 0.956535 cumulative IPC: 0.88719 (Simulation time: 1 hr 11 min 7 sec) 
Heartbeat CPU 0 instructions: 133000001 cycles: 115868645 heartbeat IPC: 1.00464 cumulative IPC: 0.888441 (Simulation time: 1 hr 11 min 42 sec) 
Heartbeat CPU 0 instructions: 134000002 cycles: 116863104 heartbeat IPC: 1.00557 cumulative IPC: 0.889675 (Simulation time: 1 hr 12 min 18 sec) 
Heartbeat CPU 0 instructions: 135000000 cycles: 117872110 heartbeat IPC: 0.991072 cumulative IPC: 0.890747 (Simulation time: 1 hr 12 min 46 sec) 
Heartbeat CPU 0 instructions: 136000000 cycles: 118802093 heartbeat IPC: 1.07529 cumulative IPC: 0.892528 (Simulation time: 1 hr 13 min 14 sec) 
Heartbeat CPU 0 instructions: 137000000 cycles: 119736598 heartbeat IPC: 1.07009 cumulative IPC: 0.894234 (Simulation time: 1 hr 13 min 41 sec) 
Heartbeat CPU 0 instructions: 138000003 cycles: 120664735 heartbeat IPC: 1.07743 cumulative IPC: 0.895965 (Simulation time: 1 hr 14 min 14 sec) 
Heartbeat CPU 0 instructions: 139000001 cycles: 121737205 heartbeat IPC: 0.932425 cumulative IPC: 0.896359 (Simulation time: 1 hr 14 min 42 sec) 
Heartbeat CPU 0 instructions: 140000000 cycles: 122760237 heartbeat IPC: 0.977486 cumulative IPC: 0.897186 (Simulation time: 1 hr 15 min 11 sec) 
Heartbeat CPU 0 instructions: 141000000 cycles: 123833594 heartbeat IPC: 0.931656 cumulative IPC: 0.897551 (Simulation time: 1 hr 15 min 36 sec) 
Heartbeat CPU 0 instructions: 142000000 cycles: 124751793 heartbeat IPC: 1.08909 cumulative IPC: 0.89927 (Simulation time: 1 hr 16 min 4 sec) 
Heartbeat CPU 0 instructions: 143000001 cycles: 125546312 heartbeat IPC: 1.25862 cumulative IPC: 0.902039 (Simulation time: 1 hr 16 min 31 sec) 
Heartbeat CPU 0 instructions: 144000000 cycles: 126368988 heartbeat IPC: 1.21554 cumulative IPC: 0.904521 (Simulation time: 1 hr 16 min 57 sec) 
Heartbeat CPU 0 instructions: 145000001 cycles: 127365976 heartbeat IPC: 1.00302 cumulative IPC: 0.905457 (Simulation time: 1 hr 17 min 25 sec) 
Heartbeat CPU 0 instructions: 146000000 cycles: 128319326 heartbeat IPC: 1.04893 cumulative IPC: 0.906749 (Simulation time: 1 hr 17 min 51 sec) 
Heartbeat CPU 0 instructions: 147000001 cycles: 129322975 heartbeat IPC: 0.996365 cumulative IPC: 0.907591 (Simulation time: 1 hr 18 min 16 sec) 
Heartbeat CPU 0 instructions: 148000000 cycles: 130300749 heartbeat IPC: 1.02273 cumulative IPC: 0.908635 (Simulation time: 1 hr 18 min 45 sec) 
Heartbeat CPU 0 instructions: 149000003 cycles: 131293721 heartbeat IPC: 1.00708 cumulative IPC: 0.909533 (Simulation time: 1 hr 19 min 13 sec) 
Heartbeat CPU 0 instructions: 150000003 cycles: 132306148 heartbeat IPC: 0.987726 cumulative IPC: 0.910253 (Simulation time: 1 hr 19 min 40 sec) 
Finished CPU 0 instructions: 100000000 cycles: 109859538 cummulative IPC: 0.910253 (Simulation time: 1 hr 19 min 40 sec) 

ChampSim completed all CPUs

Region of Interest Statistics

CPU 0 cummulative IPC: 0.910253 instructions: 100000000 cycles: 109859538
LLC TOTAL     ACCESS:    1666380  HIT:    1312474  MISS:     353906
LLC LOAD      ACCESS:     531454  HIT:     452944  MISS:      78510
LLC RFO       ACCESS:     108421  HIT:      63230  MISS:      45191
LLC PREFETCH  ACCESS:     824405  HIT:     622207  MISS:     202198
LLC WRITEBACK ACCESS:     202100  HIT:     174093  MISS:      28007
OPTgen accesses: 12326
OPTgen hits: 12887
OPTgen hit rate: 104.551


