
*** ChampSim Multicore Out-of-Order Simulator ***

Warmup Instructions: 50000000
Simulation Instructions: 100000000
Configuration: 2
Number of CPUs: 1
LLC sets: 2048
LLC ways: 16
Off-chip DRAM Channels: 1 Width: 64-bit Data Rate: 1600 MT/s

CPU 0 runs /datasets/cs240c-wi22-a00-public/data/Assignment2-gz/mcf_158B.trace.gz
CPU 0 L1D next line prefetcher
CPU 0 L2C IP-based stride prefetcher
Initialize Hawkeye state
Heartbeat CPU 0 instructions: 1000002 cycles: 512879 heartbeat IPC: 1.94978 cumulative IPC: 1.94978 (Simulation time: 0 hr 0 min 49 sec) 
Heartbeat CPU 0 instructions: 2000002 cycles: 1025235 heartbeat IPC: 1.95177 cumulative IPC: 1.95077 (Simulation time: 0 hr 1 min 38 sec) 
Heartbeat CPU 0 instructions: 3000000 cycles: 1539241 heartbeat IPC: 1.9455 cumulative IPC: 1.94901 (Simulation time: 0 hr 2 min 29 sec) 
Heartbeat CPU 0 instructions: 4000000 cycles: 2051723 heartbeat IPC: 1.95129 cumulative IPC: 1.94958 (Simulation time: 0 hr 3 min 24 sec) 
Heartbeat CPU 0 instructions: 5000002 cycles: 2560660 heartbeat IPC: 1.96488 cumulative IPC: 1.95262 (Simulation time: 0 hr 4 min 11 sec) 
Heartbeat CPU 0 instructions: 6000001 cycles: 3074781 heartbeat IPC: 1.94507 cumulative IPC: 1.95136 (Simulation time: 0 hr 4 min 57 sec) 
Heartbeat CPU 0 instructions: 7000001 cycles: 3585006 heartbeat IPC: 1.95992 cumulative IPC: 1.95258 (Simulation time: 0 hr 5 min 41 sec) 
Heartbeat CPU 0 instructions: 8000000 cycles: 4097205 heartbeat IPC: 1.95236 cumulative IPC: 1.95255 (Simulation time: 0 hr 6 min 28 sec) 
Heartbeat CPU 0 instructions: 9000000 cycles: 4616844 heartbeat IPC: 1.92441 cumulative IPC: 1.94938 (Simulation time: 0 hr 7 min 16 sec) 
Heartbeat CPU 0 instructions: 10000001 cycles: 5149340 heartbeat IPC: 1.87795 cumulative IPC: 1.942 (Simulation time: 0 hr 8 min 7 sec) 
Heartbeat CPU 0 instructions: 11000001 cycles: 5658503 heartbeat IPC: 1.96401 cumulative IPC: 1.94398 (Simulation time: 0 hr 8 min 57 sec) 
Heartbeat CPU 0 instructions: 12000000 cycles: 6168497 heartbeat IPC: 1.96081 cumulative IPC: 1.94537 (Simulation time: 0 hr 9 min 44 sec) 
Heartbeat CPU 0 instructions: 13000003 cycles: 6677855 heartbeat IPC: 1.96326 cumulative IPC: 1.94673 (Simulation time: 0 hr 10 min 29 sec) 
Heartbeat CPU 0 instructions: 14000001 cycles: 7184058 heartbeat IPC: 1.97549 cumulative IPC: 1.94876 (Simulation time: 0 hr 11 min 19 sec) 
Heartbeat CPU 0 instructions: 15000000 cycles: 7689219 heartbeat IPC: 1.97956 cumulative IPC: 1.95078 (Simulation time: 0 hr 12 min 14 sec) 
Heartbeat CPU 0 instructions: 16000000 cycles: 8233725 heartbeat IPC: 1.83653 cumulative IPC: 1.94323 (Simulation time: 0 hr 12 min 57 sec) 
Heartbeat CPU 0 instructions: 17000001 cycles: 8745606 heartbeat IPC: 1.95358 cumulative IPC: 1.94383 (Simulation time: 0 hr 13 min 37 sec) 
Heartbeat CPU 0 instructions: 18000001 cycles: 9252541 heartbeat IPC: 1.97264 cumulative IPC: 1.94541 (Simulation time: 0 hr 14 min 20 sec) 
Heartbeat CPU 0 instructions: 19000001 cycles: 9764855 heartbeat IPC: 1.95193 cumulative IPC: 1.94575 (Simulation time: 0 hr 15 min 2 sec) 
Heartbeat CPU 0 instructions: 20000000 cycles: 10276052 heartbeat IPC: 1.95619 cumulative IPC: 1.94627 (Simulation time: 0 hr 15 min 47 sec) 
Heartbeat CPU 0 instructions: 21000000 cycles: 10786661 heartbeat IPC: 1.95845 cumulative IPC: 1.94685 (Simulation time: 0 hr 16 min 28 sec) 
Heartbeat CPU 0 instructions: 22000002 cycles: 11296592 heartbeat IPC: 1.96105 cumulative IPC: 1.94749 (Simulation time: 0 hr 17 min 15 sec) 
Heartbeat CPU 0 instructions: 23000003 cycles: 11814665 heartbeat IPC: 1.93023 cumulative IPC: 1.94673 (Simulation time: 0 hr 18 min 8 sec) 
Heartbeat CPU 0 instructions: 24000000 cycles: 12353230 heartbeat IPC: 1.85678 cumulative IPC: 1.94281 (Simulation time: 0 hr 18 min 49 sec) 
Heartbeat CPU 0 instructions: 25000001 cycles: 12859142 heartbeat IPC: 1.97663 cumulative IPC: 1.94414 (Simulation time: 0 hr 19 min 32 sec) 
Heartbeat CPU 0 instructions: 26000001 cycles: 13361005 heartbeat IPC: 1.99258 cumulative IPC: 1.94596 (Simulation time: 0 hr 20 min 19 sec) 
Heartbeat CPU 0 instructions: 27000002 cycles: 13866438 heartbeat IPC: 1.9785 cumulative IPC: 1.94715 (Simulation time: 0 hr 20 min 59 sec) 
Heartbeat CPU 0 instructions: 28000000 cycles: 14408287 heartbeat IPC: 1.84553 cumulative IPC: 1.94333 (Simulation time: 0 hr 21 min 40 sec) 
Heartbeat CPU 0 instructions: 29000003 cycles: 14915877 heartbeat IPC: 1.9701 cumulative IPC: 1.94424 (Simulation time: 0 hr 22 min 22 sec) 
Heartbeat CPU 0 instructions: 30000000 cycles: 15417621 heartbeat IPC: 1.99304 cumulative IPC: 1.94583 (Simulation time: 0 hr 23 min 9 sec) 
Heartbeat CPU 0 instructions: 31000003 cycles: 15928760 heartbeat IPC: 1.95642 cumulative IPC: 1.94617 (Simulation time: 0 hr 23 min 58 sec) 
Heartbeat CPU 0 instructions: 32000000 cycles: 16469158 heartbeat IPC: 1.85048 cumulative IPC: 1.94303 (Simulation time: 0 hr 24 min 51 sec) 
Heartbeat CPU 0 instructions: 33000000 cycles: 16974926 heartbeat IPC: 1.97719 cumulative IPC: 1.94404 (Simulation time: 0 hr 25 min 32 sec) 
Heartbeat CPU 0 instructions: 34000000 cycles: 17483381 heartbeat IPC: 1.96674 cumulative IPC: 1.9447 (Simulation time: 0 hr 26 min 14 sec) 
Heartbeat CPU 0 instructions: 35000001 cycles: 17991389 heartbeat IPC: 1.96847 cumulative IPC: 1.94538 (Simulation time: 0 hr 26 min 57 sec) 
Heartbeat CPU 0 instructions: 36000000 cycles: 18534652 heartbeat IPC: 1.84073 cumulative IPC: 1.94231 (Simulation time: 0 hr 27 min 37 sec) 
Heartbeat CPU 0 instructions: 37000001 cycles: 19039345 heartbeat IPC: 1.9814 cumulative IPC: 1.94334 (Simulation time: 0 hr 28 min 25 sec) 
Heartbeat CPU 0 instructions: 38000002 cycles: 19543447 heartbeat IPC: 1.98373 cumulative IPC: 1.94439 (Simulation time: 0 hr 29 min 8 sec) 
Heartbeat CPU 0 instructions: 39000000 cycles: 20044302 heartbeat IPC: 1.99658 cumulative IPC: 1.94569 (Simulation time: 0 hr 29 min 51 sec) 
Heartbeat CPU 0 instructions: 40000000 cycles: 20583264 heartbeat IPC: 1.85542 cumulative IPC: 1.94333 (Simulation time: 0 hr 30 min 34 sec) 
Heartbeat CPU 0 instructions: 41000003 cycles: 21087875 heartbeat IPC: 1.98173 cumulative IPC: 1.94425 (Simulation time: 0 hr 31 min 16 sec) 
Heartbeat CPU 0 instructions: 42000000 cycles: 21587749 heartbeat IPC: 2.0005 cumulative IPC: 1.94555 (Simulation time: 0 hr 32 min 9 sec) 
Heartbeat CPU 0 instructions: 43000001 cycles: 22100546 heartbeat IPC: 1.95009 cumulative IPC: 1.94565 (Simulation time: 0 hr 32 min 51 sec) 
Heartbeat CPU 0 instructions: 44000000 cycles: 22618673 heartbeat IPC: 1.93003 cumulative IPC: 1.9453 (Simulation time: 0 hr 33 min 30 sec) 
Heartbeat CPU 0 instructions: 45000000 cycles: 23099213 heartbeat IPC: 2.08099 cumulative IPC: 1.94812 (Simulation time: 0 hr 34 min 10 sec) 
Heartbeat CPU 0 instructions: 46000002 cycles: 23607925 heartbeat IPC: 1.96575 cumulative IPC: 1.9485 (Simulation time: 0 hr 34 min 48 sec) 
Heartbeat CPU 0 instructions: 47000002 cycles: 24127731 heartbeat IPC: 1.92379 cumulative IPC: 1.94797 (Simulation time: 0 hr 35 min 27 sec) 
Heartbeat CPU 0 instructions: 48000000 cycles: 24609596 heartbeat IPC: 2.07527 cumulative IPC: 1.95046 (Simulation time: 0 hr 36 min 14 sec) 
Heartbeat CPU 0 instructions: 49000003 cycles: 25116408 heartbeat IPC: 1.97312 cumulative IPC: 1.95092 (Simulation time: 0 hr 36 min 59 sec) 
Heartbeat CPU 0 instructions: 50000000 cycles: 25640696 heartbeat IPC: 1.90734 cumulative IPC: 1.95003 (Simulation time: 0 hr 37 min 44 sec) 

Warmup complete CPU 0 instructions: 50000001 cycles: 25640697 (Simulation time: 0 hr 37 min 44 sec) 

Heartbeat CPU 0 instructions: 51000000 cycles: 31651215 heartbeat IPC: 0.166375 cumulative IPC: 0.166375 (Simulation time: 0 hr 38 min 34 sec) 
Heartbeat CPU 0 instructions: 52000000 cycles: 40795379 heartbeat IPC: 0.109359 cumulative IPC: 0.131972 (Simulation time: 0 hr 39 min 29 sec) 
Heartbeat CPU 0 instructions: 53000000 cycles: 54154507 heartbeat IPC: 0.0748552 cumulative IPC: 0.105212 (Simulation time: 0 hr 40 min 40 sec) 
Heartbeat CPU 0 instructions: 54000000 cycles: 60411035 heartbeat IPC: 0.159833 cumulative IPC: 0.115041 (Simulation time: 0 hr 41 min 28 sec) 
Heartbeat CPU 0 instructions: 55000000 cycles: 68405984 heartbeat IPC: 0.125079 cumulative IPC: 0.116917 (Simulation time: 0 hr 42 min 23 sec) 
Heartbeat CPU 0 instructions: 56000000 cycles: 83171972 heartbeat IPC: 0.0677232 cumulative IPC: 0.104291 (Simulation time: 0 hr 43 min 43 sec) 
Heartbeat CPU 0 instructions: 57000001 cycles: 89453813 heartbeat IPC: 0.159189 cumulative IPC: 0.109695 (Simulation time: 0 hr 44 min 42 sec) 
Heartbeat CPU 0 instructions: 58000001 cycles: 95533628 heartbeat IPC: 0.164479 cumulative IPC: 0.114461 (Simulation time: 0 hr 45 min 34 sec) 
Heartbeat CPU 0 instructions: 59000000 cycles: 111520756 heartbeat IPC: 0.0625503 cumulative IPC: 0.104797 (Simulation time: 0 hr 47 min 8 sec) 
Heartbeat CPU 0 instructions: 60000000 cycles: 118457975 heartbeat IPC: 0.14415 cumulative IPC: 0.107739 (Simulation time: 0 hr 48 min 12 sec) 
Heartbeat CPU 0 instructions: 61000000 cycles: 125260616 heartbeat IPC: 0.147002 cumulative IPC: 0.11042 (Simulation time: 0 hr 49 min 6 sec) 
Heartbeat CPU 0 instructions: 62000001 cycles: 137383040 heartbeat IPC: 0.0824918 cumulative IPC: 0.10739 (Simulation time: 0 hr 50 min 13 sec) 
Heartbeat CPU 0 instructions: 63000001 cycles: 147722826 heartbeat IPC: 0.0967138 cumulative IPC: 0.106486 (Simulation time: 0 hr 51 min 15 sec) 
Heartbeat CPU 0 instructions: 64000000 cycles: 153623769 heartbeat IPC: 0.169464 cumulative IPC: 0.109389 (Simulation time: 0 hr 52 min 3 sec) 
Heartbeat CPU 0 instructions: 65000000 cycles: 160728697 heartbeat IPC: 0.140747 cumulative IPC: 0.111039 (Simulation time: 0 hr 53 min 2 sec) 
Heartbeat CPU 0 instructions: 66000000 cycles: 175549311 heartbeat IPC: 0.0674736 cumulative IPC: 0.106732 (Simulation time: 0 hr 54 min 35 sec) 
Heartbeat CPU 0 instructions: 67000002 cycles: 181537192 heartbeat IPC: 0.167004 cumulative IPC: 0.109047 (Simulation time: 0 hr 55 min 31 sec) 
Heartbeat CPU 0 instructions: 68000000 cycles: 187288894 heartbeat IPC: 0.173861 cumulative IPC: 0.111353 (Simulation time: 0 hr 56 min 19 sec) 
Heartbeat CPU 0 instructions: 69000000 cycles: 200105701 heartbeat IPC: 0.0780226 cumulative IPC: 0.108904 (Simulation time: 0 hr 57 min 43 sec) 
Heartbeat CPU 0 instructions: 70000000 cycles: 209387171 heartbeat IPC: 0.107742 cumulative IPC: 0.108846 (Simulation time: 0 hr 59 min 6 sec) 
Heartbeat CPU 0 instructions: 71000002 cycles: 215178334 heartbeat IPC: 0.172677 cumulative IPC: 0.110796 (Simulation time: 1 hr 0 min 5 sec) 
Heartbeat CPU 0 instructions: 72000000 cycles: 222839170 heartbeat IPC: 0.130534 cumulative IPC: 0.111563 (Simulation time: 1 hr 1 min 10 sec) 
Heartbeat CPU 0 instructions: 73000000 cycles: 237120354 heartbeat IPC: 0.0700222 cumulative IPC: 0.108758 (Simulation time: 1 hr 2 min 23 sec) 
Heartbeat CPU 0 instructions: 74000000 cycles: 243311038 heartbeat IPC: 0.161533 cumulative IPC: 0.110258 (Simulation time: 1 hr 3 min 27 sec) 
Heartbeat CPU 0 instructions: 75000001 cycles: 249457964 heartbeat IPC: 0.162683 cumulative IPC: 0.111698 (Simulation time: 1 hr 4 min 16 sec) 
Heartbeat CPU 0 instructions: 76000000 cycles: 261443433 heartbeat IPC: 0.0834343 cumulative IPC: 0.110262 (Simulation time: 1 hr 5 min 31 sec) 
Heartbeat CPU 0 instructions: 77000000 cycles: 272107606 heartbeat IPC: 0.0937719 cumulative IPC: 0.109548 (Simulation time: 1 hr 6 min 53 sec) 
Heartbeat CPU 0 instructions: 78000000 cycles: 278853030 heartbeat IPC: 0.148249 cumulative IPC: 0.110579 (Simulation time: 1 hr 7 min 49 sec) 
Heartbeat CPU 0 instructions: 79000001 cycles: 285940630 heartbeat IPC: 0.141092 cumulative IPC: 0.11141 (Simulation time: 1 hr 8 min 55 sec) 
Heartbeat CPU 0 instructions: 80000000 cycles: 301107752 heartbeat IPC: 0.065932 cumulative IPC: 0.108906 (Simulation time: 1 hr 10 min 9 sec) 
Heartbeat CPU 0 instructions: 81000001 cycles: 308416300 heartbeat IPC: 0.136826 cumulative IPC: 0.109628 (Simulation time: 1 hr 11 min 0 sec) 
Heartbeat CPU 0 instructions: 82000001 cycles: 315534033 heartbeat IPC: 0.140494 cumulative IPC: 0.110385 (Simulation time: 1 hr 11 min 54 sec) 
Heartbeat CPU 0 instructions: 83000001 cycles: 328007336 heartbeat IPC: 0.0801712 cumulative IPC: 0.109139 (Simulation time: 1 hr 13 min 1 sec) 
Heartbeat CPU 0 instructions: 84000000 cycles: 339076410 heartbeat IPC: 0.0903417 cumulative IPC: 0.108475 (Simulation time: 1 hr 14 min 10 sec) 
Heartbeat CPU 0 instructions: 85000000 cycles: 345552392 heartbeat IPC: 0.154417 cumulative IPC: 0.109405 (Simulation time: 1 hr 15 min 0 sec) 
Heartbeat CPU 0 instructions: 86000002 cycles: 353127070 heartbeat IPC: 0.132019 cumulative IPC: 0.109928 (Simulation time: 1 hr 15 min 50 sec) 
Heartbeat CPU 0 instructions: 87000000 cycles: 368134516 heartbeat IPC: 0.0666335 cumulative IPC: 0.108031 (Simulation time: 1 hr 17 min 0 sec) 
Heartbeat CPU 0 instructions: 88000000 cycles: 374983022 heartbeat IPC: 0.146017 cumulative IPC: 0.108776 (Simulation time: 1 hr 17 min 52 sec) 
Heartbeat CPU 0 instructions: 89000000 cycles: 382388877 heartbeat IPC: 0.135028 cumulative IPC: 0.109321 (Simulation time: 1 hr 18 min 56 sec) 
Heartbeat CPU 0 instructions: 90000002 cycles: 395933309 heartbeat IPC: 0.0738312 cumulative IPC: 0.108023 (Simulation time: 1 hr 20 min 0 sec) 
Heartbeat CPU 0 instructions: 91000000 cycles: 405336026 heartbeat IPC: 0.106352 cumulative IPC: 0.107981 (Simulation time: 1 hr 20 min 54 sec) 
Heartbeat CPU 0 instructions: 92000000 cycles: 411788944 heartbeat IPC: 0.154969 cumulative IPC: 0.108767 (Simulation time: 1 hr 21 min 37 sec) 
Heartbeat CPU 0 instructions: 93000003 cycles: 422737529 heartbeat IPC: 0.0913363 cumulative IPC: 0.108286 (Simulation time: 1 hr 22 min 31 sec) 
Heartbeat CPU 0 instructions: 94000000 cycles: 434751864 heartbeat IPC: 0.0832337 cumulative IPC: 0.10755 (Simulation time: 1 hr 23 min 22 sec) 
Heartbeat CPU 0 instructions: 95000000 cycles: 441544601 heartbeat IPC: 0.147216 cumulative IPC: 0.108198 (Simulation time: 1 hr 23 min 57 sec) 
Heartbeat CPU 0 instructions: 96000000 cycles: 449007287 heartbeat IPC: 0.134 cumulative IPC: 0.108653 (Simulation time: 1 hr 24 min 34 sec) 
Heartbeat CPU 0 instructions: 97000003 cycles: 464441109 heartbeat IPC: 0.064793 cumulative IPC: 0.10711 (Simulation time: 1 hr 25 min 33 sec) 
Heartbeat CPU 0 instructions: 98000002 cycles: 471592474 heartbeat IPC: 0.139833 cumulative IPC: 0.107635 (Simulation time: 1 hr 26 min 7 sec) 
Heartbeat CPU 0 instructions: 99000000 cycles: 478559019 heartbeat IPC: 0.143543 cumulative IPC: 0.108187 (Simulation time: 1 hr 26 min 43 sec) 
Heartbeat CPU 0 instructions: 100000000 cycles: 491990037 heartbeat IPC: 0.0744545 cumulative IPC: 0.107216 (Simulation time: 1 hr 27 min 33 sec) 
Heartbeat CPU 0 instructions: 101000000 cycles: 502291930 heartbeat IPC: 0.0970695 cumulative IPC: 0.106996 (Simulation time: 1 hr 28 min 12 sec) 
Heartbeat CPU 0 instructions: 102000000 cycles: 509860260 heartbeat IPC: 0.13213 cumulative IPC: 0.107389 (Simulation time: 1 hr 28 min 43 sec) 
Heartbeat CPU 0 instructions: 103000001 cycles: 516885397 heartbeat IPC: 0.142346 cumulative IPC: 0.107889 (Simulation time: 1 hr 29 min 15 sec) 
Heartbeat CPU 0 instructions: 104000000 cycles: 532646950 heartbeat IPC: 0.0634455 cumulative IPC: 0.106508 (Simulation time: 1 hr 30 min 2 sec) 
Heartbeat CPU 0 instructions: 105000000 cycles: 541156570 heartbeat IPC: 0.117514 cumulative IPC: 0.106689 (Simulation time: 1 hr 30 min 32 sec) 
Heartbeat CPU 0 instructions: 106000000 cycles: 548744725 heartbeat IPC: 0.131784 cumulative IPC: 0.107053 (Simulation time: 1 hr 31 min 2 sec) 
Heartbeat CPU 0 instructions: 107000000 cycles: 558764875 heartbeat IPC: 0.0997989 cumulative IPC: 0.106917 (Simulation time: 1 hr 31 min 33 sec) 
Heartbeat CPU 0 instructions: 108000000 cycles: 572524169 heartbeat IPC: 0.0726781 cumulative IPC: 0.106055 (Simulation time: 1 hr 32 min 6 sec) 
Heartbeat CPU 0 instructions: 109000000 cycles: 579963106 heartbeat IPC: 0.134428 cumulative IPC: 0.106436 (Simulation time: 1 hr 32 min 28 sec) 
Heartbeat CPU 0 instructions: 110000000 cycles: 587851725 heartbeat IPC: 0.126765 cumulative IPC: 0.106721 (Simulation time: 1 hr 32 min 49 sec) 
Heartbeat CPU 0 instructions: 111000001 cycles: 600738451 heartbeat IPC: 0.0775993 cumulative IPC: 0.106069 (Simulation time: 1 hr 33 min 15 sec) 
Heartbeat CPU 0 instructions: 112000000 cycles: 612169593 heartbeat IPC: 0.0874802 cumulative IPC: 0.105707 (Simulation time: 1 hr 33 min 39 sec) 
Heartbeat CPU 0 instructions: 113000000 cycles: 619500659 heartbeat IPC: 0.136406 cumulative IPC: 0.106086 (Simulation time: 1 hr 33 min 59 sec) 
Heartbeat CPU 0 instructions: 114000002 cycles: 627856281 heartbeat IPC: 0.11968 cumulative IPC: 0.106274 (Simulation time: 1 hr 34 min 18 sec) 
Heartbeat CPU 0 instructions: 115000000 cycles: 641275669 heartbeat IPC: 0.0745189 cumulative IPC: 0.105582 (Simulation time: 1 hr 34 min 43 sec) 
Heartbeat CPU 0 instructions: 116000000 cycles: 652991766 heartbeat IPC: 0.0853527 cumulative IPC: 0.105204 (Simulation time: 1 hr 35 min 6 sec) 
Heartbeat CPU 0 instructions: 117000003 cycles: 661351877 heartbeat IPC: 0.119616 cumulative IPC: 0.105394 (Simulation time: 1 hr 35 min 23 sec) 
Heartbeat CPU 0 instructions: 118000000 cycles: 669568349 heartbeat IPC: 0.121706 cumulative IPC: 0.105602 (Simulation time: 1 hr 35 min 40 sec) 
Heartbeat CPU 0 instructions: 119000001 cycles: 678804893 heartbeat IPC: 0.108266 cumulative IPC: 0.10564 (Simulation time: 1 hr 35 min 56 sec) 
Heartbeat CPU 0 instructions: 120000000 cycles: 693004479 heartbeat IPC: 0.0704245 cumulative IPC: 0.10489 (Simulation time: 1 hr 36 min 13 sec) 
Heartbeat CPU 0 instructions: 121000000 cycles: 700983841 heartbeat IPC: 0.125323 cumulative IPC: 0.105132 (Simulation time: 1 hr 36 min 26 sec) 
Heartbeat CPU 0 instructions: 122000001 cycles: 709396213 heartbeat IPC: 0.118873 cumulative IPC: 0.105301 (Simulation time: 1 hr 36 min 37 sec) 
Heartbeat CPU 0 instructions: 123000002 cycles: 718226091 heartbeat IPC: 0.113252 cumulative IPC: 0.105402 (Simulation time: 1 hr 36 min 49 sec) 
Heartbeat CPU 0 instructions: 124000000 cycles: 734005966 heartbeat IPC: 0.0633717 cumulative IPC: 0.104466 (Simulation time: 1 hr 37 min 5 sec) 
Heartbeat CPU 0 instructions: 125000001 cycles: 742965907 heartbeat IPC: 0.111608 cumulative IPC: 0.104555 (Simulation time: 1 hr 37 min 15 sec) 
Heartbeat CPU 0 instructions: 126000000 cycles: 751450929 heartbeat IPC: 0.117855 cumulative IPC: 0.104711 (Simulation time: 1 hr 37 min 24 sec) 
Heartbeat CPU 0 instructions: 127000002 cycles: 759623565 heartbeat IPC: 0.12236 cumulative IPC: 0.104907 (Simulation time: 1 hr 37 min 32 sec) 
Heartbeat CPU 0 instructions: 128000000 cycles: 771709240 heartbeat IPC: 0.0827424 cumulative IPC: 0.104548 (Simulation time: 1 hr 37 min 42 sec) 
Heartbeat CPU 0 instructions: 129000001 cycles: 784789610 heartbeat IPC: 0.0764505 cumulative IPC: 0.104064 (Simulation time: 1 hr 37 min 53 sec) 
Heartbeat CPU 0 instructions: 130000003 cycles: 793262367 heartbeat IPC: 0.118026 cumulative IPC: 0.104218 (Simulation time: 1 hr 38 min 1 sec) 
Heartbeat CPU 0 instructions: 131000000 cycles: 800426230 heartbeat IPC: 0.139589 cumulative IPC: 0.104545 (Simulation time: 1 hr 38 min 9 sec) 
Heartbeat CPU 0 instructions: 132000000 cycles: 811995028 heartbeat IPC: 0.0864394 cumulative IPC: 0.104279 (Simulation time: 1 hr 38 min 17 sec) 
Heartbeat CPU 0 instructions: 133000002 cycles: 823748317 heartbeat IPC: 0.0850827 cumulative IPC: 0.103996 (Simulation time: 1 hr 38 min 25 sec) 
Heartbeat CPU 0 instructions: 134000003 cycles: 830916146 heartbeat IPC: 0.139512 cumulative IPC: 0.104312 (Simulation time: 1 hr 38 min 32 sec) 
Heartbeat CPU 0 instructions: 135000000 cycles: 837424587 heartbeat IPC: 0.153646 cumulative IPC: 0.104708 (Simulation time: 1 hr 38 min 40 sec) 
Heartbeat CPU 0 instructions: 136000000 cycles: 849869973 heartbeat IPC: 0.0803511 cumulative IPC: 0.10434 (Simulation time: 1 hr 38 min 50 sec) 
Heartbeat CPU 0 instructions: 137000000 cycles: 861531840 heartbeat IPC: 0.0857496 cumulative IPC: 0.104081 (Simulation time: 1 hr 38 min 59 sec) 
Heartbeat CPU 0 instructions: 138000000 cycles: 870121278 heartbeat IPC: 0.116422 cumulative IPC: 0.104206 (Simulation time: 1 hr 39 min 7 sec) 
Heartbeat CPU 0 instructions: 139000001 cycles: 878505657 heartbeat IPC: 0.11927 cumulative IPC: 0.104354 (Simulation time: 1 hr 39 min 15 sec) 
Heartbeat CPU 0 instructions: 140000000 cycles: 887302351 heartbeat IPC: 0.113679 cumulative IPC: 0.104449 (Simulation time: 1 hr 39 min 22 sec) 
Heartbeat CPU 0 instructions: 141000000 cycles: 902982302 heartbeat IPC: 0.0637757 cumulative IPC: 0.103722 (Simulation time: 1 hr 39 min 34 sec) 
Heartbeat CPU 0 instructions: 142000000 cycles: 910866438 heartbeat IPC: 0.126837 cumulative IPC: 0.103928 (Simulation time: 1 hr 39 min 42 sec) 
Heartbeat CPU 0 instructions: 143000000 cycles: 918802747 heartbeat IPC: 0.126003 cumulative IPC: 0.104124 (Simulation time: 1 hr 39 min 50 sec) 
Heartbeat CPU 0 instructions: 144000000 cycles: 926813466 heartbeat IPC: 0.124833 cumulative IPC: 0.104309 (Simulation time: 1 hr 39 min 58 sec) 
Heartbeat CPU 0 instructions: 145000003 cycles: 941956976 heartbeat IPC: 0.0660351 cumulative IPC: 0.103676 (Simulation time: 1 hr 40 min 9 sec) 
Heartbeat CPU 0 instructions: 146000000 cycles: 950630455 heartbeat IPC: 0.115294 cumulative IPC: 0.103785 (Simulation time: 1 hr 40 min 16 sec) 
Heartbeat CPU 0 instructions: 147000000 cycles: 958751914 heartbeat IPC: 0.123131 cumulative IPC: 0.103953 (Simulation time: 1 hr 40 min 23 sec) 
Heartbeat CPU 0 instructions: 148000000 cycles: 967177880 heartbeat IPC: 0.118681 cumulative IPC: 0.104085 (Simulation time: 1 hr 40 min 30 sec) 
Heartbeat CPU 0 instructions: 149000001 cycles: 980558421 heartbeat IPC: 0.0747355 cumulative IPC: 0.103674 (Simulation time: 1 hr 40 min 40 sec) 
Heartbeat CPU 0 instructions: 150000000 cycles: 992088614 heartbeat IPC: 0.0867287 cumulative IPC: 0.103472 (Simulation time: 1 hr 40 min 48 sec) 
Finished CPU 0 instructions: 100000000 cycles: 966447919 cummulative IPC: 0.103472 (Simulation time: 1 hr 40 min 48 sec) 

ChampSim completed all CPUs

Region of Interest Statistics

CPU 0 cummulative IPC: 0.103472 instructions: 100000000 cycles: 966447919
LLC TOTAL     ACCESS:   21110882  HIT:   10237197  MISS:   10873685
LLC LOAD      ACCESS:    9532816  HIT:    5451038  MISS:    4081778
LLC RFO       ACCESS:     168950  HIT:      46114  MISS:     122836
LLC PREFETCH  ACCESS:    9550697  HIT:    3416243  MISS:    6134454
LLC WRITEBACK ACCESS:    1858419  HIT:    1323802  MISS:     534617
OPTgen accesses: 242044
OPTgen hits: 201561
OPTgen hit rate: 83.2745


