
*** ChampSim Multicore Out-of-Order Simulator ***

Warmup Instructions: 50000000
Simulation Instructions: 100000000
Configuration: 2
Number of CPUs: 1
LLC sets: 2048
LLC ways: 16
Off-chip DRAM Channels: 1 Width: 64-bit Data Rate: 1600 MT/s

CPU 0 runs /datasets/cs240c-wi22-a00-public/data/Assignment2-gz/wrf_1228B.trace.gz
CPU 0 L1D next line prefetcher
CPU 0 L2C IP-based stride prefetcher
Initialize Hawkeye state
Heartbeat CPU 0 instructions: 1000003 cycles: 591062 heartbeat IPC: 1.69187 cumulative IPC: 1.69187 (Simulation time: 0 hr 0 min 45 sec) 
Heartbeat CPU 0 instructions: 2000003 cycles: 1111191 heartbeat IPC: 1.9226 cumulative IPC: 1.79987 (Simulation time: 0 hr 1 min 19 sec) 
Heartbeat CPU 0 instructions: 3000000 cycles: 1729169 heartbeat IPC: 1.61818 cumulative IPC: 1.73494 (Simulation time: 0 hr 2 min 1 sec) 
Heartbeat CPU 0 instructions: 4000000 cycles: 2349823 heartbeat IPC: 1.6112 cumulative IPC: 1.70226 (Simulation time: 0 hr 2 min 41 sec) 
Heartbeat CPU 0 instructions: 5000000 cycles: 3052186 heartbeat IPC: 1.42377 cumulative IPC: 1.63817 (Simulation time: 0 hr 3 min 24 sec) 
Heartbeat CPU 0 instructions: 6000000 cycles: 3612274 heartbeat IPC: 1.78543 cumulative IPC: 1.661 (Simulation time: 0 hr 4 min 8 sec) 
Heartbeat CPU 0 instructions: 7000001 cycles: 4165036 heartbeat IPC: 1.8091 cumulative IPC: 1.68066 (Simulation time: 0 hr 4 min 48 sec) 
Heartbeat CPU 0 instructions: 8000000 cycles: 4716402 heartbeat IPC: 1.81368 cumulative IPC: 1.69621 (Simulation time: 0 hr 5 min 26 sec) 
Heartbeat CPU 0 instructions: 9000002 cycles: 5266587 heartbeat IPC: 1.81757 cumulative IPC: 1.70889 (Simulation time: 0 hr 6 min 7 sec) 
Heartbeat CPU 0 instructions: 10000001 cycles: 5819483 heartbeat IPC: 1.80866 cumulative IPC: 1.71837 (Simulation time: 0 hr 6 min 51 sec) 
Heartbeat CPU 0 instructions: 11000002 cycles: 6373227 heartbeat IPC: 1.80589 cumulative IPC: 1.72597 (Simulation time: 0 hr 7 min 29 sec) 
Heartbeat CPU 0 instructions: 12000000 cycles: 6924072 heartbeat IPC: 1.81539 cumulative IPC: 1.73308 (Simulation time: 0 hr 8 min 8 sec) 
Heartbeat CPU 0 instructions: 13000003 cycles: 7475097 heartbeat IPC: 1.81481 cumulative IPC: 1.73911 (Simulation time: 0 hr 8 min 47 sec) 
Heartbeat CPU 0 instructions: 14000000 cycles: 7938739 heartbeat IPC: 2.15683 cumulative IPC: 1.7635 (Simulation time: 0 hr 9 min 22 sec) 
Heartbeat CPU 0 instructions: 15000002 cycles: 8329225 heartbeat IPC: 2.56092 cumulative IPC: 1.80089 (Simulation time: 0 hr 9 min 55 sec) 
Heartbeat CPU 0 instructions: 16000000 cycles: 8719690 heartbeat IPC: 2.56104 cumulative IPC: 1.83493 (Simulation time: 0 hr 10 min 27 sec) 
Heartbeat CPU 0 instructions: 17000001 cycles: 9108854 heartbeat IPC: 2.56961 cumulative IPC: 1.86632 (Simulation time: 0 hr 11 min 1 sec) 
Heartbeat CPU 0 instructions: 18000003 cycles: 9499585 heartbeat IPC: 2.55931 cumulative IPC: 1.89482 (Simulation time: 0 hr 11 min 33 sec) 
Heartbeat CPU 0 instructions: 19000001 cycles: 9889929 heartbeat IPC: 2.56184 cumulative IPC: 1.92115 (Simulation time: 0 hr 12 min 9 sec) 
Heartbeat CPU 0 instructions: 20000000 cycles: 10279441 heartbeat IPC: 2.56731 cumulative IPC: 1.94563 (Simulation time: 0 hr 12 min 45 sec) 
Heartbeat CPU 0 instructions: 21000003 cycles: 10669384 heartbeat IPC: 2.56449 cumulative IPC: 1.96825 (Simulation time: 0 hr 13 min 16 sec) 
Heartbeat CPU 0 instructions: 22000000 cycles: 11071715 heartbeat IPC: 2.48551 cumulative IPC: 1.98705 (Simulation time: 0 hr 13 min 48 sec) 
Heartbeat CPU 0 instructions: 23000003 cycles: 11599063 heartbeat IPC: 1.89629 cumulative IPC: 1.98292 (Simulation time: 0 hr 14 min 21 sec) 
Heartbeat CPU 0 instructions: 24000000 cycles: 12126780 heartbeat IPC: 1.89495 cumulative IPC: 1.97909 (Simulation time: 0 hr 14 min 59 sec) 
Heartbeat CPU 0 instructions: 25000000 cycles: 12654061 heartbeat IPC: 1.89652 cumulative IPC: 1.97565 (Simulation time: 0 hr 15 min 37 sec) 
Heartbeat CPU 0 instructions: 26000003 cycles: 13181037 heartbeat IPC: 1.89763 cumulative IPC: 1.97253 (Simulation time: 0 hr 16 min 18 sec) 
Heartbeat CPU 0 instructions: 27000001 cycles: 13707939 heartbeat IPC: 1.89788 cumulative IPC: 1.96966 (Simulation time: 0 hr 16 min 54 sec) 
Heartbeat CPU 0 instructions: 28000000 cycles: 14234997 heartbeat IPC: 1.89732 cumulative IPC: 1.96698 (Simulation time: 0 hr 17 min 27 sec) 
Heartbeat CPU 0 instructions: 29000003 cycles: 14865529 heartbeat IPC: 1.58597 cumulative IPC: 1.95082 (Simulation time: 0 hr 17 min 59 sec) 
Heartbeat CPU 0 instructions: 30000003 cycles: 15479036 heartbeat IPC: 1.62997 cumulative IPC: 1.93811 (Simulation time: 0 hr 18 min 34 sec) 
Heartbeat CPU 0 instructions: 31000001 cycles: 16036365 heartbeat IPC: 1.79427 cumulative IPC: 1.93311 (Simulation time: 0 hr 19 min 15 sec) 
Heartbeat CPU 0 instructions: 32000000 cycles: 16591943 heartbeat IPC: 1.79993 cumulative IPC: 1.92865 (Simulation time: 0 hr 19 min 50 sec) 
Heartbeat CPU 0 instructions: 33000001 cycles: 17212761 heartbeat IPC: 1.61078 cumulative IPC: 1.91718 (Simulation time: 0 hr 20 min 30 sec) 
Heartbeat CPU 0 instructions: 34000003 cycles: 17833333 heartbeat IPC: 1.61142 cumulative IPC: 1.90654 (Simulation time: 0 hr 21 min 8 sec) 
Heartbeat CPU 0 instructions: 35000002 cycles: 18516763 heartbeat IPC: 1.46321 cumulative IPC: 1.89018 (Simulation time: 0 hr 21 min 44 sec) 
Heartbeat CPU 0 instructions: 36000000 cycles: 19069576 heartbeat IPC: 1.80893 cumulative IPC: 1.88782 (Simulation time: 0 hr 22 min 26 sec) 
Heartbeat CPU 0 instructions: 37000001 cycles: 19623066 heartbeat IPC: 1.80672 cumulative IPC: 1.88554 (Simulation time: 0 hr 23 min 6 sec) 
Heartbeat CPU 0 instructions: 38000001 cycles: 20173251 heartbeat IPC: 1.81757 cumulative IPC: 1.88368 (Simulation time: 0 hr 23 min 45 sec) 
Heartbeat CPU 0 instructions: 39000002 cycles: 20724719 heartbeat IPC: 1.81334 cumulative IPC: 1.88181 (Simulation time: 0 hr 24 min 21 sec) 
Heartbeat CPU 0 instructions: 40000000 cycles: 21277177 heartbeat IPC: 1.81009 cumulative IPC: 1.87995 (Simulation time: 0 hr 24 min 55 sec) 
Heartbeat CPU 0 instructions: 41000000 cycles: 21829692 heartbeat IPC: 1.80991 cumulative IPC: 1.87818 (Simulation time: 0 hr 25 min 35 sec) 
Heartbeat CPU 0 instructions: 42000000 cycles: 22382167 heartbeat IPC: 1.81004 cumulative IPC: 1.87649 (Simulation time: 0 hr 26 min 10 sec) 
Heartbeat CPU 0 instructions: 43000000 cycles: 22932661 heartbeat IPC: 1.81655 cumulative IPC: 1.87505 (Simulation time: 0 hr 26 min 47 sec) 
Heartbeat CPU 0 instructions: 44000000 cycles: 23336514 heartbeat IPC: 2.47615 cumulative IPC: 1.88546 (Simulation time: 0 hr 27 min 17 sec) 
Heartbeat CPU 0 instructions: 45000000 cycles: 23726022 heartbeat IPC: 2.56734 cumulative IPC: 1.89665 (Simulation time: 0 hr 27 min 45 sec) 
Heartbeat CPU 0 instructions: 46000000 cycles: 24116145 heartbeat IPC: 2.56329 cumulative IPC: 1.90744 (Simulation time: 0 hr 28 min 22 sec) 
Heartbeat CPU 0 instructions: 47000002 cycles: 24506639 heartbeat IPC: 2.56086 cumulative IPC: 1.91785 (Simulation time: 0 hr 28 min 50 sec) 
Heartbeat CPU 0 instructions: 48000000 cycles: 24896747 heartbeat IPC: 2.56339 cumulative IPC: 1.92796 (Simulation time: 0 hr 29 min 18 sec) 
Heartbeat CPU 0 instructions: 49000001 cycles: 25285994 heartbeat IPC: 2.56907 cumulative IPC: 1.93783 (Simulation time: 0 hr 29 min 46 sec) 
Heartbeat CPU 0 instructions: 50000003 cycles: 25676661 heartbeat IPC: 2.55973 cumulative IPC: 1.94729 (Simulation time: 0 hr 30 min 20 sec) 

Warmup complete CPU 0 instructions: 50000003 cycles: 25676661 (Simulation time: 0 hr 30 min 20 sec) 

Heartbeat CPU 0 instructions: 51000001 cycles: 26516248 heartbeat IPC: 1.19106 cumulative IPC: 1.19106 (Simulation time: 0 hr 30 min 51 sec) 
Heartbeat CPU 0 instructions: 52000000 cycles: 27418443 heartbeat IPC: 1.10841 cumulative IPC: 1.14825 (Simulation time: 0 hr 31 min 33 sec) 
Heartbeat CPU 0 instructions: 53000002 cycles: 28366656 heartbeat IPC: 1.05462 cumulative IPC: 1.11524 (Simulation time: 0 hr 32 min 14 sec) 
Heartbeat CPU 0 instructions: 54000001 cycles: 29318797 heartbeat IPC: 1.05026 cumulative IPC: 1.09826 (Simulation time: 0 hr 32 min 50 sec) 
Heartbeat CPU 0 instructions: 55000001 cycles: 30239071 heartbeat IPC: 1.08663 cumulative IPC: 1.09591 (Simulation time: 0 hr 33 min 25 sec) 
Heartbeat CPU 0 instructions: 56000000 cycles: 31189910 heartbeat IPC: 1.0517 cumulative IPC: 1.08829 (Simulation time: 0 hr 34 min 2 sec) 
Heartbeat CPU 0 instructions: 57000001 cycles: 32124553 heartbeat IPC: 1.06993 cumulative IPC: 1.08563 (Simulation time: 0 hr 34 min 45 sec) 
Heartbeat CPU 0 instructions: 58000000 cycles: 33053183 heartbeat IPC: 1.07685 cumulative IPC: 1.08452 (Simulation time: 0 hr 35 min 30 sec) 
Heartbeat CPU 0 instructions: 59000001 cycles: 34867937 heartbeat IPC: 0.551039 cumulative IPC: 0.979189 (Simulation time: 0 hr 36 min 13 sec) 
Heartbeat CPU 0 instructions: 60000000 cycles: 36456226 heartbeat IPC: 0.629608 cumulative IPC: 0.927681 (Simulation time: 0 hr 36 min 53 sec) 
Heartbeat CPU 0 instructions: 61000000 cycles: 38811941 heartbeat IPC: 0.4245 cumulative IPC: 0.837439 (Simulation time: 0 hr 37 min 34 sec) 
Heartbeat CPU 0 instructions: 62000001 cycles: 40499507 heartbeat IPC: 0.59257 cumulative IPC: 0.809561 (Simulation time: 0 hr 38 min 16 sec) 
Heartbeat CPU 0 instructions: 63000001 cycles: 41966242 heartbeat IPC: 0.681786 cumulative IPC: 0.798056 (Simulation time: 0 hr 38 min 54 sec) 
Heartbeat CPU 0 instructions: 64000000 cycles: 43505438 heartbeat IPC: 0.649689 cumulative IPC: 0.785247 (Simulation time: 0 hr 39 min 37 sec) 
Heartbeat CPU 0 instructions: 65000003 cycles: 45000260 heartbeat IPC: 0.668978 cumulative IPC: 0.776253 (Simulation time: 0 hr 40 min 17 sec) 
Heartbeat CPU 0 instructions: 66000000 cycles: 46495698 heartbeat IPC: 0.668698 cumulative IPC: 0.768527 (Simulation time: 0 hr 41 min 3 sec) 
Heartbeat CPU 0 instructions: 67000000 cycles: 47990607 heartbeat IPC: 0.668937 cumulative IPC: 0.761855 (Simulation time: 0 hr 41 min 43 sec) 
Heartbeat CPU 0 instructions: 68000000 cycles: 49485528 heartbeat IPC: 0.668932 cumulative IPC: 0.756021 (Simulation time: 0 hr 42 min 27 sec) 
Heartbeat CPU 0 instructions: 69000000 cycles: 50992865 heartbeat IPC: 0.663422 cumulative IPC: 0.750507 (Simulation time: 0 hr 43 min 9 sec) 
Heartbeat CPU 0 instructions: 70000001 cycles: 52489420 heartbeat IPC: 0.668202 cumulative IPC: 0.745913 (Simulation time: 0 hr 43 min 54 sec) 
Heartbeat CPU 0 instructions: 71000001 cycles: 53983486 heartbeat IPC: 0.669315 cumulative IPC: 0.74187 (Simulation time: 0 hr 44 min 37 sec) 
Heartbeat CPU 0 instructions: 72000000 cycles: 55466441 heartbeat IPC: 0.674329 cumulative IPC: 0.738508 (Simulation time: 0 hr 45 min 25 sec) 
Heartbeat CPU 0 instructions: 73000003 cycles: 56954151 heartbeat IPC: 0.672176 cumulative IPC: 0.735353 (Simulation time: 0 hr 46 min 16 sec) 
Heartbeat CPU 0 instructions: 74000000 cycles: 58451681 heartbeat IPC: 0.667764 cumulative IPC: 0.732265 (Simulation time: 0 hr 47 min 11 sec) 
Heartbeat CPU 0 instructions: 75000001 cycles: 59945531 heartbeat IPC: 0.669412 cumulative IPC: 0.729525 (Simulation time: 0 hr 47 min 55 sec) 
Heartbeat CPU 0 instructions: 76000000 cycles: 61441969 heartbeat IPC: 0.668253 cumulative IPC: 0.726961 (Simulation time: 0 hr 48 min 35 sec) 
Heartbeat CPU 0 instructions: 77000003 cycles: 62935909 heartbeat IPC: 0.669373 cumulative IPC: 0.724652 (Simulation time: 0 hr 49 min 24 sec) 
Heartbeat CPU 0 instructions: 78000001 cycles: 64431213 heartbeat IPC: 0.668759 cumulative IPC: 0.722496 (Simulation time: 0 hr 50 min 14 sec) 
Heartbeat CPU 0 instructions: 79000000 cycles: 65927865 heartbeat IPC: 0.668157 cumulative IPC: 0.720475 (Simulation time: 0 hr 51 min 0 sec) 
Heartbeat CPU 0 instructions: 80000000 cycles: 67418603 heartbeat IPC: 0.670809 cumulative IPC: 0.718702 (Simulation time: 0 hr 51 min 45 sec) 
Heartbeat CPU 0 instructions: 81000001 cycles: 68902654 heartbeat IPC: 0.673832 cumulative IPC: 0.717161 (Simulation time: 0 hr 52 min 33 sec) 
Heartbeat CPU 0 instructions: 82000000 cycles: 70385762 heartbeat IPC: 0.674259 cumulative IPC: 0.715738 (Simulation time: 0 hr 53 min 16 sec) 
Heartbeat CPU 0 instructions: 83000000 cycles: 71869267 heartbeat IPC: 0.674079 cumulative IPC: 0.7144 (Simulation time: 0 hr 54 min 5 sec) 
Heartbeat CPU 0 instructions: 84000000 cycles: 73364168 heartbeat IPC: 0.668941 cumulative IPC: 0.712975 (Simulation time: 0 hr 54 min 50 sec) 
Heartbeat CPU 0 instructions: 85000000 cycles: 74859050 heartbeat IPC: 0.668949 cumulative IPC: 0.711637 (Simulation time: 0 hr 55 min 30 sec) 
Heartbeat CPU 0 instructions: 86000000 cycles: 76352849 heartbeat IPC: 0.669434 cumulative IPC: 0.710393 (Simulation time: 0 hr 56 min 14 sec) 
Heartbeat CPU 0 instructions: 87000000 cycles: 77847705 heartbeat IPC: 0.668961 cumulative IPC: 0.709206 (Simulation time: 0 hr 57 min 9 sec) 
Heartbeat CPU 0 instructions: 88000000 cycles: 79342922 heartbeat IPC: 0.668799 cumulative IPC: 0.70808 (Simulation time: 0 hr 57 min 52 sec) 
Heartbeat CPU 0 instructions: 89000002 cycles: 80838551 heartbeat IPC: 0.668616 cumulative IPC: 0.70701 (Simulation time: 0 hr 58 min 31 sec) 
Heartbeat CPU 0 instructions: 90000000 cycles: 82322886 heartbeat IPC: 0.673701 cumulative IPC: 0.706137 (Simulation time: 0 hr 59 min 15 sec) 
Heartbeat CPU 0 instructions: 91000000 cycles: 83806631 heartbeat IPC: 0.67397 cumulative IPC: 0.705316 (Simulation time: 0 hr 59 min 58 sec) 
Heartbeat CPU 0 instructions: 92000000 cycles: 85290472 heartbeat IPC: 0.673927 cumulative IPC: 0.704535 (Simulation time: 1 hr 0 min 38 sec) 
Heartbeat CPU 0 instructions: 93000000 cycles: 86780211 heartbeat IPC: 0.671259 cumulative IPC: 0.703723 (Simulation time: 1 hr 1 min 26 sec) 
Heartbeat CPU 0 instructions: 94000003 cycles: 88274094 heartbeat IPC: 0.669398 cumulative IPC: 0.702904 (Simulation time: 1 hr 2 min 15 sec) 
Heartbeat CPU 0 instructions: 95000000 cycles: 89769895 heartbeat IPC: 0.668536 cumulative IPC: 0.702102 (Simulation time: 1 hr 3 min 1 sec) 
Heartbeat CPU 0 instructions: 96000000 cycles: 91263844 heartbeat IPC: 0.669367 cumulative IPC: 0.701356 (Simulation time: 1 hr 3 min 44 sec) 
Heartbeat CPU 0 instructions: 97000001 cycles: 92759388 heartbeat IPC: 0.668654 cumulative IPC: 0.700627 (Simulation time: 1 hr 4 min 40 sec) 
Heartbeat CPU 0 instructions: 98000003 cycles: 94254745 heartbeat IPC: 0.668738 cumulative IPC: 0.699932 (Simulation time: 1 hr 5 min 25 sec) 
Heartbeat CPU 0 instructions: 99000000 cycles: 95743847 heartbeat IPC: 0.671544 cumulative IPC: 0.699329 (Simulation time: 1 hr 6 min 8 sec) 
Heartbeat CPU 0 instructions: 100000000 cycles: 97227462 heartbeat IPC: 0.674029 cumulative IPC: 0.698804 (Simulation time: 1 hr 6 min 49 sec) 
Heartbeat CPU 0 instructions: 101000000 cycles: 98710668 heartbeat IPC: 0.674215 cumulative IPC: 0.698305 (Simulation time: 1 hr 7 min 34 sec) 
Heartbeat CPU 0 instructions: 102000003 cycles: 100194256 heartbeat IPC: 0.674044 cumulative IPC: 0.697822 (Simulation time: 1 hr 8 min 20 sec) 
Heartbeat CPU 0 instructions: 103000003 cycles: 101690517 heartbeat IPC: 0.668333 cumulative IPC: 0.697241 (Simulation time: 1 hr 9 min 8 sec) 
Heartbeat CPU 0 instructions: 104000000 cycles: 103185048 heartbeat IPC: 0.669104 cumulative IPC: 0.696699 (Simulation time: 1 hr 9 min 54 sec) 
Heartbeat CPU 0 instructions: 105000000 cycles: 104679858 heartbeat IPC: 0.668981 cumulative IPC: 0.696174 (Simulation time: 1 hr 10 min 33 sec) 
Heartbeat CPU 0 instructions: 106000000 cycles: 106174916 heartbeat IPC: 0.66887 cumulative IPC: 0.695667 (Simulation time: 1 hr 11 min 28 sec) 
Heartbeat CPU 0 instructions: 107000000 cycles: 107670756 heartbeat IPC: 0.668521 cumulative IPC: 0.695172 (Simulation time: 1 hr 12 min 7 sec) 
Heartbeat CPU 0 instructions: 108000000 cycles: 109166334 heartbeat IPC: 0.668638 cumulative IPC: 0.694697 (Simulation time: 1 hr 12 min 47 sec) 
Heartbeat CPU 0 instructions: 109000003 cycles: 110649177 heartbeat IPC: 0.674382 cumulative IPC: 0.694342 (Simulation time: 1 hr 13 min 24 sec) 
Heartbeat CPU 0 instructions: 110000001 cycles: 112132374 heartbeat IPC: 0.674218 cumulative IPC: 0.693997 (Simulation time: 1 hr 14 min 9 sec) 
Heartbeat CPU 0 instructions: 111000000 cycles: 113615952 heartbeat IPC: 0.674045 cumulative IPC: 0.69366 (Simulation time: 1 hr 14 min 47 sec) 
Heartbeat CPU 0 instructions: 112000000 cycles: 115107325 heartbeat IPC: 0.670523 cumulative IPC: 0.693274 (Simulation time: 1 hr 15 min 23 sec) 
Heartbeat CPU 0 instructions: 113000000 cycles: 116601319 heartbeat IPC: 0.669347 cumulative IPC: 0.692881 (Simulation time: 1 hr 16 min 1 sec) 
Heartbeat CPU 0 instructions: 114000000 cycles: 118097088 heartbeat IPC: 0.668552 cumulative IPC: 0.692488 (Simulation time: 1 hr 16 min 39 sec) 
Heartbeat CPU 0 instructions: 115000003 cycles: 119591182 heartbeat IPC: 0.669304 cumulative IPC: 0.692119 (Simulation time: 1 hr 17 min 15 sec) 
Heartbeat CPU 0 instructions: 116000000 cycles: 121087255 heartbeat IPC: 0.668415 cumulative IPC: 0.691747 (Simulation time: 1 hr 17 min 52 sec) 
Heartbeat CPU 0 instructions: 117000000 cycles: 122582848 heartbeat IPC: 0.668631 cumulative IPC: 0.69139 (Simulation time: 1 hr 18 min 28 sec) 
Heartbeat CPU 0 instructions: 118000000 cycles: 124070754 heartbeat IPC: 0.672085 cumulative IPC: 0.691098 (Simulation time: 1 hr 19 min 4 sec) 
Heartbeat CPU 0 instructions: 119000001 cycles: 125554671 heartbeat IPC: 0.673893 cumulative IPC: 0.690843 (Simulation time: 1 hr 19 min 42 sec) 
Heartbeat CPU 0 instructions: 120000000 cycles: 127037934 heartbeat IPC: 0.674189 cumulative IPC: 0.690599 (Simulation time: 1 hr 20 min 17 sec) 
Heartbeat CPU 0 instructions: 121000000 cycles: 128522647 heartbeat IPC: 0.673531 cumulative IPC: 0.690353 (Simulation time: 1 hr 20 min 50 sec) 
Heartbeat CPU 0 instructions: 122000002 cycles: 130020931 heartbeat IPC: 0.667432 cumulative IPC: 0.690023 (Simulation time: 1 hr 21 min 23 sec) 
Heartbeat CPU 0 instructions: 123000002 cycles: 131522506 heartbeat IPC: 0.665967 cumulative IPC: 0.689682 (Simulation time: 1 hr 21 min 58 sec) 
Heartbeat CPU 0 instructions: 124000000 cycles: 133019723 heartbeat IPC: 0.667904 cumulative IPC: 0.689378 (Simulation time: 1 hr 22 min 30 sec) 
Heartbeat CPU 0 instructions: 125000000 cycles: 134515519 heartbeat IPC: 0.66854 cumulative IPC: 0.689092 (Simulation time: 1 hr 23 min 1 sec) 
Heartbeat CPU 0 instructions: 126000000 cycles: 136028626 heartbeat IPC: 0.660892 cumulative IPC: 0.688705 (Simulation time: 1 hr 23 min 31 sec) 
Heartbeat CPU 0 instructions: 127000000 cycles: 137525543 heartbeat IPC: 0.66804 cumulative IPC: 0.688429 (Simulation time: 1 hr 24 min 4 sec) 
Heartbeat CPU 0 instructions: 128000000 cycles: 139016512 heartbeat IPC: 0.670705 cumulative IPC: 0.688196 (Simulation time: 1 hr 24 min 38 sec) 
Heartbeat CPU 0 instructions: 129000000 cycles: 140500159 heartbeat IPC: 0.674015 cumulative IPC: 0.688012 (Simulation time: 1 hr 25 min 6 sec) 
Heartbeat CPU 0 instructions: 130000001 cycles: 141990579 heartbeat IPC: 0.670952 cumulative IPC: 0.687794 (Simulation time: 1 hr 25 min 39 sec) 
Heartbeat CPU 0 instructions: 131000001 cycles: 143485732 heartbeat IPC: 0.668828 cumulative IPC: 0.687553 (Simulation time: 1 hr 26 min 12 sec) 
Heartbeat CPU 0 instructions: 132000000 cycles: 144981225 heartbeat IPC: 0.668675 cumulative IPC: 0.687317 (Simulation time: 1 hr 26 min 41 sec) 
Heartbeat CPU 0 instructions: 133000000 cycles: 146479635 heartbeat IPC: 0.667374 cumulative IPC: 0.687069 (Simulation time: 1 hr 27 min 13 sec) 
Heartbeat CPU 0 instructions: 134000000 cycles: 147974191 heartbeat IPC: 0.669095 cumulative IPC: 0.686849 (Simulation time: 1 hr 27 min 41 sec) 
Heartbeat CPU 0 instructions: 135000001 cycles: 149469426 heartbeat IPC: 0.668792 cumulative IPC: 0.686631 (Simulation time: 1 hr 28 min 7 sec) 
Heartbeat CPU 0 instructions: 136000000 cycles: 150967079 heartbeat IPC: 0.667711 cumulative IPC: 0.686405 (Simulation time: 1 hr 28 min 36 sec) 
Heartbeat CPU 0 instructions: 137000002 cycles: 152453757 heartbeat IPC: 0.672642 cumulative IPC: 0.686244 (Simulation time: 1 hr 29 min 2 sec) 
Heartbeat CPU 0 instructions: 138000001 cycles: 153938562 heartbeat IPC: 0.673488 cumulative IPC: 0.686096 (Simulation time: 1 hr 29 min 28 sec) 
Heartbeat CPU 0 instructions: 139000001 cycles: 155422253 heartbeat IPC: 0.673995 cumulative IPC: 0.685958 (Simulation time: 1 hr 29 min 52 sec) 
Heartbeat CPU 0 instructions: 140000000 cycles: 156908249 heartbeat IPC: 0.672949 cumulative IPC: 0.68581 (Simulation time: 1 hr 30 min 16 sec) 
Heartbeat CPU 0 instructions: 141000002 cycles: 158404375 heartbeat IPC: 0.668394 cumulative IPC: 0.685614 (Simulation time: 1 hr 30 min 41 sec) 
Heartbeat CPU 0 instructions: 142000000 cycles: 159899457 heartbeat IPC: 0.668858 cumulative IPC: 0.685427 (Simulation time: 1 hr 31 min 5 sec) 
Heartbeat CPU 0 instructions: 143000000 cycles: 161393859 heartbeat IPC: 0.669164 cumulative IPC: 0.685248 (Simulation time: 1 hr 31 min 27 sec) 
Heartbeat CPU 0 instructions: 144000000 cycles: 162888642 heartbeat IPC: 0.668993 cumulative IPC: 0.685071 (Simulation time: 1 hr 31 min 47 sec) 
Heartbeat CPU 0 instructions: 145000000 cycles: 164384886 heartbeat IPC: 0.66834 cumulative IPC: 0.684891 (Simulation time: 1 hr 32 min 4 sec) 
Heartbeat CPU 0 instructions: 146000000 cycles: 165876614 heartbeat IPC: 0.670363 cumulative IPC: 0.684736 (Simulation time: 1 hr 32 min 22 sec) 
Heartbeat CPU 0 instructions: 147000003 cycles: 167359455 heartbeat IPC: 0.674383 cumulative IPC: 0.684628 (Simulation time: 1 hr 32 min 39 sec) 
Heartbeat CPU 0 instructions: 148000000 cycles: 168843550 heartbeat IPC: 0.673809 cumulative IPC: 0.684516 (Simulation time: 1 hr 32 min 56 sec) 
Heartbeat CPU 0 instructions: 149000002 cycles: 170327037 heartbeat IPC: 0.674089 cumulative IPC: 0.684409 (Simulation time: 1 hr 33 min 12 sec) 
Heartbeat CPU 0 instructions: 150000001 cycles: 171820567 heartbeat IPC: 0.669554 cumulative IPC: 0.684257 (Simulation time: 1 hr 33 min 29 sec) 
Finished CPU 0 instructions: 100000001 cycles: 146143910 cummulative IPC: 0.684257 (Simulation time: 1 hr 33 min 29 sec) 

ChampSim completed all CPUs

Region of Interest Statistics

CPU 0 cummulative IPC: 0.684257 instructions: 100000001 cycles: 146143910
LLC TOTAL     ACCESS:     644688  HIT:     138780  MISS:     505908
LLC LOAD      ACCESS:      35814  HIT:      11653  MISS:      24161
LLC RFO       ACCESS:     120254  HIT:       1544  MISS:     118710
LLC PREFETCH  ACCESS:     305996  HIT:      55761  MISS:     250235
LLC WRITEBACK ACCESS:     182624  HIT:      69822  MISS:     112802
OPTgen accesses: 5897
OPTgen hits: 1958
OPTgen hit rate: 33.2033


