
*** ChampSim Multicore Out-of-Order Simulator ***

Warmup Instructions: 50000000
Simulation Instructions: 100000000
Configuration: 2
Number of CPUs: 1
LLC sets: 2048
LLC ways: 16
Off-chip DRAM Channels: 1 Width: 64-bit Data Rate: 1600 MT/s

CPU 0 runs /datasets/cs240c-wi22-a00-public/data/Assignment2-gz/mcf_250B.trace.gz
CPU 0 L1D next line prefetcher
CPU 0 L2C IP-based stride prefetcher
Initialize Hawkeye state
Heartbeat CPU 0 instructions: 1000000 cycles: 532172 heartbeat IPC: 1.87909 cumulative IPC: 1.87909 (Simulation time: 0 hr 0 min 51 sec) 
Heartbeat CPU 0 instructions: 2000003 cycles: 1045290 heartbeat IPC: 1.94888 cumulative IPC: 1.91335 (Simulation time: 0 hr 1 min 44 sec) 
Heartbeat CPU 0 instructions: 3000002 cycles: 1542264 heartbeat IPC: 2.01218 cumulative IPC: 1.94519 (Simulation time: 0 hr 2 min 37 sec) 
Heartbeat CPU 0 instructions: 4000000 cycles: 2053804 heartbeat IPC: 1.95488 cumulative IPC: 1.94761 (Simulation time: 0 hr 3 min 29 sec) 
Heartbeat CPU 0 instructions: 5000002 cycles: 2560098 heartbeat IPC: 1.97514 cumulative IPC: 1.95305 (Simulation time: 0 hr 4 min 19 sec) 
Heartbeat CPU 0 instructions: 6000002 cycles: 3065726 heartbeat IPC: 1.97774 cumulative IPC: 1.95712 (Simulation time: 0 hr 5 min 17 sec) 
Heartbeat CPU 0 instructions: 7000002 cycles: 3605598 heartbeat IPC: 1.85229 cumulative IPC: 1.94143 (Simulation time: 0 hr 6 min 7 sec) 
Heartbeat CPU 0 instructions: 8000000 cycles: 4120653 heartbeat IPC: 1.94154 cumulative IPC: 1.94144 (Simulation time: 0 hr 6 min 59 sec) 
Heartbeat CPU 0 instructions: 9000002 cycles: 4635178 heartbeat IPC: 1.94354 cumulative IPC: 1.94167 (Simulation time: 0 hr 7 min 50 sec) 
Heartbeat CPU 0 instructions: 10000000 cycles: 5146435 heartbeat IPC: 1.95596 cumulative IPC: 1.94309 (Simulation time: 0 hr 8 min 42 sec) 
Heartbeat CPU 0 instructions: 11000001 cycles: 5658629 heartbeat IPC: 1.95239 cumulative IPC: 1.94393 (Simulation time: 0 hr 9 min 28 sec) 
Heartbeat CPU 0 instructions: 12000000 cycles: 6192327 heartbeat IPC: 1.87372 cumulative IPC: 1.93788 (Simulation time: 0 hr 10 min 13 sec) 
Heartbeat CPU 0 instructions: 13000001 cycles: 6711876 heartbeat IPC: 1.92475 cumulative IPC: 1.93687 (Simulation time: 0 hr 11 min 7 sec) 
Heartbeat CPU 0 instructions: 14000003 cycles: 7224901 heartbeat IPC: 1.94923 cumulative IPC: 1.93774 (Simulation time: 0 hr 11 min 53 sec) 
Heartbeat CPU 0 instructions: 15000002 cycles: 7738056 heartbeat IPC: 1.94873 cumulative IPC: 1.93847 (Simulation time: 0 hr 12 min 39 sec) 
Heartbeat CPU 0 instructions: 16000000 cycles: 8247183 heartbeat IPC: 1.96414 cumulative IPC: 1.94006 (Simulation time: 0 hr 13 min 25 sec) 
Heartbeat CPU 0 instructions: 17000000 cycles: 8758885 heartbeat IPC: 1.95426 cumulative IPC: 1.94089 (Simulation time: 0 hr 14 min 11 sec) 
Heartbeat CPU 0 instructions: 18000002 cycles: 9268468 heartbeat IPC: 1.96239 cumulative IPC: 1.94207 (Simulation time: 0 hr 14 min 58 sec) 
Heartbeat CPU 0 instructions: 19000001 cycles: 9780318 heartbeat IPC: 1.9537 cumulative IPC: 1.94268 (Simulation time: 0 hr 15 min 45 sec) 
Heartbeat CPU 0 instructions: 20000000 cycles: 10291391 heartbeat IPC: 1.95667 cumulative IPC: 1.94337 (Simulation time: 0 hr 16 min 36 sec) 
Heartbeat CPU 0 instructions: 21000001 cycles: 10798468 heartbeat IPC: 1.97209 cumulative IPC: 1.94472 (Simulation time: 0 hr 17 min 22 sec) 
Heartbeat CPU 0 instructions: 22000000 cycles: 11303113 heartbeat IPC: 1.98159 cumulative IPC: 1.94637 (Simulation time: 0 hr 18 min 6 sec) 
Heartbeat CPU 0 instructions: 23000003 cycles: 11811896 heartbeat IPC: 1.96548 cumulative IPC: 1.94719 (Simulation time: 0 hr 19 min 0 sec) 
Heartbeat CPU 0 instructions: 24000000 cycles: 12319303 heartbeat IPC: 1.9708 cumulative IPC: 1.94816 (Simulation time: 0 hr 19 min 50 sec) 
Heartbeat CPU 0 instructions: 25000002 cycles: 12828810 heartbeat IPC: 1.96269 cumulative IPC: 1.94874 (Simulation time: 0 hr 20 min 40 sec) 
Heartbeat CPU 0 instructions: 26000000 cycles: 13342388 heartbeat IPC: 1.94712 cumulative IPC: 1.94868 (Simulation time: 0 hr 21 min 33 sec) 
Heartbeat CPU 0 instructions: 27000003 cycles: 13856867 heartbeat IPC: 1.94372 cumulative IPC: 1.94849 (Simulation time: 0 hr 22 min 24 sec) 
Heartbeat CPU 0 instructions: 28000000 cycles: 14371127 heartbeat IPC: 1.94454 cumulative IPC: 1.94835 (Simulation time: 0 hr 23 min 16 sec) 
Heartbeat CPU 0 instructions: 29000000 cycles: 14885786 heartbeat IPC: 1.94303 cumulative IPC: 1.94817 (Simulation time: 0 hr 24 min 8 sec) 
Heartbeat CPU 0 instructions: 30000000 cycles: 15400283 heartbeat IPC: 1.94365 cumulative IPC: 1.94802 (Simulation time: 0 hr 24 min 59 sec) 
Heartbeat CPU 0 instructions: 31000000 cycles: 15913821 heartbeat IPC: 1.94728 cumulative IPC: 1.94799 (Simulation time: 0 hr 25 min 48 sec) 
Heartbeat CPU 0 instructions: 32000000 cycles: 16422170 heartbeat IPC: 1.96715 cumulative IPC: 1.94859 (Simulation time: 0 hr 26 min 33 sec) 
Heartbeat CPU 0 instructions: 33000002 cycles: 16935196 heartbeat IPC: 1.94922 cumulative IPC: 1.9486 (Simulation time: 0 hr 27 min 20 sec) 
Heartbeat CPU 0 instructions: 34000000 cycles: 17449077 heartbeat IPC: 1.94597 cumulative IPC: 1.94853 (Simulation time: 0 hr 28 min 3 sec) 
Heartbeat CPU 0 instructions: 35000000 cycles: 17974259 heartbeat IPC: 1.9041 cumulative IPC: 1.94723 (Simulation time: 0 hr 29 min 0 sec) 
Heartbeat CPU 0 instructions: 36000000 cycles: 18502860 heartbeat IPC: 1.89179 cumulative IPC: 1.94565 (Simulation time: 0 hr 29 min 55 sec) 
Heartbeat CPU 0 instructions: 37000002 cycles: 19016134 heartbeat IPC: 1.94828 cumulative IPC: 1.94572 (Simulation time: 0 hr 30 min 40 sec) 
Heartbeat CPU 0 instructions: 38000000 cycles: 19529405 heartbeat IPC: 1.94828 cumulative IPC: 1.94578 (Simulation time: 0 hr 31 min 28 sec) 
Heartbeat CPU 0 instructions: 39000002 cycles: 20042592 heartbeat IPC: 1.94861 cumulative IPC: 1.94586 (Simulation time: 0 hr 32 min 11 sec) 
Heartbeat CPU 0 instructions: 40000000 cycles: 20557308 heartbeat IPC: 1.94282 cumulative IPC: 1.94578 (Simulation time: 0 hr 32 min 57 sec) 
Heartbeat CPU 0 instructions: 41000000 cycles: 21071697 heartbeat IPC: 1.94405 cumulative IPC: 1.94574 (Simulation time: 0 hr 33 min 43 sec) 
Heartbeat CPU 0 instructions: 42000000 cycles: 21586922 heartbeat IPC: 1.9409 cumulative IPC: 1.94562 (Simulation time: 0 hr 34 min 30 sec) 
Heartbeat CPU 0 instructions: 43000000 cycles: 22099874 heartbeat IPC: 1.9495 cumulative IPC: 1.94571 (Simulation time: 0 hr 35 min 14 sec) 
Heartbeat CPU 0 instructions: 44000000 cycles: 22612854 heartbeat IPC: 1.94939 cumulative IPC: 1.9458 (Simulation time: 0 hr 36 min 1 sec) 
Heartbeat CPU 0 instructions: 45000001 cycles: 23126988 heartbeat IPC: 1.94502 cumulative IPC: 1.94578 (Simulation time: 0 hr 36 min 52 sec) 
Heartbeat CPU 0 instructions: 46000002 cycles: 23641217 heartbeat IPC: 1.94466 cumulative IPC: 1.94575 (Simulation time: 0 hr 37 min 34 sec) 
Heartbeat CPU 0 instructions: 47000002 cycles: 24155575 heartbeat IPC: 1.94417 cumulative IPC: 1.94572 (Simulation time: 0 hr 38 min 16 sec) 
Heartbeat CPU 0 instructions: 48000000 cycles: 24669722 heartbeat IPC: 1.94497 cumulative IPC: 1.9457 (Simulation time: 0 hr 39 min 0 sec) 
Heartbeat CPU 0 instructions: 49000000 cycles: 25183794 heartbeat IPC: 1.94525 cumulative IPC: 1.9457 (Simulation time: 0 hr 39 min 53 sec) 
Heartbeat CPU 0 instructions: 50000002 cycles: 25697275 heartbeat IPC: 1.9475 cumulative IPC: 1.94573 (Simulation time: 0 hr 40 min 54 sec) 

Warmup complete CPU 0 instructions: 50000002 cycles: 25697275 (Simulation time: 0 hr 40 min 54 sec) 

Heartbeat CPU 0 instructions: 51000002 cycles: 34896800 heartbeat IPC: 0.108701 cumulative IPC: 0.108701 (Simulation time: 0 hr 42 min 10 sec) 
Heartbeat CPU 0 instructions: 52000000 cycles: 44124912 heartbeat IPC: 0.108364 cumulative IPC: 0.108533 (Simulation time: 0 hr 43 min 29 sec) 
Heartbeat CPU 0 instructions: 53000000 cycles: 53315766 heartbeat IPC: 0.108804 cumulative IPC: 0.108623 (Simulation time: 0 hr 44 min 35 sec) 
Heartbeat CPU 0 instructions: 54000000 cycles: 62514307 heartbeat IPC: 0.108713 cumulative IPC: 0.108645 (Simulation time: 0 hr 45 min 38 sec) 
Heartbeat CPU 0 instructions: 55000000 cycles: 71713025 heartbeat IPC: 0.108711 cumulative IPC: 0.108658 (Simulation time: 0 hr 46 min 47 sec) 
Heartbeat CPU 0 instructions: 56000000 cycles: 80871014 heartbeat IPC: 0.109194 cumulative IPC: 0.108747 (Simulation time: 0 hr 47 min 46 sec) 
Heartbeat CPU 0 instructions: 57000000 cycles: 90081939 heartbeat IPC: 0.108567 cumulative IPC: 0.108722 (Simulation time: 0 hr 48 min 46 sec) 
Heartbeat CPU 0 instructions: 58000000 cycles: 99091962 heartbeat IPC: 0.110988 cumulative IPC: 0.109 (Simulation time: 0 hr 49 min 48 sec) 
Heartbeat CPU 0 instructions: 59000001 cycles: 108292323 heartbeat IPC: 0.108691 cumulative IPC: 0.108965 (Simulation time: 0 hr 50 min 49 sec) 
Heartbeat CPU 0 instructions: 60000000 cycles: 117383762 heartbeat IPC: 0.109993 cumulative IPC: 0.109067 (Simulation time: 0 hr 51 min 56 sec) 
Heartbeat CPU 0 instructions: 61000001 cycles: 126333238 heartbeat IPC: 0.111738 cumulative IPC: 0.109305 (Simulation time: 0 hr 53 min 7 sec) 
Heartbeat CPU 0 instructions: 62000000 cycles: 134039797 heartbeat IPC: 0.129759 cumulative IPC: 0.11076 (Simulation time: 0 hr 54 min 9 sec) 
Heartbeat CPU 0 instructions: 63000001 cycles: 142685283 heartbeat IPC: 0.115667 cumulative IPC: 0.111122 (Simulation time: 0 hr 55 min 18 sec) 
Heartbeat CPU 0 instructions: 64000000 cycles: 151752531 heartbeat IPC: 0.110287 cumulative IPC: 0.111062 (Simulation time: 0 hr 56 min 19 sec) 
Heartbeat CPU 0 instructions: 65000000 cycles: 160098536 heartbeat IPC: 0.119818 cumulative IPC: 0.111606 (Simulation time: 0 hr 57 min 21 sec) 
Heartbeat CPU 0 instructions: 66000000 cycles: 168994204 heartbeat IPC: 0.112414 cumulative IPC: 0.111656 (Simulation time: 0 hr 58 min 36 sec) 
Heartbeat CPU 0 instructions: 67000000 cycles: 178102318 heartbeat IPC: 0.109792 cumulative IPC: 0.111545 (Simulation time: 0 hr 59 min 45 sec) 
Heartbeat CPU 0 instructions: 68000000 cycles: 187183307 heartbeat IPC: 0.11012 cumulative IPC: 0.111465 (Simulation time: 1 hr 0 min 56 sec) 
Heartbeat CPU 0 instructions: 69000000 cycles: 196037725 heartbeat IPC: 0.112938 cumulative IPC: 0.111541 (Simulation time: 1 hr 2 min 3 sec) 
Heartbeat CPU 0 instructions: 70000000 cycles: 205132024 heartbeat IPC: 0.109959 cumulative IPC: 0.111461 (Simulation time: 1 hr 3 min 12 sec) 
Heartbeat CPU 0 instructions: 71000000 cycles: 214033155 heartbeat IPC: 0.112345 cumulative IPC: 0.111503 (Simulation time: 1 hr 4 min 17 sec) 
Heartbeat CPU 0 instructions: 72000000 cycles: 222859290 heartbeat IPC: 0.1133 cumulative IPC: 0.111583 (Simulation time: 1 hr 5 min 15 sec) 
Heartbeat CPU 0 instructions: 73000000 cycles: 231906078 heartbeat IPC: 0.110536 cumulative IPC: 0.111537 (Simulation time: 1 hr 6 min 32 sec) 
Heartbeat CPU 0 instructions: 74000001 cycles: 240820568 heartbeat IPC: 0.112177 cumulative IPC: 0.111564 (Simulation time: 1 hr 7 min 35 sec) 
Heartbeat CPU 0 instructions: 75000002 cycles: 249538079 heartbeat IPC: 0.114712 cumulative IPC: 0.111687 (Simulation time: 1 hr 8 min 45 sec) 
Heartbeat CPU 0 instructions: 76000000 cycles: 258632188 heartbeat IPC: 0.109961 cumulative IPC: 0.111619 (Simulation time: 1 hr 9 min 55 sec) 
Heartbeat CPU 0 instructions: 77000003 cycles: 272768307 heartbeat IPC: 0.070741 cumulative IPC: 0.10928 (Simulation time: 1 hr 11 min 20 sec) 
Heartbeat CPU 0 instructions: 78000000 cycles: 282982094 heartbeat IPC: 0.0979066 cumulative IPC: 0.108829 (Simulation time: 1 hr 12 min 27 sec) 
Heartbeat CPU 0 instructions: 79000000 cycles: 291764592 heartbeat IPC: 0.113863 cumulative IPC: 0.108995 (Simulation time: 1 hr 13 min 21 sec) 
Heartbeat CPU 0 instructions: 80000000 cycles: 300481807 heartbeat IPC: 0.114716 cumulative IPC: 0.109176 (Simulation time: 1 hr 14 min 13 sec) 
Heartbeat CPU 0 instructions: 81000001 cycles: 309560005 heartbeat IPC: 0.110154 cumulative IPC: 0.109208 (Simulation time: 1 hr 15 min 8 sec) 
Heartbeat CPU 0 instructions: 82000001 cycles: 317613377 heartbeat IPC: 0.124172 cumulative IPC: 0.109621 (Simulation time: 1 hr 16 min 17 sec) 
Heartbeat CPU 0 instructions: 83000002 cycles: 325149033 heartbeat IPC: 0.132703 cumulative IPC: 0.110201 (Simulation time: 1 hr 17 min 9 sec) 
Heartbeat CPU 0 instructions: 84000000 cycles: 332514757 heartbeat IPC: 0.135764 cumulative IPC: 0.110815 (Simulation time: 1 hr 17 min 58 sec) 
Heartbeat CPU 0 instructions: 85000000 cycles: 340297626 heartbeat IPC: 0.128487 cumulative IPC: 0.111252 (Simulation time: 1 hr 18 min 46 sec) 
Heartbeat CPU 0 instructions: 86000001 cycles: 347897968 heartbeat IPC: 0.131573 cumulative IPC: 0.111732 (Simulation time: 1 hr 19 min 33 sec) 
Heartbeat CPU 0 instructions: 87000001 cycles: 360950004 heartbeat IPC: 0.0766164 cumulative IPC: 0.110364 (Simulation time: 1 hr 20 min 37 sec) 
Heartbeat CPU 0 instructions: 88000000 cycles: 371261007 heartbeat IPC: 0.0969837 cumulative IPC: 0.109965 (Simulation time: 1 hr 21 min 33 sec) 
Heartbeat CPU 0 instructions: 89000001 cycles: 379161136 heartbeat IPC: 0.12658 cumulative IPC: 0.110337 (Simulation time: 1 hr 22 min 21 sec) 
Heartbeat CPU 0 instructions: 90000001 cycles: 385854192 heartbeat IPC: 0.149409 cumulative IPC: 0.111063 (Simulation time: 1 hr 23 min 0 sec) 
Heartbeat CPU 0 instructions: 91000000 cycles: 395656634 heartbeat IPC: 0.102015 cumulative IPC: 0.110823 (Simulation time: 1 hr 23 min 46 sec) 
Heartbeat CPU 0 instructions: 92000000 cycles: 403718947 heartbeat IPC: 0.124034 cumulative IPC: 0.111105 (Simulation time: 1 hr 24 min 27 sec) 
Heartbeat CPU 0 instructions: 93000000 cycles: 412862617 heartbeat IPC: 0.109365 cumulative IPC: 0.111064 (Simulation time: 1 hr 25 min 12 sec) 
Heartbeat CPU 0 instructions: 94000000 cycles: 421955920 heartbeat IPC: 0.109971 cumulative IPC: 0.111039 (Simulation time: 1 hr 25 min 53 sec) 
Heartbeat CPU 0 instructions: 95000000 cycles: 431050441 heartbeat IPC: 0.109956 cumulative IPC: 0.111014 (Simulation time: 1 hr 26 min 31 sec) 
Heartbeat CPU 0 instructions: 96000000 cycles: 440347101 heartbeat IPC: 0.107566 cumulative IPC: 0.110937 (Simulation time: 1 hr 27 min 8 sec) 
Heartbeat CPU 0 instructions: 97000000 cycles: 449335887 heartbeat IPC: 0.11125 cumulative IPC: 0.110944 (Simulation time: 1 hr 27 min 48 sec) 
Heartbeat CPU 0 instructions: 98000000 cycles: 458677442 heartbeat IPC: 0.107049 cumulative IPC: 0.11086 (Simulation time: 1 hr 28 min 23 sec) 
Heartbeat CPU 0 instructions: 99000000 cycles: 467775007 heartbeat IPC: 0.10992 cumulative IPC: 0.11084 (Simulation time: 1 hr 28 min 58 sec) 
Heartbeat CPU 0 instructions: 100000000 cycles: 476769557 heartbeat IPC: 0.111178 cumulative IPC: 0.110847 (Simulation time: 1 hr 29 min 35 sec) 
Heartbeat CPU 0 instructions: 101000002 cycles: 485884843 heartbeat IPC: 0.109706 cumulative IPC: 0.110824 (Simulation time: 1 hr 30 min 10 sec) 
Heartbeat CPU 0 instructions: 102000000 cycles: 495298207 heartbeat IPC: 0.106232 cumulative IPC: 0.110732 (Simulation time: 1 hr 30 min 45 sec) 
Heartbeat CPU 0 instructions: 103000000 cycles: 504510977 heartbeat IPC: 0.108545 cumulative IPC: 0.11069 (Simulation time: 1 hr 31 min 16 sec) 
Heartbeat CPU 0 instructions: 104000000 cycles: 513842614 heartbeat IPC: 0.107162 cumulative IPC: 0.110623 (Simulation time: 1 hr 31 min 44 sec) 
Heartbeat CPU 0 instructions: 105000000 cycles: 523298261 heartbeat IPC: 0.105757 cumulative IPC: 0.11053 (Simulation time: 1 hr 32 min 11 sec) 
Heartbeat CPU 0 instructions: 106000003 cycles: 532502487 heartbeat IPC: 0.108646 cumulative IPC: 0.110496 (Simulation time: 1 hr 32 min 35 sec) 
Heartbeat CPU 0 instructions: 107000003 cycles: 541637986 heartbeat IPC: 0.109463 cumulative IPC: 0.110478 (Simulation time: 1 hr 32 min 59 sec) 
Heartbeat CPU 0 instructions: 108000000 cycles: 550863771 heartbeat IPC: 0.108392 cumulative IPC: 0.110441 (Simulation time: 1 hr 33 min 22 sec) 
Heartbeat CPU 0 instructions: 109000000 cycles: 559962375 heartbeat IPC: 0.109907 cumulative IPC: 0.110432 (Simulation time: 1 hr 33 min 45 sec) 
Heartbeat CPU 0 instructions: 110000000 cycles: 569056499 heartbeat IPC: 0.109961 cumulative IPC: 0.110424 (Simulation time: 1 hr 34 min 8 sec) 
Heartbeat CPU 0 instructions: 111000000 cycles: 578011419 heartbeat IPC: 0.11167 cumulative IPC: 0.110444 (Simulation time: 1 hr 34 min 31 sec) 
Heartbeat CPU 0 instructions: 112000000 cycles: 586941941 heartbeat IPC: 0.111976 cumulative IPC: 0.110469 (Simulation time: 1 hr 34 min 54 sec) 
Heartbeat CPU 0 instructions: 113000001 cycles: 595887299 heartbeat IPC: 0.11179 cumulative IPC: 0.110489 (Simulation time: 1 hr 35 min 14 sec) 
Heartbeat CPU 0 instructions: 114000000 cycles: 604899231 heartbeat IPC: 0.110964 cumulative IPC: 0.110497 (Simulation time: 1 hr 35 min 33 sec) 
Heartbeat CPU 0 instructions: 115000000 cycles: 613967041 heartbeat IPC: 0.11028 cumulative IPC: 0.110494 (Simulation time: 1 hr 35 min 49 sec) 
Heartbeat CPU 0 instructions: 116000000 cycles: 623140994 heartbeat IPC: 0.109004 cumulative IPC: 0.110471 (Simulation time: 1 hr 36 min 5 sec) 
Heartbeat CPU 0 instructions: 117000001 cycles: 632304695 heartbeat IPC: 0.109126 cumulative IPC: 0.11045 (Simulation time: 1 hr 36 min 20 sec) 
Heartbeat CPU 0 instructions: 118000000 cycles: 641323890 heartbeat IPC: 0.110875 cumulative IPC: 0.110457 (Simulation time: 1 hr 36 min 32 sec) 
Heartbeat CPU 0 instructions: 119000000 cycles: 650390493 heartbeat IPC: 0.110295 cumulative IPC: 0.110454 (Simulation time: 1 hr 36 min 43 sec) 
Heartbeat CPU 0 instructions: 120000000 cycles: 659557861 heartbeat IPC: 0.109083 cumulative IPC: 0.110434 (Simulation time: 1 hr 36 min 54 sec) 
Heartbeat CPU 0 instructions: 121000000 cycles: 668518995 heartbeat IPC: 0.111593 cumulative IPC: 0.110451 (Simulation time: 1 hr 37 min 6 sec) 
Heartbeat CPU 0 instructions: 122000001 cycles: 677482063 heartbeat IPC: 0.111569 cumulative IPC: 0.110466 (Simulation time: 1 hr 37 min 16 sec) 
Heartbeat CPU 0 instructions: 123000002 cycles: 686647475 heartbeat IPC: 0.109106 cumulative IPC: 0.110447 (Simulation time: 1 hr 37 min 25 sec) 
Heartbeat CPU 0 instructions: 124000000 cycles: 695828580 heartbeat IPC: 0.108919 cumulative IPC: 0.110426 (Simulation time: 1 hr 37 min 36 sec) 
Heartbeat CPU 0 instructions: 125000001 cycles: 705333872 heartbeat IPC: 0.105205 cumulative IPC: 0.110353 (Simulation time: 1 hr 37 min 45 sec) 
Heartbeat CPU 0 instructions: 126000002 cycles: 714518532 heartbeat IPC: 0.108877 cumulative IPC: 0.110333 (Simulation time: 1 hr 37 min 55 sec) 
Heartbeat CPU 0 instructions: 127000000 cycles: 723728319 heartbeat IPC: 0.10858 cumulative IPC: 0.11031 (Simulation time: 1 hr 38 min 4 sec) 
Heartbeat CPU 0 instructions: 128000000 cycles: 733150886 heartbeat IPC: 0.106128 cumulative IPC: 0.110255 (Simulation time: 1 hr 38 min 13 sec) 
Heartbeat CPU 0 instructions: 129000001 cycles: 742613634 heartbeat IPC: 0.105678 cumulative IPC: 0.110194 (Simulation time: 1 hr 38 min 19 sec) 
Heartbeat CPU 0 instructions: 130000000 cycles: 752071706 heartbeat IPC: 0.10573 cumulative IPC: 0.110136 (Simulation time: 1 hr 38 min 26 sec) 
Heartbeat CPU 0 instructions: 131000000 cycles: 761399957 heartbeat IPC: 0.107201 cumulative IPC: 0.110099 (Simulation time: 1 hr 38 min 33 sec) 
Heartbeat CPU 0 instructions: 132000000 cycles: 770363050 heartbeat IPC: 0.111569 cumulative IPC: 0.110117 (Simulation time: 1 hr 38 min 40 sec) 
Heartbeat CPU 0 instructions: 133000000 cycles: 779440340 heartbeat IPC: 0.110165 cumulative IPC: 0.110117 (Simulation time: 1 hr 38 min 48 sec) 
Heartbeat CPU 0 instructions: 134000002 cycles: 788546808 heartbeat IPC: 0.109812 cumulative IPC: 0.110113 (Simulation time: 1 hr 38 min 55 sec) 
Heartbeat CPU 0 instructions: 135000002 cycles: 797674735 heartbeat IPC: 0.109554 cumulative IPC: 0.110107 (Simulation time: 1 hr 39 min 2 sec) 
Heartbeat CPU 0 instructions: 136000000 cycles: 806911742 heartbeat IPC: 0.10826 cumulative IPC: 0.110085 (Simulation time: 1 hr 39 min 10 sec) 
Heartbeat CPU 0 instructions: 137000000 cycles: 816009165 heartbeat IPC: 0.109921 cumulative IPC: 0.110083 (Simulation time: 1 hr 39 min 18 sec) 
Heartbeat CPU 0 instructions: 138000000 cycles: 825027503 heartbeat IPC: 0.110885 cumulative IPC: 0.110092 (Simulation time: 1 hr 39 min 26 sec) 
Heartbeat CPU 0 instructions: 139000001 cycles: 834073759 heartbeat IPC: 0.110543 cumulative IPC: 0.110097 (Simulation time: 1 hr 39 min 34 sec) 
Heartbeat CPU 0 instructions: 140000000 cycles: 843101242 heartbeat IPC: 0.110773 cumulative IPC: 0.110105 (Simulation time: 1 hr 39 min 43 sec) 
Heartbeat CPU 0 instructions: 141000002 cycles: 856812397 heartbeat IPC: 0.0729335 cumulative IPC: 0.109491 (Simulation time: 1 hr 39 min 53 sec) 
Heartbeat CPU 0 instructions: 142000002 cycles: 867231434 heartbeat IPC: 0.0959782 cumulative IPC: 0.109324 (Simulation time: 1 hr 40 min 1 sec) 
Heartbeat CPU 0 instructions: 143000001 cycles: 876238989 heartbeat IPC: 0.111018 cumulative IPC: 0.109342 (Simulation time: 1 hr 40 min 9 sec) 
Heartbeat CPU 0 instructions: 144000000 cycles: 885168375 heartbeat IPC: 0.11199 cumulative IPC: 0.10937 (Simulation time: 1 hr 40 min 16 sec) 
Heartbeat CPU 0 instructions: 145000000 cycles: 894238410 heartbeat IPC: 0.110253 cumulative IPC: 0.109379 (Simulation time: 1 hr 40 min 22 sec) 
Heartbeat CPU 0 instructions: 146000001 cycles: 902901070 heartbeat IPC: 0.115438 cumulative IPC: 0.109439 (Simulation time: 1 hr 40 min 29 sec) 
Heartbeat CPU 0 instructions: 147000001 cycles: 911504218 heartbeat IPC: 0.116237 cumulative IPC: 0.109505 (Simulation time: 1 hr 40 min 35 sec) 
Heartbeat CPU 0 instructions: 148000000 cycles: 919959148 heartbeat IPC: 0.118274 cumulative IPC: 0.109588 (Simulation time: 1 hr 40 min 41 sec) 
Heartbeat CPU 0 instructions: 149000001 cycles: 928321948 heartbeat IPC: 0.119577 cumulative IPC: 0.10968 (Simulation time: 1 hr 40 min 48 sec) 
Heartbeat CPU 0 instructions: 150000001 cycles: 937108930 heartbeat IPC: 0.113805 cumulative IPC: 0.10972 (Simulation time: 1 hr 40 min 54 sec) 
Finished CPU 0 instructions: 100000001 cycles: 911411704 cummulative IPC: 0.10972 (Simulation time: 1 hr 40 min 54 sec) 

ChampSim completed all CPUs

Region of Interest Statistics

CPU 0 cummulative IPC: 0.10972 instructions: 100000001 cycles: 911411704
LLC TOTAL     ACCESS:   27038506  HIT:   15465691  MISS:   11572815
LLC LOAD      ACCESS:   11745665  HIT:    8848717  MISS:    2896948
LLC RFO       ACCESS:      20880  HIT:       6747  MISS:      14133
LLC PREFETCH  ACCESS:   14998533  HIT:    6414689  MISS:    8583844
LLC WRITEBACK ACCESS:     273428  HIT:     195538  MISS:      77890
OPTgen accesses: 279136
OPTgen hits: 293266
OPTgen hit rate: 105.062


