
*** ChampSim Multicore Out-of-Order Simulator ***

Warmup Instructions: 50000000
Simulation Instructions: 100000000
Configuration: 2
Number of CPUs: 1
LLC sets: 2048
LLC ways: 16
Off-chip DRAM Channels: 1 Width: 64-bit Data Rate: 1600 MT/s

CPU 0 runs /datasets/cs240c-wi22-a00-public/data/Assignment2-gz/perlbench_135B.trace.gz
CPU 0 L1D next line prefetcher
CPU 0 L2C IP-based stride prefetcher
Initialize Hawkeye state
Heartbeat CPU 0 instructions: 1000000 cycles: 600033 heartbeat IPC: 1.66657 cumulative IPC: 1.66657 (Simulation time: 0 hr 0 min 40 sec) 
Heartbeat CPU 0 instructions: 2000000 cycles: 1209301 heartbeat IPC: 1.64131 cumulative IPC: 1.65385 (Simulation time: 0 hr 1 min 24 sec) 
Heartbeat CPU 0 instructions: 3000000 cycles: 1832834 heartbeat IPC: 1.60376 cumulative IPC: 1.63681 (Simulation time: 0 hr 2 min 11 sec) 
Heartbeat CPU 0 instructions: 4000000 cycles: 2492639 heartbeat IPC: 1.5156 cumulative IPC: 1.60473 (Simulation time: 0 hr 2 min 51 sec) 
Heartbeat CPU 0 instructions: 5000001 cycles: 3079302 heartbeat IPC: 1.70456 cumulative IPC: 1.62374 (Simulation time: 0 hr 3 min 34 sec) 
Heartbeat CPU 0 instructions: 6000002 cycles: 3681731 heartbeat IPC: 1.65995 cumulative IPC: 1.62967 (Simulation time: 0 hr 4 min 15 sec) 
Heartbeat CPU 0 instructions: 7000001 cycles: 4282509 heartbeat IPC: 1.66451 cumulative IPC: 1.63456 (Simulation time: 0 hr 4 min 57 sec) 
Heartbeat CPU 0 instructions: 8000000 cycles: 4893000 heartbeat IPC: 1.63802 cumulative IPC: 1.63499 (Simulation time: 0 hr 5 min 34 sec) 
Heartbeat CPU 0 instructions: 9000001 cycles: 5534129 heartbeat IPC: 1.55975 cumulative IPC: 1.62627 (Simulation time: 0 hr 6 min 17 sec) 
Heartbeat CPU 0 instructions: 10000000 cycles: 6192840 heartbeat IPC: 1.51811 cumulative IPC: 1.61477 (Simulation time: 0 hr 7 min 3 sec) 
Heartbeat CPU 0 instructions: 11000003 cycles: 6888953 heartbeat IPC: 1.43655 cumulative IPC: 1.59676 (Simulation time: 0 hr 7 min 47 sec) 
Heartbeat CPU 0 instructions: 12000000 cycles: 7505167 heartbeat IPC: 1.62281 cumulative IPC: 1.5989 (Simulation time: 0 hr 8 min 31 sec) 
Heartbeat CPU 0 instructions: 13000000 cycles: 8134120 heartbeat IPC: 1.58994 cumulative IPC: 1.59821 (Simulation time: 0 hr 9 min 17 sec) 
Heartbeat CPU 0 instructions: 14000002 cycles: 8774601 heartbeat IPC: 1.56133 cumulative IPC: 1.59551 (Simulation time: 0 hr 10 min 1 sec) 
Heartbeat CPU 0 instructions: 15000003 cycles: 9413475 heartbeat IPC: 1.56526 cumulative IPC: 1.59346 (Simulation time: 0 hr 10 min 41 sec) 
Heartbeat CPU 0 instructions: 16000000 cycles: 10053311 heartbeat IPC: 1.5629 cumulative IPC: 1.59152 (Simulation time: 0 hr 11 min 25 sec) 
Heartbeat CPU 0 instructions: 17000000 cycles: 10694467 heartbeat IPC: 1.55968 cumulative IPC: 1.58961 (Simulation time: 0 hr 12 min 4 sec) 
Heartbeat CPU 0 instructions: 18000000 cycles: 11335137 heartbeat IPC: 1.56087 cumulative IPC: 1.58798 (Simulation time: 0 hr 12 min 44 sec) 
Heartbeat CPU 0 instructions: 19000003 cycles: 11972217 heartbeat IPC: 1.56967 cumulative IPC: 1.58701 (Simulation time: 0 hr 13 min 28 sec) 
Heartbeat CPU 0 instructions: 20000000 cycles: 12611056 heartbeat IPC: 1.56533 cumulative IPC: 1.58591 (Simulation time: 0 hr 14 min 12 sec) 
Heartbeat CPU 0 instructions: 21000000 cycles: 13246420 heartbeat IPC: 1.5739 cumulative IPC: 1.58533 (Simulation time: 0 hr 14 min 48 sec) 
Heartbeat CPU 0 instructions: 22000002 cycles: 13885165 heartbeat IPC: 1.56557 cumulative IPC: 1.58442 (Simulation time: 0 hr 15 min 31 sec) 
Heartbeat CPU 0 instructions: 23000003 cycles: 14552678 heartbeat IPC: 1.4981 cumulative IPC: 1.58047 (Simulation time: 0 hr 16 min 15 sec) 
Heartbeat CPU 0 instructions: 24000000 cycles: 15116446 heartbeat IPC: 1.77377 cumulative IPC: 1.58767 (Simulation time: 0 hr 16 min 52 sec) 
Heartbeat CPU 0 instructions: 25000000 cycles: 15773351 heartbeat IPC: 1.52229 cumulative IPC: 1.58495 (Simulation time: 0 hr 17 min 28 sec) 
Heartbeat CPU 0 instructions: 26000001 cycles: 16389265 heartbeat IPC: 1.6236 cumulative IPC: 1.5864 (Simulation time: 0 hr 18 min 4 sec) 
Heartbeat CPU 0 instructions: 27000000 cycles: 17029491 heartbeat IPC: 1.56195 cumulative IPC: 1.58548 (Simulation time: 0 hr 18 min 43 sec) 
Heartbeat CPU 0 instructions: 28000000 cycles: 17670199 heartbeat IPC: 1.56077 cumulative IPC: 1.58459 (Simulation time: 0 hr 19 min 23 sec) 
Heartbeat CPU 0 instructions: 29000000 cycles: 18307729 heartbeat IPC: 1.56855 cumulative IPC: 1.58403 (Simulation time: 0 hr 20 min 7 sec) 
Heartbeat CPU 0 instructions: 30000002 cycles: 18953365 heartbeat IPC: 1.54886 cumulative IPC: 1.58283 (Simulation time: 0 hr 20 min 47 sec) 
Heartbeat CPU 0 instructions: 31000001 cycles: 19589975 heartbeat IPC: 1.57082 cumulative IPC: 1.58244 (Simulation time: 0 hr 21 min 33 sec) 
Heartbeat CPU 0 instructions: 32000000 cycles: 20230145 heartbeat IPC: 1.56208 cumulative IPC: 1.5818 (Simulation time: 0 hr 22 min 13 sec) 
Heartbeat CPU 0 instructions: 33000000 cycles: 20865466 heartbeat IPC: 1.57401 cumulative IPC: 1.58156 (Simulation time: 0 hr 22 min 52 sec) 
Heartbeat CPU 0 instructions: 34000001 cycles: 21501799 heartbeat IPC: 1.57151 cumulative IPC: 1.58126 (Simulation time: 0 hr 23 min 41 sec) 
Heartbeat CPU 0 instructions: 35000003 cycles: 22157549 heartbeat IPC: 1.52497 cumulative IPC: 1.5796 (Simulation time: 0 hr 24 min 18 sec) 
Heartbeat CPU 0 instructions: 36000000 cycles: 22756609 heartbeat IPC: 1.66928 cumulative IPC: 1.58196 (Simulation time: 0 hr 25 min 2 sec) 
Heartbeat CPU 0 instructions: 37000000 cycles: 23371584 heartbeat IPC: 1.62608 cumulative IPC: 1.58312 (Simulation time: 0 hr 25 min 44 sec) 
Heartbeat CPU 0 instructions: 38000002 cycles: 23943833 heartbeat IPC: 1.74749 cumulative IPC: 1.58705 (Simulation time: 0 hr 26 min 20 sec) 
Heartbeat CPU 0 instructions: 39000000 cycles: 24547815 heartbeat IPC: 1.65568 cumulative IPC: 1.58874 (Simulation time: 0 hr 26 min 54 sec) 
Heartbeat CPU 0 instructions: 40000000 cycles: 25099326 heartbeat IPC: 1.8132 cumulative IPC: 1.59367 (Simulation time: 0 hr 27 min 29 sec) 
Heartbeat CPU 0 instructions: 41000001 cycles: 25665871 heartbeat IPC: 1.76509 cumulative IPC: 1.59745 (Simulation time: 0 hr 28 min 2 sec) 
Heartbeat CPU 0 instructions: 42000003 cycles: 26303470 heartbeat IPC: 1.56839 cumulative IPC: 1.59675 (Simulation time: 0 hr 28 min 39 sec) 
Heartbeat CPU 0 instructions: 43000001 cycles: 26969563 heartbeat IPC: 1.50129 cumulative IPC: 1.59439 (Simulation time: 0 hr 29 min 20 sec) 
Heartbeat CPU 0 instructions: 44000000 cycles: 27581742 heartbeat IPC: 1.63351 cumulative IPC: 1.59526 (Simulation time: 0 hr 30 min 4 sec) 
Heartbeat CPU 0 instructions: 45000003 cycles: 28227621 heartbeat IPC: 1.54828 cumulative IPC: 1.59418 (Simulation time: 0 hr 30 min 42 sec) 
Heartbeat CPU 0 instructions: 46000000 cycles: 28867240 heartbeat IPC: 1.56343 cumulative IPC: 1.5935 (Simulation time: 0 hr 31 min 20 sec) 
Heartbeat CPU 0 instructions: 47000000 cycles: 29506362 heartbeat IPC: 1.56465 cumulative IPC: 1.59288 (Simulation time: 0 hr 31 min 59 sec) 
Heartbeat CPU 0 instructions: 48000000 cycles: 30146517 heartbeat IPC: 1.56212 cumulative IPC: 1.59222 (Simulation time: 0 hr 32 min 39 sec) 
Heartbeat CPU 0 instructions: 49000003 cycles: 30788445 heartbeat IPC: 1.55781 cumulative IPC: 1.59151 (Simulation time: 0 hr 33 min 23 sec) 
Heartbeat CPU 0 instructions: 50000001 cycles: 31428051 heartbeat IPC: 1.56346 cumulative IPC: 1.59094 (Simulation time: 0 hr 34 min 13 sec) 

Warmup complete CPU 0 instructions: 50000001 cycles: 31428051 (Simulation time: 0 hr 34 min 13 sec) 

Heartbeat CPU 0 instructions: 51000000 cycles: 34046821 heartbeat IPC: 0.381858 cumulative IPC: 0.381858 (Simulation time: 0 hr 35 min 3 sec) 
Heartbeat CPU 0 instructions: 52000000 cycles: 36657459 heartbeat IPC: 0.383048 cumulative IPC: 0.382452 (Simulation time: 0 hr 35 min 53 sec) 
Heartbeat CPU 0 instructions: 53000000 cycles: 39241652 heartbeat IPC: 0.386968 cumulative IPC: 0.383946 (Simulation time: 0 hr 36 min 41 sec) 
Heartbeat CPU 0 instructions: 54000001 cycles: 41881129 heartbeat IPC: 0.378863 cumulative IPC: 0.382662 (Simulation time: 0 hr 37 min 29 sec) 
Heartbeat CPU 0 instructions: 55000001 cycles: 44328208 heartbeat IPC: 0.40865 cumulative IPC: 0.387592 (Simulation time: 0 hr 38 min 25 sec) 
Heartbeat CPU 0 instructions: 56000000 cycles: 46451785 heartbeat IPC: 0.470903 cumulative IPC: 0.399368 (Simulation time: 0 hr 39 min 22 sec) 
Heartbeat CPU 0 instructions: 57000000 cycles: 48653499 heartbeat IPC: 0.454192 cumulative IPC: 0.406375 (Simulation time: 0 hr 40 min 4 sec) 
Heartbeat CPU 0 instructions: 58000002 cycles: 50601288 heartbeat IPC: 0.513404 cumulative IPC: 0.417248 (Simulation time: 0 hr 40 min 40 sec) 
Heartbeat CPU 0 instructions: 59000003 cycles: 52718845 heartbeat IPC: 0.472243 cumulative IPC: 0.422718 (Simulation time: 0 hr 41 min 21 sec) 
Heartbeat CPU 0 instructions: 60000000 cycles: 55767303 heartbeat IPC: 0.328034 cumulative IPC: 0.410859 (Simulation time: 0 hr 42 min 3 sec) 
Heartbeat CPU 0 instructions: 61000000 cycles: 58189533 heartbeat IPC: 0.412843 cumulative IPC: 0.411038 (Simulation time: 0 hr 42 min 45 sec) 
Heartbeat CPU 0 instructions: 62000001 cycles: 61030230 heartbeat IPC: 0.352027 cumulative IPC: 0.405376 (Simulation time: 0 hr 43 min 33 sec) 
Heartbeat CPU 0 instructions: 63000000 cycles: 64028576 heartbeat IPC: 0.333517 cumulative IPC: 0.398767 (Simulation time: 0 hr 44 min 26 sec) 
Heartbeat CPU 0 instructions: 64000000 cycles: 67033625 heartbeat IPC: 0.332773 cumulative IPC: 0.393197 (Simulation time: 0 hr 45 min 5 sec) 
Heartbeat CPU 0 instructions: 65000001 cycles: 69984760 heartbeat IPC: 0.338853 cumulative IPC: 0.389037 (Simulation time: 0 hr 45 min 59 sec) 
Heartbeat CPU 0 instructions: 66000001 cycles: 72887651 heartbeat IPC: 0.344484 cumulative IPC: 0.385918 (Simulation time: 0 hr 46 min 49 sec) 
Heartbeat CPU 0 instructions: 67000001 cycles: 75631371 heartbeat IPC: 0.364469 cumulative IPC: 0.384586 (Simulation time: 0 hr 47 min 41 sec) 
Heartbeat CPU 0 instructions: 68000000 cycles: 78366124 heartbeat IPC: 0.365663 cumulative IPC: 0.383484 (Simulation time: 0 hr 48 min 26 sec) 
Heartbeat CPU 0 instructions: 69000002 cycles: 81332441 heartbeat IPC: 0.337119 cumulative IPC: 0.380728 (Simulation time: 0 hr 49 min 24 sec) 
Heartbeat CPU 0 instructions: 70000003 cycles: 83145341 heartbeat IPC: 0.551603 cumulative IPC: 0.386718 (Simulation time: 0 hr 50 min 2 sec) 
Heartbeat CPU 0 instructions: 71000000 cycles: 85065086 heartbeat IPC: 0.520901 cumulative IPC: 0.391521 (Simulation time: 0 hr 50 min 44 sec) 
Heartbeat CPU 0 instructions: 72000000 cycles: 87056600 heartbeat IPC: 0.502131 cumulative IPC: 0.39548 (Simulation time: 0 hr 51 min 23 sec) 
Heartbeat CPU 0 instructions: 73000000 cycles: 89326057 heartbeat IPC: 0.440634 cumulative IPC: 0.39725 (Simulation time: 0 hr 52 min 3 sec) 
Heartbeat CPU 0 instructions: 74000000 cycles: 91244603 heartbeat IPC: 0.521228 cumulative IPC: 0.401227 (Simulation time: 0 hr 52 min 45 sec) 
Heartbeat CPU 0 instructions: 75000003 cycles: 93490526 heartbeat IPC: 0.445253 cumulative IPC: 0.40282 (Simulation time: 0 hr 53 min 31 sec) 
Heartbeat CPU 0 instructions: 76000000 cycles: 96244860 heartbeat IPC: 0.363063 cumulative IPC: 0.40113 (Simulation time: 0 hr 54 min 22 sec) 
Heartbeat CPU 0 instructions: 77000000 cycles: 98944530 heartbeat IPC: 0.370416 cumulative IPC: 0.399902 (Simulation time: 0 hr 55 min 7 sec) 
Heartbeat CPU 0 instructions: 78000000 cycles: 101907727 heartbeat IPC: 0.337473 cumulative IPC: 0.397278 (Simulation time: 0 hr 56 min 1 sec) 
Heartbeat CPU 0 instructions: 79000000 cycles: 103768165 heartbeat IPC: 0.537508 cumulative IPC: 0.400884 (Simulation time: 0 hr 56 min 38 sec) 
Heartbeat CPU 0 instructions: 80000000 cycles: 105556346 heartbeat IPC: 0.559228 cumulative IPC: 0.404704 (Simulation time: 0 hr 57 min 12 sec) 
Heartbeat CPU 0 instructions: 81000000 cycles: 107477742 heartbeat IPC: 0.520455 cumulative IPC: 0.407628 (Simulation time: 0 hr 57 min 49 sec) 
Heartbeat CPU 0 instructions: 82000000 cycles: 109395281 heartbeat IPC: 0.521502 cumulative IPC: 0.410429 (Simulation time: 0 hr 58 min 24 sec) 
Heartbeat CPU 0 instructions: 83000000 cycles: 111728903 heartbeat IPC: 0.428518 cumulative IPC: 0.410955 (Simulation time: 0 hr 59 min 7 sec) 
Heartbeat CPU 0 instructions: 84000000 cycles: 113681154 heartbeat IPC: 0.512229 cumulative IPC: 0.413358 (Simulation time: 0 hr 59 min 51 sec) 
Heartbeat CPU 0 instructions: 85000000 cycles: 115602169 heartbeat IPC: 0.520558 cumulative IPC: 0.415805 (Simulation time: 1 hr 0 min 26 sec) 
Heartbeat CPU 0 instructions: 86000002 cycles: 117520698 heartbeat IPC: 0.521234 cumulative IPC: 0.418154 (Simulation time: 1 hr 1 min 3 sec) 
Heartbeat CPU 0 instructions: 87000003 cycles: 119692926 heartbeat IPC: 0.460357 cumulative IPC: 0.419193 (Simulation time: 1 hr 1 min 43 sec) 
Heartbeat CPU 0 instructions: 88000000 cycles: 122482166 heartbeat IPC: 0.35852 cumulative IPC: 0.417334 (Simulation time: 1 hr 2 min 27 sec) 
Heartbeat CPU 0 instructions: 89000003 cycles: 125054618 heartbeat IPC: 0.388735 cumulative IPC: 0.416548 (Simulation time: 1 hr 3 min 13 sec) 
Heartbeat CPU 0 instructions: 90000001 cycles: 127940962 heartbeat IPC: 0.346458 cumulative IPC: 0.414452 (Simulation time: 1 hr 4 min 2 sec) 
Heartbeat CPU 0 instructions: 91000000 cycles: 130427107 heartbeat IPC: 0.402229 cumulative IPC: 0.414145 (Simulation time: 1 hr 4 min 49 sec) 
Heartbeat CPU 0 instructions: 92000000 cycles: 132888470 heartbeat IPC: 0.406279 cumulative IPC: 0.413955 (Simulation time: 1 hr 5 min 31 sec) 
Heartbeat CPU 0 instructions: 93000000 cycles: 135600178 heartbeat IPC: 0.368771 cumulative IPC: 0.412778 (Simulation time: 1 hr 6 min 14 sec) 
Heartbeat CPU 0 instructions: 94000001 cycles: 138257977 heartbeat IPC: 0.376252 cumulative IPC: 0.41187 (Simulation time: 1 hr 6 min 58 sec) 
Heartbeat CPU 0 instructions: 95000000 cycles: 141112610 heartbeat IPC: 0.350307 cumulative IPC: 0.410267 (Simulation time: 1 hr 7 min 58 sec) 
Heartbeat CPU 0 instructions: 96000000 cycles: 144207040 heartbeat IPC: 0.323161 cumulative IPC: 0.407877 (Simulation time: 1 hr 8 min 53 sec) 
Heartbeat CPU 0 instructions: 97000001 cycles: 147224418 heartbeat IPC: 0.331414 cumulative IPC: 0.405885 (Simulation time: 1 hr 9 min 45 sec) 
Heartbeat CPU 0 instructions: 98000000 cycles: 149893105 heartbeat IPC: 0.374716 cumulative IPC: 0.405183 (Simulation time: 1 hr 10 min 27 sec) 
Heartbeat CPU 0 instructions: 99000000 cycles: 152493339 heartbeat IPC: 0.384581 cumulative IPC: 0.40474 (Simulation time: 1 hr 11 min 17 sec) 
Heartbeat CPU 0 instructions: 100000000 cycles: 155119889 heartbeat IPC: 0.380728 cumulative IPC: 0.40423 (Simulation time: 1 hr 12 min 9 sec) 
Heartbeat CPU 0 instructions: 101000001 cycles: 157723026 heartbeat IPC: 0.384152 cumulative IPC: 0.403817 (Simulation time: 1 hr 13 min 4 sec) 
Heartbeat CPU 0 instructions: 102000000 cycles: 160359004 heartbeat IPC: 0.379365 cumulative IPC: 0.403317 (Simulation time: 1 hr 13 min 47 sec) 
Heartbeat CPU 0 instructions: 103000000 cycles: 163017686 heartbeat IPC: 0.376126 cumulative IPC: 0.402767 (Simulation time: 1 hr 14 min 31 sec) 
Heartbeat CPU 0 instructions: 104000000 cycles: 165738924 heartbeat IPC: 0.36748 cumulative IPC: 0.402052 (Simulation time: 1 hr 15 min 11 sec) 
Heartbeat CPU 0 instructions: 105000001 cycles: 168343989 heartbeat IPC: 0.383868 cumulative IPC: 0.401706 (Simulation time: 1 hr 16 min 3 sec) 
Heartbeat CPU 0 instructions: 106000001 cycles: 170962915 heartbeat IPC: 0.381836 cumulative IPC: 0.401333 (Simulation time: 1 hr 16 min 50 sec) 
Heartbeat CPU 0 instructions: 107000000 cycles: 173577715 heartbeat IPC: 0.382438 cumulative IPC: 0.400986 (Simulation time: 1 hr 17 min 27 sec) 
Heartbeat CPU 0 instructions: 108000000 cycles: 176189277 heartbeat IPC: 0.382913 cumulative IPC: 0.40066 (Simulation time: 1 hr 18 min 3 sec) 
Heartbeat CPU 0 instructions: 109000001 cycles: 178762269 heartbeat IPC: 0.388653 cumulative IPC: 0.40045 (Simulation time: 1 hr 18 min 41 sec) 
Heartbeat CPU 0 instructions: 110000003 cycles: 180926768 heartbeat IPC: 0.462002 cumulative IPC: 0.401341 (Simulation time: 1 hr 19 min 16 sec) 
Heartbeat CPU 0 instructions: 111000000 cycles: 183345387 heartbeat IPC: 0.413458 cumulative IPC: 0.401534 (Simulation time: 1 hr 19 min 50 sec) 
Heartbeat CPU 0 instructions: 112000000 cycles: 186165412 heartbeat IPC: 0.354607 cumulative IPC: 0.400679 (Simulation time: 1 hr 20 min 26 sec) 
Heartbeat CPU 0 instructions: 113000000 cycles: 188841911 heartbeat IPC: 0.373622 cumulative IPC: 0.400219 (Simulation time: 1 hr 21 min 6 sec) 
Heartbeat CPU 0 instructions: 114000002 cycles: 191411280 heartbeat IPC: 0.389201 cumulative IPC: 0.400042 (Simulation time: 1 hr 21 min 45 sec) 
Heartbeat CPU 0 instructions: 115000001 cycles: 194026825 heartbeat IPC: 0.382329 cumulative IPC: 0.399757 (Simulation time: 1 hr 22 min 18 sec) 
Heartbeat CPU 0 instructions: 116000000 cycles: 196614720 heartbeat IPC: 0.386414 cumulative IPC: 0.399548 (Simulation time: 1 hr 22 min 53 sec) 
Heartbeat CPU 0 instructions: 117000002 cycles: 199190473 heartbeat IPC: 0.388237 cumulative IPC: 0.399374 (Simulation time: 1 hr 23 min 35 sec) 
Heartbeat CPU 0 instructions: 118000001 cycles: 201695620 heartbeat IPC: 0.399178 cumulative IPC: 0.399371 (Simulation time: 1 hr 24 min 11 sec) 
Heartbeat CPU 0 instructions: 119000000 cycles: 203690963 heartbeat IPC: 0.501166 cumulative IPC: 0.400551 (Simulation time: 1 hr 24 min 39 sec) 
Heartbeat CPU 0 instructions: 120000000 cycles: 206540192 heartbeat IPC: 0.350972 cumulative IPC: 0.399744 (Simulation time: 1 hr 25 min 12 sec) 
Heartbeat CPU 0 instructions: 121000001 cycles: 209192981 heartbeat IPC: 0.376962 cumulative IPC: 0.399404 (Simulation time: 1 hr 25 min 41 sec) 
Heartbeat CPU 0 instructions: 122000002 cycles: 212050589 heartbeat IPC: 0.349943 cumulative IPC: 0.398621 (Simulation time: 1 hr 26 min 10 sec) 
Heartbeat CPU 0 instructions: 123000001 cycles: 214849368 heartbeat IPC: 0.357298 cumulative IPC: 0.397991 (Simulation time: 1 hr 26 min 45 sec) 
Heartbeat CPU 0 instructions: 124000000 cycles: 217394729 heartbeat IPC: 0.392871 cumulative IPC: 0.397921 (Simulation time: 1 hr 27 min 15 sec) 
Heartbeat CPU 0 instructions: 125000003 cycles: 219361337 heartbeat IPC: 0.508491 cumulative IPC: 0.399078 (Simulation time: 1 hr 27 min 41 sec) 
Heartbeat CPU 0 instructions: 126000000 cycles: 221283075 heartbeat IPC: 0.520361 cumulative IPC: 0.400305 (Simulation time: 1 hr 28 min 4 sec) 
Heartbeat CPU 0 instructions: 127000001 cycles: 223687295 heartbeat IPC: 0.415936 cumulative IPC: 0.400501 (Simulation time: 1 hr 28 min 32 sec) 
Heartbeat CPU 0 instructions: 128000000 cycles: 225676007 heartbeat IPC: 0.502838 cumulative IPC: 0.401549 (Simulation time: 1 hr 28 min 57 sec) 
Heartbeat CPU 0 instructions: 129000000 cycles: 227598786 heartbeat IPC: 0.520081 cumulative IPC: 0.40271 (Simulation time: 1 hr 29 min 18 sec) 
Heartbeat CPU 0 instructions: 130000001 cycles: 230370176 heartbeat IPC: 0.36083 cumulative IPC: 0.402127 (Simulation time: 1 hr 29 min 43 sec) 
Heartbeat CPU 0 instructions: 131000003 cycles: 233040251 heartbeat IPC: 0.374522 cumulative IPC: 0.401761 (Simulation time: 1 hr 30 min 9 sec) 
Heartbeat CPU 0 instructions: 132000000 cycles: 235761089 heartbeat IPC: 0.367533 cumulative IPC: 0.401306 (Simulation time: 1 hr 30 min 35 sec) 
Heartbeat CPU 0 instructions: 133000002 cycles: 238701087 heartbeat IPC: 0.340137 cumulative IPC: 0.400438 (Simulation time: 1 hr 31 min 1 sec) 
Heartbeat CPU 0 instructions: 134000000 cycles: 241737018 heartbeat IPC: 0.329388 cumulative IPC: 0.399412 (Simulation time: 1 hr 31 min 26 sec) 
Heartbeat CPU 0 instructions: 135000002 cycles: 244295863 heartbeat IPC: 0.390802 cumulative IPC: 0.399309 (Simulation time: 1 hr 31 min 50 sec) 
Heartbeat CPU 0 instructions: 136000000 cycles: 247145694 heartbeat IPC: 0.350897 cumulative IPC: 0.398669 (Simulation time: 1 hr 32 min 10 sec) 
Heartbeat CPU 0 instructions: 137000003 cycles: 249917408 heartbeat IPC: 0.360789 cumulative IPC: 0.398189 (Simulation time: 1 hr 32 min 28 sec) 
Heartbeat CPU 0 instructions: 138000000 cycles: 252647375 heartbeat IPC: 0.366304 cumulative IPC: 0.397795 (Simulation time: 1 hr 32 min 46 sec) 
Heartbeat CPU 0 instructions: 139000001 cycles: 254919412 heartbeat IPC: 0.440134 cumulative IPC: 0.398226 (Simulation time: 1 hr 33 min 3 sec) 
Heartbeat CPU 0 instructions: 140000000 cycles: 257557696 heartbeat IPC: 0.379034 cumulative IPC: 0.398002 (Simulation time: 1 hr 33 min 22 sec) 
Heartbeat CPU 0 instructions: 141000000 cycles: 260314166 heartbeat IPC: 0.362783 cumulative IPC: 0.397578 (Simulation time: 1 hr 33 min 39 sec) 
Heartbeat CPU 0 instructions: 142000000 cycles: 263068779 heartbeat IPC: 0.363027 cumulative IPC: 0.397167 (Simulation time: 1 hr 33 min 56 sec) 
Heartbeat CPU 0 instructions: 143000000 cycles: 265711703 heartbeat IPC: 0.378369 cumulative IPC: 0.396955 (Simulation time: 1 hr 34 min 14 sec) 
Heartbeat CPU 0 instructions: 144000000 cycles: 267911389 heartbeat IPC: 0.45461 cumulative IPC: 0.397491 (Simulation time: 1 hr 34 min 29 sec) 
Heartbeat CPU 0 instructions: 145000002 cycles: 270129923 heartbeat IPC: 0.450749 cumulative IPC: 0.397986 (Simulation time: 1 hr 34 min 45 sec) 
Heartbeat CPU 0 instructions: 146000001 cycles: 272143463 heartbeat IPC: 0.496637 cumulative IPC: 0.398811 (Simulation time: 1 hr 34 min 58 sec) 
Heartbeat CPU 0 instructions: 147000001 cycles: 274872173 heartbeat IPC: 0.366474 cumulative IPC: 0.398449 (Simulation time: 1 hr 35 min 14 sec) 
Heartbeat CPU 0 instructions: 148000000 cycles: 277454003 heartbeat IPC: 0.387322 cumulative IPC: 0.398332 (Simulation time: 1 hr 35 min 30 sec) 
Heartbeat CPU 0 instructions: 149000000 cycles: 280096155 heartbeat IPC: 0.378479 cumulative IPC: 0.398121 (Simulation time: 1 hr 35 min 42 sec) 
Heartbeat CPU 0 instructions: 150000001 cycles: 282839182 heartbeat IPC: 0.364561 cumulative IPC: 0.397755 (Simulation time: 1 hr 35 min 55 sec) 
Finished CPU 0 instructions: 100000000 cycles: 251411131 cummulative IPC: 0.397755 (Simulation time: 1 hr 35 min 55 sec) 

ChampSim completed all CPUs

Region of Interest Statistics

CPU 0 cummulative IPC: 0.397755 instructions: 100000000 cycles: 251411131
LLC TOTAL     ACCESS:     694186  HIT:     638195  MISS:      55991
LLC LOAD      ACCESS:     325711  HIT:     303239  MISS:      22472
LLC RFO       ACCESS:      31880  HIT:      26968  MISS:       4912
LLC PREFETCH  ACCESS:     223574  HIT:     196052  MISS:      27522
LLC WRITEBACK ACCESS:     113021  HIT:     111936  MISS:       1085
OPTgen accesses: 8427
OPTgen hits: 9964
OPTgen hit rate: 118.239


