
*** ChampSim Multicore Out-of-Order Simulator ***

Warmup Instructions: 50000000
Simulation Instructions: 100000000
Configuration: 2
Number of CPUs: 1
LLC sets: 2048
LLC ways: 16
Off-chip DRAM Channels: 1 Width: 64-bit Data Rate: 1600 MT/s

CPU 0 runs /datasets/cs240c-wi22-a00-public/data/Assignment2-gz/sphinx3_883B.trace.gz
CPU 0 L1D next line prefetcher
CPU 0 L2C IP-based stride prefetcher
Initialize Hawkeye state
Heartbeat CPU 0 instructions: 1000003 cycles: 414365 heartbeat IPC: 2.41334 cumulative IPC: 2.41334 (Simulation time: 0 hr 0 min 39 sec) 
Heartbeat CPU 0 instructions: 2000000 cycles: 823887 heartbeat IPC: 2.44186 cumulative IPC: 2.42752 (Simulation time: 0 hr 1 min 21 sec) 
Heartbeat CPU 0 instructions: 3000003 cycles: 1298677 heartbeat IPC: 2.1062 cumulative IPC: 2.31005 (Simulation time: 0 hr 2 min 0 sec) 
Heartbeat CPU 0 instructions: 4000000 cycles: 1637567 heartbeat IPC: 2.9508 cumulative IPC: 2.44265 (Simulation time: 0 hr 2 min 35 sec) 
Heartbeat CPU 0 instructions: 5000000 cycles: 1992239 heartbeat IPC: 2.81951 cumulative IPC: 2.50974 (Simulation time: 0 hr 3 min 9 sec) 
Heartbeat CPU 0 instructions: 6000003 cycles: 2406682 heartbeat IPC: 2.41288 cumulative IPC: 2.49306 (Simulation time: 0 hr 3 min 54 sec) 
Heartbeat CPU 0 instructions: 7000002 cycles: 2815442 heartbeat IPC: 2.44642 cumulative IPC: 2.48629 (Simulation time: 0 hr 4 min 32 sec) 
Heartbeat CPU 0 instructions: 8000000 cycles: 3291302 heartbeat IPC: 2.10145 cumulative IPC: 2.43065 (Simulation time: 0 hr 5 min 7 sec) 
Heartbeat CPU 0 instructions: 9000001 cycles: 3630299 heartbeat IPC: 2.94988 cumulative IPC: 2.47913 (Simulation time: 0 hr 5 min 42 sec) 
Heartbeat CPU 0 instructions: 10000000 cycles: 3984391 heartbeat IPC: 2.82412 cumulative IPC: 2.50979 (Simulation time: 0 hr 6 min 16 sec) 
Heartbeat CPU 0 instructions: 11000000 cycles: 4398833 heartbeat IPC: 2.41288 cumulative IPC: 2.50066 (Simulation time: 0 hr 6 min 49 sec) 
Heartbeat CPU 0 instructions: 12000000 cycles: 4811705 heartbeat IPC: 2.42206 cumulative IPC: 2.49392 (Simulation time: 0 hr 7 min 25 sec) 
Heartbeat CPU 0 instructions: 13000001 cycles: 5277019 heartbeat IPC: 2.14909 cumulative IPC: 2.46351 (Simulation time: 0 hr 7 min 54 sec) 
Heartbeat CPU 0 instructions: 14000001 cycles: 5630840 heartbeat IPC: 2.82629 cumulative IPC: 2.48631 (Simulation time: 0 hr 8 min 23 sec) 
Heartbeat CPU 0 instructions: 15000000 cycles: 5977458 heartbeat IPC: 2.88502 cumulative IPC: 2.50943 (Simulation time: 0 hr 8 min 53 sec) 
Heartbeat CPU 0 instructions: 16000000 cycles: 6390942 heartbeat IPC: 2.41847 cumulative IPC: 2.50354 (Simulation time: 0 hr 9 min 28 sec) 
Heartbeat CPU 0 instructions: 17000000 cycles: 6803001 heartbeat IPC: 2.42684 cumulative IPC: 2.4989 (Simulation time: 0 hr 10 min 5 sec) 
Heartbeat CPU 0 instructions: 18000000 cycles: 7219318 heartbeat IPC: 2.40202 cumulative IPC: 2.49331 (Simulation time: 0 hr 10 min 41 sec) 
Heartbeat CPU 0 instructions: 19000003 cycles: 7633868 heartbeat IPC: 2.41226 cumulative IPC: 2.48891 (Simulation time: 0 hr 11 min 18 sec) 
Heartbeat CPU 0 instructions: 20000000 cycles: 7972817 heartbeat IPC: 2.95029 cumulative IPC: 2.50852 (Simulation time: 0 hr 11 min 58 sec) 
Heartbeat CPU 0 instructions: 21000000 cycles: 8382451 heartbeat IPC: 2.4412 cumulative IPC: 2.50523 (Simulation time: 0 hr 12 min 36 sec) 
Heartbeat CPU 0 instructions: 22000003 cycles: 8795950 heartbeat IPC: 2.41839 cumulative IPC: 2.50115 (Simulation time: 0 hr 13 min 14 sec) 
Heartbeat CPU 0 instructions: 23000003 cycles: 9206099 heartbeat IPC: 2.43814 cumulative IPC: 2.49834 (Simulation time: 0 hr 13 min 46 sec) 
Heartbeat CPU 0 instructions: 24000000 cycles: 9656783 heartbeat IPC: 2.21884 cumulative IPC: 2.4853 (Simulation time: 0 hr 14 min 15 sec) 
Heartbeat CPU 0 instructions: 25000000 cycles: 9995820 heartbeat IPC: 2.94953 cumulative IPC: 2.50105 (Simulation time: 0 hr 14 min 44 sec) 
Heartbeat CPU 0 instructions: 26000001 cycles: 10372995 heartbeat IPC: 2.65129 cumulative IPC: 2.50651 (Simulation time: 0 hr 15 min 14 sec) 
Heartbeat CPU 0 instructions: 27000001 cycles: 10788011 heartbeat IPC: 2.40955 cumulative IPC: 2.50278 (Simulation time: 0 hr 15 min 46 sec) 
Heartbeat CPU 0 instructions: 28000000 cycles: 11202826 heartbeat IPC: 2.41071 cumulative IPC: 2.49937 (Simulation time: 0 hr 16 min 20 sec) 
Heartbeat CPU 0 instructions: 29000003 cycles: 11666164 heartbeat IPC: 2.15826 cumulative IPC: 2.48582 (Simulation time: 0 hr 16 min 51 sec) 
Heartbeat CPU 0 instructions: 30000000 cycles: 12005086 heartbeat IPC: 2.95052 cumulative IPC: 2.49894 (Simulation time: 0 hr 17 min 18 sec) 
Heartbeat CPU 0 instructions: 31000003 cycles: 12368407 heartbeat IPC: 2.7524 cumulative IPC: 2.50639 (Simulation time: 0 hr 17 min 55 sec) 
Heartbeat CPU 0 instructions: 32000000 cycles: 12783463 heartbeat IPC: 2.40931 cumulative IPC: 2.50323 (Simulation time: 0 hr 18 min 31 sec) 
Heartbeat CPU 0 instructions: 33000001 cycles: 13193019 heartbeat IPC: 2.44167 cumulative IPC: 2.50132 (Simulation time: 0 hr 19 min 4 sec) 
Heartbeat CPU 0 instructions: 34000000 cycles: 13667222 heartbeat IPC: 2.1088 cumulative IPC: 2.4877 (Simulation time: 0 hr 19 min 35 sec) 
Heartbeat CPU 0 instructions: 35000000 cycles: 14006185 heartbeat IPC: 2.95017 cumulative IPC: 2.4989 (Simulation time: 0 hr 20 min 1 sec) 
Heartbeat CPU 0 instructions: 36000000 cycles: 14364473 heartbeat IPC: 2.79105 cumulative IPC: 2.50618 (Simulation time: 0 hr 20 min 29 sec) 
Heartbeat CPU 0 instructions: 37000001 cycles: 14780533 heartbeat IPC: 2.4035 cumulative IPC: 2.50329 (Simulation time: 0 hr 21 min 5 sec) 
Heartbeat CPU 0 instructions: 38000000 cycles: 15190150 heartbeat IPC: 2.4413 cumulative IPC: 2.50162 (Simulation time: 0 hr 21 min 35 sec) 
Heartbeat CPU 0 instructions: 39000002 cycles: 15665223 heartbeat IPC: 2.10494 cumulative IPC: 2.48959 (Simulation time: 0 hr 22 min 8 sec) 
Heartbeat CPU 0 instructions: 40000000 cycles: 16004201 heartbeat IPC: 2.95004 cumulative IPC: 2.49934 (Simulation time: 0 hr 22 min 33 sec) 
Heartbeat CPU 0 instructions: 41000003 cycles: 16361508 heartbeat IPC: 2.79872 cumulative IPC: 2.50588 (Simulation time: 0 hr 23 min 1 sec) 
Heartbeat CPU 0 instructions: 42000000 cycles: 16777632 heartbeat IPC: 2.40312 cumulative IPC: 2.50333 (Simulation time: 0 hr 23 min 32 sec) 
Heartbeat CPU 0 instructions: 43000001 cycles: 17189013 heartbeat IPC: 2.43084 cumulative IPC: 2.5016 (Simulation time: 0 hr 24 min 3 sec) 
Heartbeat CPU 0 instructions: 44000000 cycles: 17659730 heartbeat IPC: 2.12442 cumulative IPC: 2.49154 (Simulation time: 0 hr 24 min 36 sec) 
Heartbeat CPU 0 instructions: 45000001 cycles: 17998722 heartbeat IPC: 2.94993 cumulative IPC: 2.50018 (Simulation time: 0 hr 25 min 2 sec) 
Heartbeat CPU 0 instructions: 46000001 cycles: 18359076 heartbeat IPC: 2.77505 cumulative IPC: 2.50557 (Simulation time: 0 hr 25 min 31 sec) 
Heartbeat CPU 0 instructions: 47000003 cycles: 18773655 heartbeat IPC: 2.41209 cumulative IPC: 2.50351 (Simulation time: 0 hr 26 min 5 sec) 
Heartbeat CPU 0 instructions: 48000000 cycles: 19189470 heartbeat IPC: 2.40491 cumulative IPC: 2.50137 (Simulation time: 0 hr 26 min 39 sec) 
Heartbeat CPU 0 instructions: 49000001 cycles: 19647570 heartbeat IPC: 2.18293 cumulative IPC: 2.49395 (Simulation time: 0 hr 27 min 6 sec) 
Heartbeat CPU 0 instructions: 50000003 cycles: 19986524 heartbeat IPC: 2.95026 cumulative IPC: 2.50169 (Simulation time: 0 hr 27 min 34 sec) 

Warmup complete CPU 0 instructions: 50000003 cycles: 19986524 (Simulation time: 0 hr 27 min 34 sec) 

Heartbeat CPU 0 instructions: 51000003 cycles: 21102694 heartbeat IPC: 0.895921 cumulative IPC: 0.895921 (Simulation time: 0 hr 28 min 8 sec) 
Heartbeat CPU 0 instructions: 52000000 cycles: 22685757 heartbeat IPC: 0.631685 cumulative IPC: 0.74095 (Simulation time: 0 hr 28 min 49 sec) 
Heartbeat CPU 0 instructions: 53000000 cycles: 24549374 heartbeat IPC: 0.536591 cumulative IPC: 0.657483 (Simulation time: 0 hr 29 min 30 sec) 
Heartbeat CPU 0 instructions: 54000003 cycles: 25827487 heartbeat IPC: 0.782406 cumulative IPC: 0.684819 (Simulation time: 0 hr 30 min 5 sec) 
Heartbeat CPU 0 instructions: 55000003 cycles: 26765512 heartbeat IPC: 1.06607 cumulative IPC: 0.737573 (Simulation time: 0 hr 30 min 36 sec) 
Heartbeat CPU 0 instructions: 56000000 cycles: 27673690 heartbeat IPC: 1.1011 cumulative IPC: 0.780521 (Simulation time: 0 hr 31 min 12 sec) 
Heartbeat CPU 0 instructions: 57000002 cycles: 28891068 heartbeat IPC: 0.821439 cumulative IPC: 0.786115 (Simulation time: 0 hr 31 min 52 sec) 
Heartbeat CPU 0 instructions: 58000001 cycles: 29917247 heartbeat IPC: 0.974488 cumulative IPC: 0.805581 (Simulation time: 0 hr 32 min 33 sec) 
Heartbeat CPU 0 instructions: 59000003 cycles: 30819182 heartbeat IPC: 1.10873 cumulative IPC: 0.830821 (Simulation time: 0 hr 33 min 11 sec) 
Heartbeat CPU 0 instructions: 60000000 cycles: 31724023 heartbeat IPC: 1.10516 cumulative IPC: 0.85197 (Simulation time: 0 hr 33 min 42 sec) 
Heartbeat CPU 0 instructions: 61000001 cycles: 32913885 heartbeat IPC: 0.840434 cumulative IPC: 0.850908 (Simulation time: 0 hr 34 min 16 sec) 
Heartbeat CPU 0 instructions: 62000001 cycles: 33789958 heartbeat IPC: 1.14146 cumulative IPC: 0.869349 (Simulation time: 0 hr 34 min 49 sec) 
Heartbeat CPU 0 instructions: 63000003 cycles: 34646798 heartbeat IPC: 1.16708 cumulative IPC: 0.88675 (Simulation time: 0 hr 35 min 22 sec) 
Heartbeat CPU 0 instructions: 64000000 cycles: 35898965 heartbeat IPC: 0.798613 cumulative IPC: 0.879815 (Simulation time: 0 hr 35 min 58 sec) 
Heartbeat CPU 0 instructions: 65000003 cycles: 36776477 heartbeat IPC: 1.13959 cumulative IPC: 0.893391 (Simulation time: 0 hr 36 min 32 sec) 
Heartbeat CPU 0 instructions: 66000002 cycles: 37657912 heartbeat IPC: 1.13451 cumulative IPC: 0.905418 (Simulation time: 0 hr 37 min 4 sec) 
Heartbeat CPU 0 instructions: 67000000 cycles: 38926459 heartbeat IPC: 0.788302 cumulative IPC: 0.897574 (Simulation time: 0 hr 37 min 37 sec) 
Heartbeat CPU 0 instructions: 68000000 cycles: 40566141 heartbeat IPC: 0.609874 cumulative IPC: 0.874652 (Simulation time: 0 hr 38 min 13 sec) 
Heartbeat CPU 0 instructions: 69000003 cycles: 41435446 heartbeat IPC: 1.15035 cumulative IPC: 0.885825 (Simulation time: 0 hr 38 min 44 sec) 
Heartbeat CPU 0 instructions: 70000000 cycles: 42324727 heartbeat IPC: 1.1245 cumulative IPC: 0.895327 (Simulation time: 0 hr 39 min 19 sec) 
Heartbeat CPU 0 instructions: 71000000 cycles: 43457551 heartbeat IPC: 0.88275 cumulative IPC: 0.89472 (Simulation time: 0 hr 39 min 50 sec) 
Heartbeat CPU 0 instructions: 72000000 cycles: 44872084 heartbeat IPC: 0.706947 cumulative IPC: 0.884047 (Simulation time: 0 hr 40 min 26 sec) 
Heartbeat CPU 0 instructions: 73000000 cycles: 45741577 heartbeat IPC: 1.1501 cumulative IPC: 0.893028 (Simulation time: 0 hr 40 min 59 sec) 
Heartbeat CPU 0 instructions: 74000000 cycles: 46627606 heartbeat IPC: 1.12863 cumulative IPC: 0.900864 (Simulation time: 0 hr 41 min 36 sec) 
Heartbeat CPU 0 instructions: 75000000 cycles: 47802845 heartbeat IPC: 0.850891 cumulative IPC: 0.898753 (Simulation time: 0 hr 42 min 9 sec) 
Heartbeat CPU 0 instructions: 76000000 cycles: 49063373 heartbeat IPC: 0.793318 cumulative IPC: 0.894182 (Simulation time: 0 hr 42 min 44 sec) 
Heartbeat CPU 0 instructions: 77000000 cycles: 49965520 heartbeat IPC: 1.10847 cumulative IPC: 0.90063 (Simulation time: 0 hr 43 min 22 sec) 
Heartbeat CPU 0 instructions: 78000000 cycles: 50856805 heartbeat IPC: 1.12198 cumulative IPC: 0.907021 (Simulation time: 0 hr 43 min 55 sec) 
Heartbeat CPU 0 instructions: 79000001 cycles: 52198716 heartbeat IPC: 0.745207 cumulative IPC: 0.90028 (Simulation time: 0 hr 44 min 29 sec) 
Heartbeat CPU 0 instructions: 80000000 cycles: 53351388 heartbeat IPC: 0.867549 cumulative IPC: 0.899149 (Simulation time: 0 hr 45 min 4 sec) 
Heartbeat CPU 0 instructions: 81000000 cycles: 54279675 heartbeat IPC: 1.07725 cumulative IPC: 0.90397 (Simulation time: 0 hr 45 min 38 sec) 
Heartbeat CPU 0 instructions: 82000000 cycles: 55099654 heartbeat IPC: 1.21954 cumulative IPC: 0.91134 (Simulation time: 0 hr 46 min 13 sec) 
Heartbeat CPU 0 instructions: 83000000 cycles: 56476048 heartbeat IPC: 0.726536 cumulative IPC: 0.904369 (Simulation time: 0 hr 46 min 50 sec) 
Heartbeat CPU 0 instructions: 84000000 cycles: 57373512 heartbeat IPC: 1.11425 cumulative IPC: 0.909407 (Simulation time: 0 hr 47 min 19 sec) 
Heartbeat CPU 0 instructions: 85000001 cycles: 58195897 heartbeat IPC: 1.21598 cumulative IPC: 0.916006 (Simulation time: 0 hr 47 min 51 sec) 
Heartbeat CPU 0 instructions: 86000001 cycles: 59198278 heartbeat IPC: 0.997625 cumulative IPC: 0.918092 (Simulation time: 0 hr 48 min 33 sec) 
Heartbeat CPU 0 instructions: 87000000 cycles: 60363610 heartbeat IPC: 0.858124 cumulative IPC: 0.916361 (Simulation time: 0 hr 49 min 14 sec) 
Heartbeat CPU 0 instructions: 88000000 cycles: 61208198 heartbeat IPC: 1.18401 cumulative IPC: 0.921845 (Simulation time: 0 hr 49 min 55 sec) 
Heartbeat CPU 0 instructions: 89000000 cycles: 62070037 heartbeat IPC: 1.16031 cumulative IPC: 0.926729 (Simulation time: 0 hr 50 min 31 sec) 
Heartbeat CPU 0 instructions: 90000000 cycles: 63370338 heartbeat IPC: 0.769053 cumulative IPC: 0.922003 (Simulation time: 0 hr 51 min 9 sec) 
Heartbeat CPU 0 instructions: 91000003 cycles: 64618300 heartbeat IPC: 0.801309 cumulative IPC: 0.918628 (Simulation time: 0 hr 51 min 43 sec) 
Heartbeat CPU 0 instructions: 92000000 cycles: 65584353 heartbeat IPC: 1.03514 cumulative IPC: 0.921096 (Simulation time: 0 hr 52 min 22 sec) 
Heartbeat CPU 0 instructions: 93000000 cycles: 66407246 heartbeat IPC: 1.21522 cumulative IPC: 0.92631 (Simulation time: 0 hr 52 min 57 sec) 
Heartbeat CPU 0 instructions: 94000002 cycles: 67149766 heartbeat IPC: 1.34677 cumulative IPC: 0.93293 (Simulation time: 0 hr 53 min 29 sec) 
Heartbeat CPU 0 instructions: 95000001 cycles: 68495887 heartbeat IPC: 0.742875 cumulative IPC: 0.927656 (Simulation time: 0 hr 54 min 12 sec) 
Heartbeat CPU 0 instructions: 96000000 cycles: 69359203 heartbeat IPC: 1.15832 cumulative IPC: 0.931689 (Simulation time: 0 hr 54 min 43 sec) 
Heartbeat CPU 0 instructions: 97000000 cycles: 70154746 heartbeat IPC: 1.257 cumulative IPC: 0.936848 (Simulation time: 0 hr 55 min 12 sec) 
Heartbeat CPU 0 instructions: 98000003 cycles: 71279218 heartbeat IPC: 0.889309 cumulative IPC: 0.935806 (Simulation time: 0 hr 55 min 44 sec) 
Heartbeat CPU 0 instructions: 99000000 cycles: 72332490 heartbeat IPC: 0.949419 cumulative IPC: 0.93608 (Simulation time: 0 hr 56 min 18 sec) 
Heartbeat CPU 0 instructions: 100000000 cycles: 73168714 heartbeat IPC: 1.19585 cumulative IPC: 0.940164 (Simulation time: 0 hr 56 min 48 sec) 
Heartbeat CPU 0 instructions: 101000000 cycles: 73954589 heartbeat IPC: 1.27247 cumulative IPC: 0.945003 (Simulation time: 0 hr 57 min 19 sec) 
Heartbeat CPU 0 instructions: 102000003 cycles: 75386530 heartbeat IPC: 0.698355 cumulative IPC: 0.938628 (Simulation time: 0 hr 57 min 52 sec) 
Heartbeat CPU 0 instructions: 103000001 cycles: 76338387 heartbeat IPC: 1.05058 cumulative IPC: 0.940519 (Simulation time: 0 hr 58 min 26 sec) 
Heartbeat CPU 0 instructions: 104000000 cycles: 77175572 heartbeat IPC: 1.19448 cumulative IPC: 0.944237 (Simulation time: 0 hr 58 min 58 sec) 
Heartbeat CPU 0 instructions: 105000002 cycles: 78198804 heartbeat IPC: 0.977297 cumulative IPC: 0.944818 (Simulation time: 0 hr 59 min 37 sec) 
Heartbeat CPU 0 instructions: 106000003 cycles: 79656261 heartbeat IPC: 0.686127 cumulative IPC: 0.938499 (Simulation time: 1 hr 0 min 10 sec) 
Heartbeat CPU 0 instructions: 107000001 cycles: 80535312 heartbeat IPC: 1.13759 cumulative IPC: 0.94139 (Simulation time: 1 hr 0 min 41 sec) 
Heartbeat CPU 0 instructions: 108000000 cycles: 81303170 heartbeat IPC: 1.30232 cumulative IPC: 0.94591 (Simulation time: 1 hr 1 min 12 sec) 
Heartbeat CPU 0 instructions: 109000001 cycles: 82409740 heartbeat IPC: 0.903694 cumulative IPC: 0.945161 (Simulation time: 1 hr 1 min 48 sec) 
Heartbeat CPU 0 instructions: 110000000 cycles: 83754866 heartbeat IPC: 0.743424 cumulative IPC: 0.940906 (Simulation time: 1 hr 2 min 22 sec) 
Heartbeat CPU 0 instructions: 111000003 cycles: 84618518 heartbeat IPC: 1.15788 cumulative IPC: 0.943805 (Simulation time: 1 hr 3 min 3 sec) 
Heartbeat CPU 0 instructions: 112000000 cycles: 85430406 heartbeat IPC: 1.23169 cumulative IPC: 0.947376 (Simulation time: 1 hr 3 min 33 sec) 
Heartbeat CPU 0 instructions: 113000002 cycles: 86631784 heartbeat IPC: 0.832379 cumulative IPC: 0.945303 (Simulation time: 1 hr 4 min 7 sec) 
Heartbeat CPU 0 instructions: 114000001 cycles: 87862912 heartbeat IPC: 0.812262 cumulative IPC: 0.94289 (Simulation time: 1 hr 4 min 45 sec) 
Heartbeat CPU 0 instructions: 115000002 cycles: 88765055 heartbeat IPC: 1.10847 cumulative IPC: 0.945062 (Simulation time: 1 hr 5 min 26 sec) 
Heartbeat CPU 0 instructions: 116000000 cycles: 89554666 heartbeat IPC: 1.26644 cumulative IPC: 0.94871 (Simulation time: 1 hr 6 min 2 sec) 
Heartbeat CPU 0 instructions: 117000002 cycles: 90887238 heartbeat IPC: 0.75043 cumulative IPC: 0.944983 (Simulation time: 1 hr 6 min 37 sec) 
Heartbeat CPU 0 instructions: 118000002 cycles: 91872823 heartbeat IPC: 1.01463 cumulative IPC: 0.945938 (Simulation time: 1 hr 7 min 8 sec) 
Heartbeat CPU 0 instructions: 119000001 cycles: 92739750 heartbeat IPC: 1.1535 cumulative IPC: 0.948412 (Simulation time: 1 hr 7 min 39 sec) 
Heartbeat CPU 0 instructions: 120000000 cycles: 93660539 heartbeat IPC: 1.08602 cumulative IPC: 0.950131 (Simulation time: 1 hr 8 min 12 sec) 
Heartbeat CPU 0 instructions: 121000000 cycles: 95074680 heartbeat IPC: 0.707143 cumulative IPC: 0.945555 (Simulation time: 1 hr 8 min 49 sec) 
Heartbeat CPU 0 instructions: 122000003 cycles: 95964795 heartbeat IPC: 1.12345 cumulative IPC: 0.947639 (Simulation time: 1 hr 9 min 29 sec) 
Heartbeat CPU 0 instructions: 123000001 cycles: 96822102 heartbeat IPC: 1.16644 cumulative IPC: 0.950081 (Simulation time: 1 hr 10 min 7 sec) 
Heartbeat CPU 0 instructions: 124000000 cycles: 97923222 heartbeat IPC: 0.908165 cumulative IPC: 0.949488 (Simulation time: 1 hr 10 min 38 sec) 
Heartbeat CPU 0 instructions: 125000003 cycles: 99237187 heartbeat IPC: 0.761058 cumulative IPC: 0.946364 (Simulation time: 1 hr 11 min 17 sec) 
Heartbeat CPU 0 instructions: 126000001 cycles: 100127092 heartbeat IPC: 1.12371 cumulative IPC: 0.948334 (Simulation time: 1 hr 11 min 57 sec) 
Heartbeat CPU 0 instructions: 127000000 cycles: 100987849 heartbeat IPC: 1.16177 cumulative IPC: 0.950602 (Simulation time: 1 hr 12 min 34 sec) 
Heartbeat CPU 0 instructions: 128000000 cycles: 102242738 heartbeat IPC: 0.796883 cumulative IPC: 0.948257 (Simulation time: 1 hr 13 min 8 sec) 
Heartbeat CPU 0 instructions: 129000002 cycles: 103538580 heartbeat IPC: 0.771701 cumulative IPC: 0.945518 (Simulation time: 1 hr 13 min 36 sec) 
Heartbeat CPU 0 instructions: 130000002 cycles: 104430602 heartbeat IPC: 1.12105 cumulative IPC: 0.947372 (Simulation time: 1 hr 14 min 14 sec) 
Heartbeat CPU 0 instructions: 131000001 cycles: 105296672 heartbeat IPC: 1.15464 cumulative IPC: 0.949477 (Simulation time: 1 hr 14 min 54 sec) 
Heartbeat CPU 0 instructions: 132000000 cycles: 106616254 heartbeat IPC: 0.757815 cumulative IPC: 0.946557 (Simulation time: 1 hr 15 min 30 sec) 
Heartbeat CPU 0 instructions: 133000001 cycles: 108047389 heartbeat IPC: 0.698747 cumulative IPC: 0.94253 (Simulation time: 1 hr 16 min 7 sec) 
Heartbeat CPU 0 instructions: 134000002 cycles: 108939620 heartbeat IPC: 1.12079 cumulative IPC: 0.944318 (Simulation time: 1 hr 16 min 41 sec) 
Heartbeat CPU 0 instructions: 135000001 cycles: 109789551 heartbeat IPC: 1.17656 cumulative IPC: 0.946516 (Simulation time: 1 hr 17 min 18 sec) 
Heartbeat CPU 0 instructions: 136000000 cycles: 110991174 heartbeat IPC: 0.832207 cumulative IPC: 0.945007 (Simulation time: 1 hr 17 min 47 sec) 
Heartbeat CPU 0 instructions: 137000001 cycles: 112318848 heartbeat IPC: 0.753198 cumulative IPC: 0.942249 (Simulation time: 1 hr 18 min 14 sec) 
Heartbeat CPU 0 instructions: 138000002 cycles: 113218631 heartbeat IPC: 1.11138 cumulative IPC: 0.943881 (Simulation time: 1 hr 18 min 38 sec) 
Heartbeat CPU 0 instructions: 139000002 cycles: 114083733 heartbeat IPC: 1.15593 cumulative IPC: 0.94583 (Simulation time: 1 hr 19 min 5 sec) 
Heartbeat CPU 0 instructions: 140000000 cycles: 115382908 heartbeat IPC: 0.769718 cumulative IPC: 0.943432 (Simulation time: 1 hr 19 min 31 sec) 
Heartbeat CPU 0 instructions: 141000000 cycles: 116877346 heartbeat IPC: 0.669148 cumulative IPC: 0.939201 (Simulation time: 1 hr 19 min 58 sec) 
Heartbeat CPU 0 instructions: 142000002 cycles: 118011001 heartbeat IPC: 0.882104 cumulative IPC: 0.938541 (Simulation time: 1 hr 20 min 22 sec) 
Heartbeat CPU 0 instructions: 143000003 cycles: 118887806 heartbeat IPC: 1.14051 cumulative IPC: 0.940332 (Simulation time: 1 hr 20 min 45 sec) 
Heartbeat CPU 0 instructions: 144000000 cycles: 119766445 heartbeat IPC: 1.13812 cumulative IPC: 0.942073 (Simulation time: 1 hr 21 min 15 sec) 
Heartbeat CPU 0 instructions: 145000000 cycles: 120917247 heartbeat IPC: 0.868959 cumulative IPC: 0.94124 (Simulation time: 1 hr 21 min 51 sec) 
Heartbeat CPU 0 instructions: 146000001 cycles: 122345737 heartbeat IPC: 0.700041 cumulative IPC: 0.937874 (Simulation time: 1 hr 22 min 21 sec) 
Heartbeat CPU 0 instructions: 147000002 cycles: 123219125 heartbeat IPC: 1.14497 cumulative IPC: 0.939626 (Simulation time: 1 hr 22 min 48 sec) 
Heartbeat CPU 0 instructions: 148000000 cycles: 124098342 heartbeat IPC: 1.13737 cumulative IPC: 0.941296 (Simulation time: 1 hr 23 min 13 sec) 
Heartbeat CPU 0 instructions: 149000001 cycles: 125304768 heartbeat IPC: 0.828895 cumulative IPC: 0.940008 (Simulation time: 1 hr 23 min 37 sec) 
Heartbeat CPU 0 instructions: 150000000 cycles: 126682129 heartbeat IPC: 0.726025 cumulative IPC: 0.937246 (Simulation time: 1 hr 24 min 1 sec) 
Finished CPU 0 instructions: 100000001 cycles: 106695606 cummulative IPC: 0.937246 (Simulation time: 1 hr 24 min 1 sec) 

ChampSim completed all CPUs

Region of Interest Statistics

CPU 0 cummulative IPC: 0.937246 instructions: 100000001 cycles: 106695606
LLC TOTAL     ACCESS:    1706390  HIT:     703515  MISS:    1002875
LLC LOAD      ACCESS:     272395  HIT:     216468  MISS:      55927
LLC RFO       ACCESS:     107599  HIT:      90441  MISS:      17158
LLC PREFETCH  ACCESS:    1186814  HIT:     258830  MISS:     927984
LLC WRITEBACK ACCESS:     139582  HIT:     137776  MISS:       1806
OPTgen accesses: 9264
OPTgen hits: 8543
OPTgen hit rate: 92.2172


