
*** ChampSim Multicore Out-of-Order Simulator ***

Warmup Instructions: 50000000
Simulation Instructions: 100000000
Configuration: 2
Number of CPUs: 1
LLC sets: 2048
LLC ways: 16
Off-chip DRAM Channels: 1 Width: 64-bit Data Rate: 1600 MT/s

CPU 0 runs /datasets/cs240c-wi22-a00-public/data/Assignment2-gz/soplex_217B.trace.gz
CPU 0 L1D next line prefetcher
CPU 0 L2C IP-based stride prefetcher
Initialize Hawkeye state
Heartbeat CPU 0 instructions: 1000002 cycles: 441289 heartbeat IPC: 2.26609 cumulative IPC: 2.26609 (Simulation time: 0 hr 0 min 45 sec) 
Heartbeat CPU 0 instructions: 2000003 cycles: 800423 heartbeat IPC: 2.78448 cumulative IPC: 2.49868 (Simulation time: 0 hr 1 min 21 sec) 
Heartbeat CPU 0 instructions: 3000002 cycles: 1245423 heartbeat IPC: 2.24719 cumulative IPC: 2.40882 (Simulation time: 0 hr 1 min 58 sec) 
Heartbeat CPU 0 instructions: 4000000 cycles: 1672910 heartbeat IPC: 2.33925 cumulative IPC: 2.39104 (Simulation time: 0 hr 2 min 38 sec) 
Heartbeat CPU 0 instructions: 5000001 cycles: 2056959 heartbeat IPC: 2.60384 cumulative IPC: 2.43077 (Simulation time: 0 hr 3 min 9 sec) 
Heartbeat CPU 0 instructions: 6000000 cycles: 2431127 heartbeat IPC: 2.67259 cumulative IPC: 2.46799 (Simulation time: 0 hr 3 min 41 sec) 
Heartbeat CPU 0 instructions: 7000003 cycles: 2955267 heartbeat IPC: 1.90789 cumulative IPC: 2.36865 (Simulation time: 0 hr 4 min 16 sec) 
Heartbeat CPU 0 instructions: 8000000 cycles: 3401582 heartbeat IPC: 2.24056 cumulative IPC: 2.35185 (Simulation time: 0 hr 4 min 54 sec) 
Heartbeat CPU 0 instructions: 9000001 cycles: 3825897 heartbeat IPC: 2.35674 cumulative IPC: 2.35239 (Simulation time: 0 hr 5 min 34 sec) 
Heartbeat CPU 0 instructions: 10000000 cycles: 4238210 heartbeat IPC: 2.42534 cumulative IPC: 2.35949 (Simulation time: 0 hr 6 min 9 sec) 
Heartbeat CPU 0 instructions: 11000002 cycles: 4666847 heartbeat IPC: 2.33298 cumulative IPC: 2.35705 (Simulation time: 0 hr 6 min 51 sec) 
Heartbeat CPU 0 instructions: 12000000 cycles: 5071089 heartbeat IPC: 2.47376 cumulative IPC: 2.36636 (Simulation time: 0 hr 7 min 27 sec) 
Heartbeat CPU 0 instructions: 13000000 cycles: 5455334 heartbeat IPC: 2.60251 cumulative IPC: 2.38299 (Simulation time: 0 hr 7 min 56 sec) 
Heartbeat CPU 0 instructions: 14000000 cycles: 5904485 heartbeat IPC: 2.22642 cumulative IPC: 2.37108 (Simulation time: 0 hr 8 min 23 sec) 
Heartbeat CPU 0 instructions: 15000000 cycles: 6425777 heartbeat IPC: 1.91831 cumulative IPC: 2.33435 (Simulation time: 0 hr 8 min 58 sec) 
Heartbeat CPU 0 instructions: 16000000 cycles: 6884265 heartbeat IPC: 2.18108 cumulative IPC: 2.32414 (Simulation time: 0 hr 9 min 44 sec) 
Heartbeat CPU 0 instructions: 17000002 cycles: 7264131 heartbeat IPC: 2.63251 cumulative IPC: 2.34027 (Simulation time: 0 hr 10 min 15 sec) 
Heartbeat CPU 0 instructions: 18000003 cycles: 7693928 heartbeat IPC: 2.32668 cumulative IPC: 2.33951 (Simulation time: 0 hr 10 min 52 sec) 
Heartbeat CPU 0 instructions: 19000001 cycles: 8117875 heartbeat IPC: 2.35878 cumulative IPC: 2.34051 (Simulation time: 0 hr 11 min 25 sec) 
Heartbeat CPU 0 instructions: 20000000 cycles: 8502220 heartbeat IPC: 2.60183 cumulative IPC: 2.35233 (Simulation time: 0 hr 11 min 52 sec) 
Heartbeat CPU 0 instructions: 21000000 cycles: 8879715 heartbeat IPC: 2.64904 cumulative IPC: 2.36494 (Simulation time: 0 hr 12 min 24 sec) 
Heartbeat CPU 0 instructions: 22000001 cycles: 9410630 heartbeat IPC: 1.88354 cumulative IPC: 2.33778 (Simulation time: 0 hr 12 min 54 sec) 
Heartbeat CPU 0 instructions: 23000001 cycles: 9858561 heartbeat IPC: 2.23249 cumulative IPC: 2.333 (Simulation time: 0 hr 13 min 34 sec) 
Heartbeat CPU 0 instructions: 24000000 cycles: 10275559 heartbeat IPC: 2.39809 cumulative IPC: 2.33564 (Simulation time: 0 hr 14 min 6 sec) 
Heartbeat CPU 0 instructions: 25000001 cycles: 10688093 heartbeat IPC: 2.42405 cumulative IPC: 2.33905 (Simulation time: 0 hr 14 min 42 sec) 
Heartbeat CPU 0 instructions: 26000002 cycles: 11120231 heartbeat IPC: 2.31408 cumulative IPC: 2.33808 (Simulation time: 0 hr 15 min 19 sec) 
Heartbeat CPU 0 instructions: 27000002 cycles: 11522450 heartbeat IPC: 2.48621 cumulative IPC: 2.34325 (Simulation time: 0 hr 15 min 52 sec) 
Heartbeat CPU 0 instructions: 28000000 cycles: 11906762 heartbeat IPC: 2.60205 cumulative IPC: 2.3516 (Simulation time: 0 hr 16 min 20 sec) 
Heartbeat CPU 0 instructions: 29000002 cycles: 12361599 heartbeat IPC: 2.19859 cumulative IPC: 2.34597 (Simulation time: 0 hr 16 min 47 sec) 
Heartbeat CPU 0 instructions: 30000002 cycles: 12884672 heartbeat IPC: 1.91178 cumulative IPC: 2.32835 (Simulation time: 0 hr 17 min 19 sec) 
Heartbeat CPU 0 instructions: 31000000 cycles: 13290184 heartbeat IPC: 2.46601 cumulative IPC: 2.33255 (Simulation time: 0 hr 17 min 53 sec) 
Heartbeat CPU 0 instructions: 32000000 cycles: 13698409 heartbeat IPC: 2.44963 cumulative IPC: 2.33604 (Simulation time: 0 hr 18 min 23 sec) 
Heartbeat CPU 0 instructions: 33000002 cycles: 14123548 heartbeat IPC: 2.35218 cumulative IPC: 2.33652 (Simulation time: 0 hr 18 min 55 sec) 
Heartbeat CPU 0 instructions: 34000000 cycles: 14531890 heartbeat IPC: 2.44892 cumulative IPC: 2.33968 (Simulation time: 0 hr 19 min 29 sec) 
Heartbeat CPU 0 instructions: 35000002 cycles: 14916586 heartbeat IPC: 2.59946 cumulative IPC: 2.34638 (Simulation time: 0 hr 19 min 59 sec) 
Heartbeat CPU 0 instructions: 36000000 cycles: 15353281 heartbeat IPC: 2.28992 cumulative IPC: 2.34478 (Simulation time: 0 hr 20 min 31 sec) 
Heartbeat CPU 0 instructions: 37000001 cycles: 15878133 heartbeat IPC: 1.9053 cumulative IPC: 2.33025 (Simulation time: 0 hr 21 min 2 sec) 
Heartbeat CPU 0 instructions: 38000000 cycles: 16306788 heartbeat IPC: 2.33288 cumulative IPC: 2.33032 (Simulation time: 0 hr 21 min 37 sec) 
Heartbeat CPU 0 instructions: 39000001 cycles: 16703241 heartbeat IPC: 2.52237 cumulative IPC: 2.33488 (Simulation time: 0 hr 22 min 8 sec) 
Heartbeat CPU 0 instructions: 40000000 cycles: 17127826 heartbeat IPC: 2.35524 cumulative IPC: 2.33538 (Simulation time: 0 hr 22 min 43 sec) 
Heartbeat CPU 0 instructions: 41000000 cycles: 17542979 heartbeat IPC: 2.40875 cumulative IPC: 2.33712 (Simulation time: 0 hr 23 min 14 sec) 
Heartbeat CPU 0 instructions: 42000002 cycles: 17926905 heartbeat IPC: 2.60467 cumulative IPC: 2.34285 (Simulation time: 0 hr 23 min 41 sec) 
Heartbeat CPU 0 instructions: 43000000 cycles: 18347518 heartbeat IPC: 2.37748 cumulative IPC: 2.34364 (Simulation time: 0 hr 24 min 8 sec) 
Heartbeat CPU 0 instructions: 44000000 cycles: 18878298 heartbeat IPC: 1.88402 cumulative IPC: 2.33072 (Simulation time: 0 hr 24 min 36 sec) 
Heartbeat CPU 0 instructions: 45000003 cycles: 19337668 heartbeat IPC: 2.1769 cumulative IPC: 2.32706 (Simulation time: 0 hr 25 min 11 sec) 
Heartbeat CPU 0 instructions: 46000000 cycles: 19769334 heartbeat IPC: 2.3166 cumulative IPC: 2.32684 (Simulation time: 0 hr 25 min 41 sec) 
Heartbeat CPU 0 instructions: 47000001 cycles: 20180198 heartbeat IPC: 2.4339 cumulative IPC: 2.32902 (Simulation time: 0 hr 26 min 17 sec) 
Heartbeat CPU 0 instructions: 48000000 cycles: 20608770 heartbeat IPC: 2.33333 cumulative IPC: 2.32911 (Simulation time: 0 hr 26 min 56 sec) 
Heartbeat CPU 0 instructions: 49000000 cycles: 21014087 heartbeat IPC: 2.4672 cumulative IPC: 2.33177 (Simulation time: 0 hr 27 min 27 sec) 
Heartbeat CPU 0 instructions: 50000002 cycles: 21398591 heartbeat IPC: 2.60076 cumulative IPC: 2.3366 (Simulation time: 0 hr 27 min 53 sec) 

Warmup complete CPU 0 instructions: 50000002 cycles: 21398591 (Simulation time: 0 hr 27 min 53 sec) 

Heartbeat CPU 0 instructions: 51000000 cycles: 24055827 heartbeat IPC: 0.37633 cumulative IPC: 0.37633 (Simulation time: 0 hr 28 min 31 sec) 
Heartbeat CPU 0 instructions: 52000000 cycles: 26974176 heartbeat IPC: 0.34266 cumulative IPC: 0.358706 (Simulation time: 0 hr 29 min 12 sec) 
Heartbeat CPU 0 instructions: 53000000 cycles: 30157985 heartbeat IPC: 0.314089 cumulative IPC: 0.342489 (Simulation time: 0 hr 30 min 9 sec) 
Heartbeat CPU 0 instructions: 54000000 cycles: 32021112 heartbeat IPC: 0.536732 cumulative IPC: 0.376558 (Simulation time: 0 hr 30 min 48 sec) 
Heartbeat CPU 0 instructions: 55000000 cycles: 35420870 heartbeat IPC: 0.294139 cumulative IPC: 0.356575 (Simulation time: 0 hr 31 min 42 sec) 
Heartbeat CPU 0 instructions: 56000000 cycles: 38224930 heartbeat IPC: 0.356626 cumulative IPC: 0.356584 (Simulation time: 0 hr 32 min 22 sec) 
Heartbeat CPU 0 instructions: 57000003 cycles: 39457171 heartbeat IPC: 0.811532 cumulative IPC: 0.387627 (Simulation time: 0 hr 32 min 49 sec) 
Heartbeat CPU 0 instructions: 58000000 cycles: 41627227 heartbeat IPC: 0.460816 cumulative IPC: 0.395479 (Simulation time: 0 hr 33 min 24 sec) 
Heartbeat CPU 0 instructions: 59000001 cycles: 44396036 heartbeat IPC: 0.361166 cumulative IPC: 0.391348 (Simulation time: 0 hr 34 min 10 sec) 
Heartbeat CPU 0 instructions: 60000000 cycles: 47789355 heartbeat IPC: 0.294696 cumulative IPC: 0.37892 (Simulation time: 0 hr 34 min 59 sec) 
Heartbeat CPU 0 instructions: 61000000 cycles: 49988819 heartbeat IPC: 0.454656 cumulative IPC: 0.384747 (Simulation time: 0 hr 35 min 36 sec) 
Heartbeat CPU 0 instructions: 62000002 cycles: 52715333 heartbeat IPC: 0.366769 cumulative IPC: 0.383182 (Simulation time: 0 hr 36 min 18 sec) 
Heartbeat CPU 0 instructions: 63000001 cycles: 56022926 heartbeat IPC: 0.302334 cumulative IPC: 0.375458 (Simulation time: 0 hr 36 min 59 sec) 
Heartbeat CPU 0 instructions: 64000000 cycles: 57276627 heartbeat IPC: 0.797638 cumulative IPC: 0.390211 (Simulation time: 0 hr 37 min 24 sec) 
Heartbeat CPU 0 instructions: 65000001 cycles: 58707417 heartbeat IPC: 0.698915 cumulative IPC: 0.40205 (Simulation time: 0 hr 37 min 56 sec) 
Heartbeat CPU 0 instructions: 66000002 cycles: 62001329 heartbeat IPC: 0.303591 cumulative IPC: 0.394062 (Simulation time: 0 hr 38 min 38 sec) 
Heartbeat CPU 0 instructions: 67000000 cycles: 65181120 heartbeat IPC: 0.314485 cumulative IPC: 0.388283 (Simulation time: 0 hr 39 min 24 sec) 
Heartbeat CPU 0 instructions: 68000000 cycles: 70714703 heartbeat IPC: 0.180715 cumulative IPC: 0.364992 (Simulation time: 0 hr 40 min 14 sec) 
Heartbeat CPU 0 instructions: 69000001 cycles: 74638661 heartbeat IPC: 0.254845 cumulative IPC: 0.356874 (Simulation time: 0 hr 41 min 3 sec) 
Heartbeat CPU 0 instructions: 70000002 cycles: 78675972 heartbeat IPC: 0.24769 cumulative IPC: 0.349178 (Simulation time: 0 hr 41 min 49 sec) 
Heartbeat CPU 0 instructions: 71000002 cycles: 82884228 heartbeat IPC: 0.237628 cumulative IPC: 0.341543 (Simulation time: 0 hr 42 min 33 sec) 
Heartbeat CPU 0 instructions: 72000000 cycles: 86210440 heartbeat IPC: 0.300642 cumulative IPC: 0.339444 (Simulation time: 0 hr 43 min 21 sec) 
Heartbeat CPU 0 instructions: 73000000 cycles: 89534327 heartbeat IPC: 0.300853 cumulative IPC: 0.337561 (Simulation time: 0 hr 44 min 3 sec) 
Heartbeat CPU 0 instructions: 74000000 cycles: 93081441 heartbeat IPC: 0.281919 cumulative IPC: 0.334808 (Simulation time: 0 hr 44 min 39 sec) 
Heartbeat CPU 0 instructions: 75000002 cycles: 96682537 heartbeat IPC: 0.277694 cumulative IPC: 0.332076 (Simulation time: 0 hr 45 min 23 sec) 
Heartbeat CPU 0 instructions: 76000000 cycles: 99242667 heartbeat IPC: 0.390604 cumulative IPC: 0.334001 (Simulation time: 0 hr 46 min 0 sec) 
Heartbeat CPU 0 instructions: 77000000 cycles: 102599439 heartbeat IPC: 0.297905 cumulative IPC: 0.332509 (Simulation time: 0 hr 46 min 52 sec) 
Heartbeat CPU 0 instructions: 78000002 cycles: 104764003 heartbeat IPC: 0.461988 cumulative IPC: 0.335871 (Simulation time: 0 hr 47 min 39 sec) 
Heartbeat CPU 0 instructions: 79000003 cycles: 106630787 heartbeat IPC: 0.535681 cumulative IPC: 0.340247 (Simulation time: 0 hr 48 min 18 sec) 
Heartbeat CPU 0 instructions: 80000000 cycles: 107932567 heartbeat IPC: 0.768177 cumulative IPC: 0.346685 (Simulation time: 0 hr 48 min 49 sec) 
Heartbeat CPU 0 instructions: 81000002 cycles: 110082171 heartbeat IPC: 0.465203 cumulative IPC: 0.349557 (Simulation time: 0 hr 49 min 43 sec) 
Heartbeat CPU 0 instructions: 82000001 cycles: 112741775 heartbeat IPC: 0.375995 cumulative IPC: 0.350327 (Simulation time: 0 hr 50 min 34 sec) 
Heartbeat CPU 0 instructions: 83000002 cycles: 115052178 heartbeat IPC: 0.432825 cumulative IPC: 0.352362 (Simulation time: 0 hr 51 min 14 sec) 
Heartbeat CPU 0 instructions: 84000000 cycles: 117265753 heartbeat IPC: 0.451757 cumulative IPC: 0.354657 (Simulation time: 0 hr 51 min 57 sec) 
Heartbeat CPU 0 instructions: 85000000 cycles: 118843502 heartbeat IPC: 0.633814 cumulative IPC: 0.359177 (Simulation time: 0 hr 52 min 37 sec) 
Heartbeat CPU 0 instructions: 86000000 cycles: 122474283 heartbeat IPC: 0.275423 cumulative IPC: 0.356169 (Simulation time: 0 hr 53 min 31 sec) 
Heartbeat CPU 0 instructions: 87000000 cycles: 125011963 heartbeat IPC: 0.394061 cumulative IPC: 0.357097 (Simulation time: 0 hr 54 min 15 sec) 
Heartbeat CPU 0 instructions: 88000000 cycles: 126328139 heartbeat IPC: 0.759777 cumulative IPC: 0.362148 (Simulation time: 0 hr 54 min 44 sec) 
Heartbeat CPU 0 instructions: 89000003 cycles: 128946528 heartbeat IPC: 0.381915 cumulative IPC: 0.362629 (Simulation time: 0 hr 55 min 24 sec) 
Heartbeat CPU 0 instructions: 90000002 cycles: 131823865 heartbeat IPC: 0.347543 cumulative IPC: 0.362236 (Simulation time: 0 hr 56 min 12 sec) 
Heartbeat CPU 0 instructions: 91000001 cycles: 135166553 heartbeat IPC: 0.29916 cumulative IPC: 0.360383 (Simulation time: 0 hr 57 min 14 sec) 
Heartbeat CPU 0 instructions: 92000000 cycles: 137010998 heartbeat IPC: 0.542168 cumulative IPC: 0.363283 (Simulation time: 0 hr 57 min 58 sec) 
Heartbeat CPU 0 instructions: 93000000 cycles: 140463043 heartbeat IPC: 0.289683 cumulative IPC: 0.361149 (Simulation time: 0 hr 58 min 51 sec) 
Heartbeat CPU 0 instructions: 94000001 cycles: 143223075 heartbeat IPC: 0.362315 cumulative IPC: 0.361175 (Simulation time: 0 hr 59 min 38 sec) 
Heartbeat CPU 0 instructions: 95000003 cycles: 144444966 heartbeat IPC: 0.818405 cumulative IPC: 0.365716 (Simulation time: 1 hr 0 min 4 sec) 
Heartbeat CPU 0 instructions: 96000000 cycles: 146685069 heartbeat IPC: 0.446407 cumulative IPC: 0.367159 (Simulation time: 1 hr 0 min 41 sec) 
Heartbeat CPU 0 instructions: 97000002 cycles: 149302004 heartbeat IPC: 0.382127 cumulative IPC: 0.367465 (Simulation time: 1 hr 1 min 28 sec) 
Heartbeat CPU 0 instructions: 98000003 cycles: 153296731 heartbeat IPC: 0.25033 cumulative IPC: 0.363917 (Simulation time: 1 hr 2 min 28 sec) 
Heartbeat CPU 0 instructions: 99000000 cycles: 156165429 heartbeat IPC: 0.348589 cumulative IPC: 0.363591 (Simulation time: 1 hr 3 min 20 sec) 
Heartbeat CPU 0 instructions: 100000000 cycles: 158020960 heartbeat IPC: 0.538929 cumulative IPC: 0.365972 (Simulation time: 1 hr 4 min 6 sec) 
Heartbeat CPU 0 instructions: 101000001 cycles: 161861131 heartbeat IPC: 0.260405 cumulative IPC: 0.363086 (Simulation time: 1 hr 5 min 9 sec) 
Heartbeat CPU 0 instructions: 102000000 cycles: 163464878 heartbeat IPC: 0.623539 cumulative IPC: 0.366026 (Simulation time: 1 hr 5 min 39 sec) 
Heartbeat CPU 0 instructions: 103000001 cycles: 164715430 heartbeat IPC: 0.799648 cumulative IPC: 0.36981 (Simulation time: 1 hr 6 min 7 sec) 
Heartbeat CPU 0 instructions: 104000000 cycles: 168323355 heartbeat IPC: 0.277167 cumulative IPC: 0.367535 (Simulation time: 1 hr 6 min 57 sec) 
Heartbeat CPU 0 instructions: 105000003 cycles: 171467300 heartbeat IPC: 0.318073 cumulative IPC: 0.366499 (Simulation time: 1 hr 7 min 45 sec) 
Heartbeat CPU 0 instructions: 106000002 cycles: 174165996 heartbeat IPC: 0.370549 cumulative IPC: 0.36657 (Simulation time: 1 hr 8 min 29 sec) 
Heartbeat CPU 0 instructions: 107000000 cycles: 175884884 heartbeat IPC: 0.58177 cumulative IPC: 0.368965 (Simulation time: 1 hr 9 min 17 sec) 
Heartbeat CPU 0 instructions: 108000000 cycles: 179816035 heartbeat IPC: 0.254378 cumulative IPC: 0.366121 (Simulation time: 1 hr 10 min 19 sec) 
Heartbeat CPU 0 instructions: 109000000 cycles: 181653389 heartbeat IPC: 0.544261 cumulative IPC: 0.368164 (Simulation time: 1 hr 10 min 52 sec) 
Heartbeat CPU 0 instructions: 110000002 cycles: 182811025 heartbeat IPC: 0.863831 cumulative IPC: 0.371719 (Simulation time: 1 hr 11 min 26 sec) 
Heartbeat CPU 0 instructions: 111000000 cycles: 186154872 heartbeat IPC: 0.299056 cumulative IPC: 0.370244 (Simulation time: 1 hr 12 min 8 sec) 
Heartbeat CPU 0 instructions: 112000000 cycles: 189014327 heartbeat IPC: 0.349717 cumulative IPC: 0.369894 (Simulation time: 1 hr 12 min 55 sec) 
Heartbeat CPU 0 instructions: 113000001 cycles: 191883631 heartbeat IPC: 0.348517 cumulative IPC: 0.369534 (Simulation time: 1 hr 13 min 41 sec) 
Heartbeat CPU 0 instructions: 114000003 cycles: 193386340 heartbeat IPC: 0.665466 cumulative IPC: 0.37212 (Simulation time: 1 hr 14 min 21 sec) 
Heartbeat CPU 0 instructions: 115000000 cycles: 197249401 heartbeat IPC: 0.258861 cumulative IPC: 0.369631 (Simulation time: 1 hr 15 min 22 sec) 
Heartbeat CPU 0 instructions: 116000000 cycles: 199381215 heartbeat IPC: 0.469084 cumulative IPC: 0.370823 (Simulation time: 1 hr 16 min 3 sec) 
Heartbeat CPU 0 instructions: 117000000 cycles: 200564951 heartbeat IPC: 0.844783 cumulative IPC: 0.373954 (Simulation time: 1 hr 16 min 25 sec) 
Heartbeat CPU 0 instructions: 118000000 cycles: 203609091 heartbeat IPC: 0.3285 cumulative IPC: 0.373195 (Simulation time: 1 hr 16 min 56 sec) 
Heartbeat CPU 0 instructions: 119000001 cycles: 206424038 heartbeat IPC: 0.355247 cumulative IPC: 0.372922 (Simulation time: 1 hr 17 min 35 sec) 
Heartbeat CPU 0 instructions: 120000000 cycles: 209409883 heartbeat IPC: 0.334913 cumulative IPC: 0.372318 (Simulation time: 1 hr 18 min 12 sec) 
Heartbeat CPU 0 instructions: 121000000 cycles: 210943992 heartbeat IPC: 0.651844 cumulative IPC: 0.37458 (Simulation time: 1 hr 18 min 43 sec) 
Heartbeat CPU 0 instructions: 122000001 cycles: 214654820 heartbeat IPC: 0.269482 cumulative IPC: 0.372562 (Simulation time: 1 hr 19 min 32 sec) 
Heartbeat CPU 0 instructions: 123000000 cycles: 217147774 heartbeat IPC: 0.40113 cumulative IPC: 0.372926 (Simulation time: 1 hr 20 min 0 sec) 
Heartbeat CPU 0 instructions: 124000000 cycles: 218355502 heartbeat IPC: 0.828001 cumulative IPC: 0.375717 (Simulation time: 1 hr 20 min 20 sec) 
Heartbeat CPU 0 instructions: 125000003 cycles: 221049988 heartbeat IPC: 0.371129 cumulative IPC: 0.375655 (Simulation time: 1 hr 20 min 47 sec) 
Heartbeat CPU 0 instructions: 126000000 cycles: 223900682 heartbeat IPC: 0.350791 cumulative IPC: 0.375305 (Simulation time: 1 hr 21 min 21 sec) 
Heartbeat CPU 0 instructions: 127000003 cycles: 226294500 heartbeat IPC: 0.417744 cumulative IPC: 0.375801 (Simulation time: 1 hr 21 min 53 sec) 
Heartbeat CPU 0 instructions: 128000000 cycles: 228951684 heartbeat IPC: 0.376337 cumulative IPC: 0.375807 (Simulation time: 1 hr 22 min 27 sec) 
Heartbeat CPU 0 instructions: 129000002 cycles: 230932351 heartbeat IPC: 0.504881 cumulative IPC: 0.377028 (Simulation time: 1 hr 22 min 58 sec) 
Heartbeat CPU 0 instructions: 130000000 cycles: 234934454 heartbeat IPC: 0.249868 cumulative IPC: 0.374644 (Simulation time: 1 hr 23 min 35 sec) 
Heartbeat CPU 0 instructions: 131000001 cycles: 236264147 heartbeat IPC: 0.752054 cumulative IPC: 0.37698 (Simulation time: 1 hr 23 min 55 sec) 
Heartbeat CPU 0 instructions: 132000000 cycles: 237402013 heartbeat IPC: 0.878837 cumulative IPC: 0.379624 (Simulation time: 1 hr 24 min 15 sec) 
Heartbeat CPU 0 instructions: 133000002 cycles: 240906326 heartbeat IPC: 0.285363 cumulative IPC: 0.378119 (Simulation time: 1 hr 24 min 45 sec) 
Heartbeat CPU 0 instructions: 134000002 cycles: 244092403 heartbeat IPC: 0.313866 cumulative IPC: 0.3772 (Simulation time: 1 hr 25 min 17 sec) 
Heartbeat CPU 0 instructions: 135000001 cycles: 246782931 heartbeat IPC: 0.371674 cumulative IPC: 0.377134 (Simulation time: 1 hr 25 min 49 sec) 
Heartbeat CPU 0 instructions: 136000000 cycles: 248497373 heartbeat IPC: 0.58328 cumulative IPC: 0.37869 (Simulation time: 1 hr 26 min 19 sec) 
Heartbeat CPU 0 instructions: 137000003 cycles: 252398660 heartbeat IPC: 0.256326 cumulative IPC: 0.376623 (Simulation time: 1 hr 26 min 58 sec) 
Heartbeat CPU 0 instructions: 138000000 cycles: 254161220 heartbeat IPC: 0.567355 cumulative IPC: 0.378068 (Simulation time: 1 hr 27 min 15 sec) 
Heartbeat CPU 0 instructions: 139000000 cycles: 255318352 heartbeat IPC: 0.864206 cumulative IPC: 0.380472 (Simulation time: 1 hr 27 min 32 sec) 
Heartbeat CPU 0 instructions: 140000000 cycles: 258769543 heartbeat IPC: 0.289755 cumulative IPC: 0.379153 (Simulation time: 1 hr 27 min 59 sec) 
Heartbeat CPU 0 instructions: 141000001 cycles: 261704626 heartbeat IPC: 0.340706 cumulative IPC: 0.378684 (Simulation time: 1 hr 28 min 27 sec) 
Heartbeat CPU 0 instructions: 142000002 cycles: 264505293 heartbeat IPC: 0.357058 cumulative IPC: 0.378435 (Simulation time: 1 hr 28 min 53 sec) 
Heartbeat CPU 0 instructions: 143000000 cycles: 266095187 heartbeat IPC: 0.628972 cumulative IPC: 0.380062 (Simulation time: 1 hr 29 min 22 sec) 
Heartbeat CPU 0 instructions: 144000000 cycles: 269970547 heartbeat IPC: 0.258041 cumulative IPC: 0.37816 (Simulation time: 1 hr 29 min 52 sec) 
Heartbeat CPU 0 instructions: 145000001 cycles: 271995982 heartbeat IPC: 0.493722 cumulative IPC: 0.379094 (Simulation time: 1 hr 30 min 9 sec) 
Heartbeat CPU 0 instructions: 146000000 cycles: 273173084 heartbeat IPC: 0.849543 cumulative IPC: 0.381294 (Simulation time: 1 hr 30 min 23 sec) 
Heartbeat CPU 0 instructions: 147000000 cycles: 276501708 heartbeat IPC: 0.300424 cumulative IPC: 0.380238 (Simulation time: 1 hr 30 min 46 sec) 
Heartbeat CPU 0 instructions: 148000000 cycles: 279342843 heartbeat IPC: 0.351972 cumulative IPC: 0.379927 (Simulation time: 1 hr 31 min 11 sec) 
Heartbeat CPU 0 instructions: 149000002 cycles: 282348613 heartbeat IPC: 0.332694 cumulative IPC: 0.379383 (Simulation time: 1 hr 31 min 32 sec) 
Heartbeat CPU 0 instructions: 150000000 cycles: 283779693 heartbeat IPC: 0.698772 cumulative IPC: 0.381125 (Simulation time: 1 hr 31 min 50 sec) 
Finished CPU 0 instructions: 100000001 cycles: 262381106 cummulative IPC: 0.381125 (Simulation time: 1 hr 31 min 50 sec) 

ChampSim completed all CPUs

Region of Interest Statistics

CPU 0 cummulative IPC: 0.381125 instructions: 100000001 cycles: 262381106
LLC TOTAL     ACCESS:    8586471  HIT:    4776465  MISS:    3810006
LLC LOAD      ACCESS:    2181626  HIT:    1059189  MISS:    1122437
LLC RFO       ACCESS:     808497  HIT:     248266  MISS:     560231
LLC PREFETCH  ACCESS:    3497467  HIT:    1617392  MISS:    1880075
LLC WRITEBACK ACCESS:    2098881  HIT:    1851618  MISS:     247263
OPTgen accesses: 65811
OPTgen hits: 49518
OPTgen hit rate: 75.2427


