
*** ChampSim Multicore Out-of-Order Simulator ***

Warmup Instructions: 50000000
Simulation Instructions: 100000000
Configuration: 2
Number of CPUs: 1
LLC sets: 2048
LLC ways: 16
Off-chip DRAM Channels: 1 Width: 64-bit Data Rate: 1600 MT/s

CPU 0 runs /datasets/cs240c-wi22-a00-public/data/Assignment2-gz/mcf_46B.trace.gz
CPU 0 L1D next line prefetcher
CPU 0 L2C IP-based stride prefetcher
Initialize Hawkeye state
Heartbeat CPU 0 instructions: 1000002 cycles: 492244 heartbeat IPC: 2.03152 cumulative IPC: 2.03152 (Simulation time: 0 hr 0 min 43 sec) 
Heartbeat CPU 0 instructions: 2000002 cycles: 987690 heartbeat IPC: 2.01838 cumulative IPC: 2.02493 (Simulation time: 0 hr 1 min 28 sec) 
Heartbeat CPU 0 instructions: 3000003 cycles: 1514876 heartbeat IPC: 1.89687 cumulative IPC: 1.98036 (Simulation time: 0 hr 2 min 9 sec) 
Heartbeat CPU 0 instructions: 4000000 cycles: 2032868 heartbeat IPC: 1.93053 cumulative IPC: 1.96766 (Simulation time: 0 hr 2 min 50 sec) 
Heartbeat CPU 0 instructions: 5000000 cycles: 2526698 heartbeat IPC: 2.02499 cumulative IPC: 1.97887 (Simulation time: 0 hr 3 min 33 sec) 
Heartbeat CPU 0 instructions: 6000002 cycles: 3029990 heartbeat IPC: 1.98692 cumulative IPC: 1.98021 (Simulation time: 0 hr 4 min 12 sec) 
Heartbeat CPU 0 instructions: 7000001 cycles: 3575372 heartbeat IPC: 1.83358 cumulative IPC: 1.95784 (Simulation time: 0 hr 4 min 56 sec) 
Heartbeat CPU 0 instructions: 8000000 cycles: 4066074 heartbeat IPC: 2.03789 cumulative IPC: 1.9675 (Simulation time: 0 hr 5 min 35 sec) 
Heartbeat CPU 0 instructions: 9000001 cycles: 4549732 heartbeat IPC: 2.06758 cumulative IPC: 1.97814 (Simulation time: 0 hr 6 min 19 sec) 
Heartbeat CPU 0 instructions: 10000001 cycles: 5084355 heartbeat IPC: 1.87048 cumulative IPC: 1.96682 (Simulation time: 0 hr 7 min 10 sec) 
Heartbeat CPU 0 instructions: 11000002 cycles: 5629401 heartbeat IPC: 1.83471 cumulative IPC: 1.95403 (Simulation time: 0 hr 7 min 59 sec) 
Heartbeat CPU 0 instructions: 12000000 cycles: 6108237 heartbeat IPC: 2.08839 cumulative IPC: 1.96456 (Simulation time: 0 hr 8 min 47 sec) 
Heartbeat CPU 0 instructions: 13000000 cycles: 6603986 heartbeat IPC: 2.01715 cumulative IPC: 1.96851 (Simulation time: 0 hr 9 min 30 sec) 
Heartbeat CPU 0 instructions: 14000003 cycles: 7149392 heartbeat IPC: 1.8335 cumulative IPC: 1.95821 (Simulation time: 0 hr 10 min 19 sec) 
Heartbeat CPU 0 instructions: 15000000 cycles: 7626755 heartbeat IPC: 2.09484 cumulative IPC: 1.96676 (Simulation time: 0 hr 11 min 3 sec) 
Heartbeat CPU 0 instructions: 16000000 cycles: 8104038 heartbeat IPC: 2.09519 cumulative IPC: 1.97432 (Simulation time: 0 hr 11 min 39 sec) 
Heartbeat CPU 0 instructions: 17000002 cycles: 8649265 heartbeat IPC: 1.8341 cumulative IPC: 1.96549 (Simulation time: 0 hr 12 min 19 sec) 
Heartbeat CPU 0 instructions: 18000000 cycles: 9136307 heartbeat IPC: 2.05321 cumulative IPC: 1.97016 (Simulation time: 0 hr 13 min 2 sec) 
Heartbeat CPU 0 instructions: 19000002 cycles: 9624823 heartbeat IPC: 2.04702 cumulative IPC: 1.97406 (Simulation time: 0 hr 13 min 47 sec) 
Heartbeat CPU 0 instructions: 20000000 cycles: 10202319 heartbeat IPC: 1.73161 cumulative IPC: 1.96034 (Simulation time: 0 hr 14 min 30 sec) 
Heartbeat CPU 0 instructions: 21000001 cycles: 10746786 heartbeat IPC: 1.83666 cumulative IPC: 1.95407 (Simulation time: 0 hr 15 min 15 sec) 
Heartbeat CPU 0 instructions: 22000002 cycles: 11225509 heartbeat IPC: 2.08889 cumulative IPC: 1.95982 (Simulation time: 0 hr 15 min 58 sec) 
Heartbeat CPU 0 instructions: 23000000 cycles: 11705560 heartbeat IPC: 2.08311 cumulative IPC: 1.96488 (Simulation time: 0 hr 16 min 42 sec) 
Heartbeat CPU 0 instructions: 24000000 cycles: 12235793 heartbeat IPC: 1.88596 cumulative IPC: 1.96146 (Simulation time: 0 hr 17 min 20 sec) 
Heartbeat CPU 0 instructions: 25000002 cycles: 12735229 heartbeat IPC: 2.00226 cumulative IPC: 1.96306 (Simulation time: 0 hr 17 min 59 sec) 
Heartbeat CPU 0 instructions: 26000000 cycles: 13216262 heartbeat IPC: 2.07886 cumulative IPC: 1.96727 (Simulation time: 0 hr 18 min 37 sec) 
Heartbeat CPU 0 instructions: 27000002 cycles: 13728715 heartbeat IPC: 1.9514 cumulative IPC: 1.96668 (Simulation time: 0 hr 19 min 16 sec) 
Heartbeat CPU 0 instructions: 28000000 cycles: 14244010 heartbeat IPC: 1.94063 cumulative IPC: 1.96574 (Simulation time: 0 hr 19 min 56 sec) 
Heartbeat CPU 0 instructions: 29000001 cycles: 14722825 heartbeat IPC: 2.08849 cumulative IPC: 1.96973 (Simulation time: 0 hr 20 min 49 sec) 
Heartbeat CPU 0 instructions: 30000000 cycles: 15219828 heartbeat IPC: 2.01206 cumulative IPC: 1.97111 (Simulation time: 0 hr 21 min 29 sec) 
Heartbeat CPU 0 instructions: 31000002 cycles: 15752097 heartbeat IPC: 1.87875 cumulative IPC: 1.96799 (Simulation time: 0 hr 22 min 9 sec) 
Heartbeat CPU 0 instructions: 32000000 cycles: 16231762 heartbeat IPC: 2.08478 cumulative IPC: 1.97144 (Simulation time: 0 hr 22 min 52 sec) 
Heartbeat CPU 0 instructions: 33000000 cycles: 16736327 heartbeat IPC: 1.98191 cumulative IPC: 1.97176 (Simulation time: 0 hr 23 min 33 sec) 
Heartbeat CPU 0 instructions: 34000000 cycles: 17276380 heartbeat IPC: 1.85167 cumulative IPC: 1.968 (Simulation time: 0 hr 24 min 15 sec) 
Heartbeat CPU 0 instructions: 35000001 cycles: 17765390 heartbeat IPC: 2.04495 cumulative IPC: 1.97012 (Simulation time: 0 hr 24 min 55 sec) 
Heartbeat CPU 0 instructions: 36000000 cycles: 18271420 heartbeat IPC: 1.97617 cumulative IPC: 1.97029 (Simulation time: 0 hr 25 min 37 sec) 
Heartbeat CPU 0 instructions: 37000002 cycles: 18787234 heartbeat IPC: 1.93869 cumulative IPC: 1.96942 (Simulation time: 0 hr 26 min 23 sec) 
Heartbeat CPU 0 instructions: 38000001 cycles: 19300856 heartbeat IPC: 1.94696 cumulative IPC: 1.96882 (Simulation time: 0 hr 27 min 8 sec) 
Heartbeat CPU 0 instructions: 39000000 cycles: 19778207 heartbeat IPC: 2.09489 cumulative IPC: 1.97187 (Simulation time: 0 hr 27 min 48 sec) 
Heartbeat CPU 0 instructions: 40000000 cycles: 20267386 heartbeat IPC: 2.04424 cumulative IPC: 1.97361 (Simulation time: 0 hr 28 min 27 sec) 
Heartbeat CPU 0 instructions: 41000000 cycles: 20806264 heartbeat IPC: 1.85571 cumulative IPC: 1.97056 (Simulation time: 0 hr 29 min 6 sec) 
Heartbeat CPU 0 instructions: 42000001 cycles: 21290197 heartbeat IPC: 2.0664 cumulative IPC: 1.97274 (Simulation time: 0 hr 29 min 52 sec) 
Heartbeat CPU 0 instructions: 43000000 cycles: 21767851 heartbeat IPC: 2.09356 cumulative IPC: 1.97539 (Simulation time: 0 hr 30 min 32 sec) 
Heartbeat CPU 0 instructions: 44000000 cycles: 22299001 heartbeat IPC: 1.88271 cumulative IPC: 1.97318 (Simulation time: 0 hr 31 min 13 sec) 
Heartbeat CPU 0 instructions: 45000001 cycles: 22792658 heartbeat IPC: 2.0257 cumulative IPC: 1.97432 (Simulation time: 0 hr 31 min 52 sec) 
Heartbeat CPU 0 instructions: 46000001 cycles: 23272733 heartbeat IPC: 2.08301 cumulative IPC: 1.97656 (Simulation time: 0 hr 32 min 28 sec) 
Heartbeat CPU 0 instructions: 47000002 cycles: 23786394 heartbeat IPC: 1.94681 cumulative IPC: 1.97592 (Simulation time: 0 hr 33 min 9 sec) 
Heartbeat CPU 0 instructions: 48000000 cycles: 24308007 heartbeat IPC: 1.91713 cumulative IPC: 1.97466 (Simulation time: 0 hr 33 min 54 sec) 
Heartbeat CPU 0 instructions: 49000000 cycles: 24791186 heartbeat IPC: 2.06963 cumulative IPC: 1.97651 (Simulation time: 0 hr 34 min 38 sec) 
Heartbeat CPU 0 instructions: 50000000 cycles: 25282299 heartbeat IPC: 2.03619 cumulative IPC: 1.97767 (Simulation time: 0 hr 35 min 19 sec) 

Warmup complete CPU 0 instructions: 50000004 cycles: 25282300 (Simulation time: 0 hr 35 min 19 sec) 

Heartbeat CPU 0 instructions: 51000001 cycles: 39397820 heartbeat IPC: 0.0708441 cumulative IPC: 0.0708438 (Simulation time: 0 hr 36 min 31 sec) 
Heartbeat CPU 0 instructions: 52000000 cycles: 43993827 heartbeat IPC: 0.21758 cumulative IPC: 0.106886 (Simulation time: 0 hr 37 min 20 sec) 
Heartbeat CPU 0 instructions: 53000000 cycles: 48220085 heartbeat IPC: 0.236616 cumulative IPC: 0.130788 (Simulation time: 0 hr 38 min 10 sec) 
Heartbeat CPU 0 instructions: 54000002 cycles: 63331805 heartbeat IPC: 0.0661739 cumulative IPC: 0.105126 (Simulation time: 0 hr 39 min 27 sec) 
Heartbeat CPU 0 instructions: 55000002 cycles: 68611162 heartbeat IPC: 0.189417 cumulative IPC: 0.115396 (Simulation time: 0 hr 40 min 17 sec) 
Heartbeat CPU 0 instructions: 56000000 cycles: 72966247 heartbeat IPC: 0.229616 cumulative IPC: 0.125828 (Simulation time: 0 hr 41 min 4 sec) 
Heartbeat CPU 0 instructions: 57000000 cycles: 86060824 heartbeat IPC: 0.0763675 cumulative IPC: 0.115172 (Simulation time: 0 hr 42 min 15 sec) 
Heartbeat CPU 0 instructions: 58000000 cycles: 93420444 heartbeat IPC: 0.135877 cumulative IPC: 0.117408 (Simulation time: 0 hr 43 min 30 sec) 
Heartbeat CPU 0 instructions: 59000002 cycles: 97857458 heartbeat IPC: 0.225377 cumulative IPC: 0.124009 (Simulation time: 0 hr 44 min 37 sec) 
Heartbeat CPU 0 instructions: 60000000 cycles: 109301415 heartbeat IPC: 0.0873822 cumulative IPC: 0.11902 (Simulation time: 0 hr 45 min 45 sec) 
Heartbeat CPU 0 instructions: 61000002 cycles: 118494415 heartbeat IPC: 0.108779 cumulative IPC: 0.11801 (Simulation time: 0 hr 46 min 46 sec) 
Heartbeat CPU 0 instructions: 62000001 cycles: 122725941 heartbeat IPC: 0.236321 cumulative IPC: 0.123148 (Simulation time: 0 hr 47 min 32 sec) 
Heartbeat CPU 0 instructions: 63000001 cycles: 132759151 heartbeat IPC: 0.099669 cumulative IPC: 0.120956 (Simulation time: 0 hr 48 min 32 sec) 
Heartbeat CPU 0 instructions: 64000000 cycles: 143781903 heartbeat IPC: 0.0907214 cumulative IPC: 0.118144 (Simulation time: 0 hr 49 min 52 sec) 
Heartbeat CPU 0 instructions: 65000002 cycles: 149045073 heartbeat IPC: 0.19 cumulative IPC: 0.1212 (Simulation time: 0 hr 50 min 54 sec) 
Heartbeat CPU 0 instructions: 66000000 cycles: 155631903 heartbeat IPC: 0.151818 cumulative IPC: 0.122747 (Simulation time: 0 hr 52 min 0 sec) 
Heartbeat CPU 0 instructions: 67000002 cycles: 171003716 heartbeat IPC: 0.0650543 cumulative IPC: 0.116661 (Simulation time: 0 hr 53 min 24 sec) 
Heartbeat CPU 0 instructions: 68000000 cycles: 175502990 heartbeat IPC: 0.222258 cumulative IPC: 0.119824 (Simulation time: 0 hr 54 min 19 sec) 
Heartbeat CPU 0 instructions: 69000000 cycles: 179595270 heartbeat IPC: 0.244363 cumulative IPC: 0.123126 (Simulation time: 0 hr 55 min 11 sec) 
Heartbeat CPU 0 instructions: 70000001 cycles: 193775110 heartbeat IPC: 0.0705227 cumulative IPC: 0.118699 (Simulation time: 0 hr 56 min 39 sec) 
Heartbeat CPU 0 instructions: 71000002 cycles: 202417669 heartbeat IPC: 0.115707 cumulative IPC: 0.118553 (Simulation time: 0 hr 57 min 49 sec) 
Heartbeat CPU 0 instructions: 72000000 cycles: 207327967 heartbeat IPC: 0.203653 cumulative IPC: 0.120849 (Simulation time: 0 hr 58 min 35 sec) 
Heartbeat CPU 0 instructions: 73000002 cycles: 216338164 heartbeat IPC: 0.110986 cumulative IPC: 0.120384 (Simulation time: 0 hr 59 min 46 sec) 
Heartbeat CPU 0 instructions: 74000001 cycles: 227664823 heartbeat IPC: 0.0882872 cumulative IPC: 0.118587 (Simulation time: 1 hr 0 min 53 sec) 
Heartbeat CPU 0 instructions: 75000001 cycles: 232212952 heartbeat IPC: 0.219871 cumulative IPC: 0.120813 (Simulation time: 1 hr 1 min 48 sec) 
Heartbeat CPU 0 instructions: 76000000 cycles: 238285769 heartbeat IPC: 0.164668 cumulative IPC: 0.122064 (Simulation time: 1 hr 2 min 42 sec) 
Heartbeat CPU 0 instructions: 77000001 cycles: 254424221 heartbeat IPC: 0.0619639 cumulative IPC: 0.117831 (Simulation time: 1 hr 4 min 2 sec) 
Heartbeat CPU 0 instructions: 78000002 cycles: 259315712 heartbeat IPC: 0.204437 cumulative IPC: 0.119641 (Simulation time: 1 hr 4 min 55 sec) 
Heartbeat CPU 0 instructions: 79000001 cycles: 263736300 heartbeat IPC: 0.226214 cumulative IPC: 0.121617 (Simulation time: 1 hr 5 min 47 sec) 
Heartbeat CPU 0 instructions: 80000000 cycles: 276386843 heartbeat IPC: 0.0790479 cumulative IPC: 0.119472 (Simulation time: 1 hr 6 min 58 sec) 
Heartbeat CPU 0 instructions: 81000000 cycles: 283655447 heartbeat IPC: 0.137578 cumulative IPC: 0.119981 (Simulation time: 1 hr 8 min 0 sec) 
Heartbeat CPU 0 instructions: 82000000 cycles: 288493390 heartbeat IPC: 0.206699 cumulative IPC: 0.121575 (Simulation time: 1 hr 8 min 49 sec) 
Heartbeat CPU 0 instructions: 83000001 cycles: 298278553 heartbeat IPC: 0.102196 cumulative IPC: 0.120881 (Simulation time: 1 hr 9 min 51 sec) 
Heartbeat CPU 0 instructions: 84000000 cycles: 309420790 heartbeat IPC: 0.0897485 cumulative IPC: 0.11966 (Simulation time: 1 hr 11 min 8 sec) 
Heartbeat CPU 0 instructions: 85000001 cycles: 313713510 heartbeat IPC: 0.232953 cumulative IPC: 0.121346 (Simulation time: 1 hr 12 min 4 sec) 
Heartbeat CPU 0 instructions: 86000000 cycles: 321838752 heartbeat IPC: 0.123073 cumulative IPC: 0.121393 (Simulation time: 1 hr 13 min 2 sec) 
Heartbeat CPU 0 instructions: 87000000 cycles: 336076007 heartbeat IPC: 0.0702383 cumulative IPC: 0.11905 (Simulation time: 1 hr 14 min 8 sec) 
Heartbeat CPU 0 instructions: 88000000 cycles: 342233801 heartbeat IPC: 0.162396 cumulative IPC: 0.119892 (Simulation time: 1 hr 14 min 55 sec) 
Heartbeat CPU 0 instructions: 89000000 cycles: 346449829 heartbeat IPC: 0.23719 cumulative IPC: 0.121432 (Simulation time: 1 hr 15 min 53 sec) 
Heartbeat CPU 0 instructions: 90000003 cycles: 358011324 heartbeat IPC: 0.0864943 cumulative IPC: 0.120218 (Simulation time: 1 hr 17 min 3 sec) 
Heartbeat CPU 0 instructions: 91000000 cycles: 366584291 heartbeat IPC: 0.116645 cumulative IPC: 0.120128 (Simulation time: 1 hr 18 min 9 sec) 
Heartbeat CPU 0 instructions: 92000000 cycles: 370851898 heartbeat IPC: 0.234323 cumulative IPC: 0.121538 (Simulation time: 1 hr 18 min 52 sec) 
Heartbeat CPU 0 instructions: 93000002 cycles: 379819535 heartbeat IPC: 0.111512 cumulative IPC: 0.121285 (Simulation time: 1 hr 19 min 53 sec) 
Heartbeat CPU 0 instructions: 94000002 cycles: 390940402 heartbeat IPC: 0.089921 cumulative IPC: 0.120331 (Simulation time: 1 hr 21 min 2 sec) 
Heartbeat CPU 0 instructions: 95000000 cycles: 396679782 heartbeat IPC: 0.174234 cumulative IPC: 0.121164 (Simulation time: 1 hr 21 min 44 sec) 
Heartbeat CPU 0 instructions: 96000000 cycles: 402318033 heartbeat IPC: 0.17736 cumulative IPC: 0.122004 (Simulation time: 1 hr 22 min 26 sec) 
Heartbeat CPU 0 instructions: 97000000 cycles: 417317751 heartbeat IPC: 0.0666679 cumulative IPC: 0.119887 (Simulation time: 1 hr 23 min 26 sec) 
Heartbeat CPU 0 instructions: 98000002 cycles: 422053231 heartbeat IPC: 0.211172 cumulative IPC: 0.120977 (Simulation time: 1 hr 24 min 6 sec) 
Heartbeat CPU 0 instructions: 99000002 cycles: 426906918 heartbeat IPC: 0.206029 cumulative IPC: 0.122004 (Simulation time: 1 hr 24 min 47 sec) 
Heartbeat CPU 0 instructions: 100000000 cycles: 440417688 heartbeat IPC: 0.0740149 cumulative IPC: 0.120443 (Simulation time: 1 hr 25 min 46 sec) 
Heartbeat CPU 0 instructions: 101000000 cycles: 447061141 heartbeat IPC: 0.150524 cumulative IPC: 0.120916 (Simulation time: 1 hr 26 min 21 sec) 
Heartbeat CPU 0 instructions: 102000003 cycles: 451362231 heartbeat IPC: 0.2325 cumulative IPC: 0.122043 (Simulation time: 1 hr 26 min 53 sec) 
Heartbeat CPU 0 instructions: 103000003 cycles: 463213464 heartbeat IPC: 0.0843794 cumulative IPC: 0.121024 (Simulation time: 1 hr 27 min 36 sec) 
Heartbeat CPU 0 instructions: 104000000 cycles: 474736057 heartbeat IPC: 0.0867858 cumulative IPC: 0.120146 (Simulation time: 1 hr 28 min 24 sec) 
Heartbeat CPU 0 instructions: 105000000 cycles: 479489208 heartbeat IPC: 0.210387 cumulative IPC: 0.12109 (Simulation time: 1 hr 28 min 54 sec) 
Heartbeat CPU 0 instructions: 106000000 cycles: 483670324 heartbeat IPC: 0.239171 cumulative IPC: 0.122167 (Simulation time: 1 hr 29 min 24 sec) 
Heartbeat CPU 0 instructions: 107000002 cycles: 498301898 heartbeat IPC: 0.0683455 cumulative IPC: 0.120502 (Simulation time: 1 hr 30 min 9 sec) 
Heartbeat CPU 0 instructions: 108000000 cycles: 503596805 heartbeat IPC: 0.18886 cumulative IPC: 0.121259 (Simulation time: 1 hr 30 min 40 sec) 
Heartbeat CPU 0 instructions: 109000001 cycles: 507966641 heartbeat IPC: 0.228842 cumulative IPC: 0.122233 (Simulation time: 1 hr 31 min 6 sec) 
Heartbeat CPU 0 instructions: 110000002 cycles: 517837527 heartbeat IPC: 0.101308 cumulative IPC: 0.121814 (Simulation time: 1 hr 31 min 35 sec) 
Heartbeat CPU 0 instructions: 111000003 cycles: 528838616 heartbeat IPC: 0.0909002 cumulative IPC: 0.121138 (Simulation time: 1 hr 32 min 4 sec) 
Heartbeat CPU 0 instructions: 112000000 cycles: 532928243 heartbeat IPC: 0.24452 cumulative IPC: 0.122132 (Simulation time: 1 hr 32 min 26 sec) 
Heartbeat CPU 0 instructions: 113000000 cycles: 540302920 heartbeat IPC: 0.135599 cumulative IPC: 0.122325 (Simulation time: 1 hr 32 min 48 sec) 
Heartbeat CPU 0 instructions: 114000000 cycles: 553780519 heartbeat IPC: 0.0741972 cumulative IPC: 0.121098 (Simulation time: 1 hr 33 min 16 sec) 
Heartbeat CPU 0 instructions: 115000001 cycles: 561326931 heartbeat IPC: 0.132513 cumulative IPC: 0.121259 (Simulation time: 1 hr 33 min 38 sec) 
Heartbeat CPU 0 instructions: 116000000 cycles: 565404192 heartbeat IPC: 0.245262 cumulative IPC: 0.122195 (Simulation time: 1 hr 33 min 55 sec) 
Heartbeat CPU 0 instructions: 117000000 cycles: 575620160 heartbeat IPC: 0.097886 cumulative IPC: 0.121743 (Simulation time: 1 hr 34 min 18 sec) 
Heartbeat CPU 0 instructions: 118000000 cycles: 585537435 heartbeat IPC: 0.100834 cumulative IPC: 0.121373 (Simulation time: 1 hr 34 min 42 sec) 
Heartbeat CPU 0 instructions: 119000000 cycles: 589732553 heartbeat IPC: 0.238372 cumulative IPC: 0.122243 (Simulation time: 1 hr 34 min 59 sec) 
Heartbeat CPU 0 instructions: 120000000 cycles: 596299352 heartbeat IPC: 0.152281 cumulative IPC: 0.122588 (Simulation time: 1 hr 35 min 17 sec) 
Heartbeat CPU 0 instructions: 121000000 cycles: 610003663 heartbeat IPC: 0.0729697 cumulative IPC: 0.121425 (Simulation time: 1 hr 35 min 39 sec) 
Heartbeat CPU 0 instructions: 122000001 cycles: 614184929 heartbeat IPC: 0.239162 cumulative IPC: 0.122261 (Simulation time: 1 hr 35 min 54 sec) 
Heartbeat CPU 0 instructions: 123000000 cycles: 618422277 heartbeat IPC: 0.235996 cumulative IPC: 0.123074 (Simulation time: 1 hr 36 min 6 sec) 
Heartbeat CPU 0 instructions: 124000000 cycles: 632714372 heartbeat IPC: 0.0699687 cumulative IPC: 0.121824 (Simulation time: 1 hr 36 min 25 sec) 
Heartbeat CPU 0 instructions: 125000000 cycles: 638521216 heartbeat IPC: 0.172211 cumulative IPC: 0.122301 (Simulation time: 1 hr 36 min 37 sec) 
Heartbeat CPU 0 instructions: 126000000 cycles: 642679393 heartbeat IPC: 0.24049 cumulative IPC: 0.123097 (Simulation time: 1 hr 36 min 46 sec) 
Heartbeat CPU 0 instructions: 127000002 cycles: 654756282 heartbeat IPC: 0.0828029 cumulative IPC: 0.122324 (Simulation time: 1 hr 36 min 59 sec) 
Heartbeat CPU 0 instructions: 128000000 cycles: 663270636 heartbeat IPC: 0.117448 cumulative IPC: 0.122259 (Simulation time: 1 hr 37 min 10 sec) 
Heartbeat CPU 0 instructions: 129000000 cycles: 667395995 heartbeat IPC: 0.242403 cumulative IPC: 0.123031 (Simulation time: 1 hr 37 min 18 sec) 
Heartbeat CPU 0 instructions: 130000000 cycles: 676186210 heartbeat IPC: 0.113763 cumulative IPC: 0.122906 (Simulation time: 1 hr 37 min 27 sec) 
Heartbeat CPU 0 instructions: 131000000 cycles: 688612814 heartbeat IPC: 0.0804725 cumulative IPC: 0.122111 (Simulation time: 1 hr 37 min 38 sec) 
Heartbeat CPU 0 instructions: 132000000 cycles: 693604380 heartbeat IPC: 0.200338 cumulative IPC: 0.122695 (Simulation time: 1 hr 37 min 46 sec) 
Heartbeat CPU 0 instructions: 133000002 cycles: 698450044 heartbeat IPC: 0.20637 cumulative IPC: 0.123298 (Simulation time: 1 hr 37 min 54 sec) 
Heartbeat CPU 0 instructions: 134000001 cycles: 713425025 heartbeat IPC: 0.066778 cumulative IPC: 0.122068 (Simulation time: 1 hr 38 min 7 sec) 
Heartbeat CPU 0 instructions: 135000001 cycles: 717954220 heartbeat IPC: 0.22079 cumulative IPC: 0.122713 (Simulation time: 1 hr 38 min 14 sec) 
Heartbeat CPU 0 instructions: 136000000 cycles: 726068862 heartbeat IPC: 0.123234 cumulative IPC: 0.122719 (Simulation time: 1 hr 38 min 23 sec) 
Heartbeat CPU 0 instructions: 137000000 cycles: 736239427 heartbeat IPC: 0.098323 cumulative IPC: 0.12237 (Simulation time: 1 hr 38 min 33 sec) 
Heartbeat CPU 0 instructions: 138000001 cycles: 746946490 heartbeat IPC: 0.0933964 cumulative IPC: 0.12194 (Simulation time: 1 hr 38 min 43 sec) 
Heartbeat CPU 0 instructions: 139000002 cycles: 751133317 heartbeat IPC: 0.238845 cumulative IPC: 0.122615 (Simulation time: 1 hr 38 min 49 sec) 
Heartbeat CPU 0 instructions: 140000000 cycles: 757316429 heartbeat IPC: 0.161731 cumulative IPC: 0.122945 (Simulation time: 1 hr 38 min 57 sec) 
Heartbeat CPU 0 instructions: 141000002 cycles: 771143357 heartbeat IPC: 0.0723228 cumulative IPC: 0.122007 (Simulation time: 1 hr 39 min 8 sec) 
Heartbeat CPU 0 instructions: 142000002 cycles: 775213239 heartbeat IPC: 0.245707 cumulative IPC: 0.122678 (Simulation time: 1 hr 39 min 15 sec) 
Heartbeat CPU 0 instructions: 143000002 cycles: 779190802 heartbeat IPC: 0.25141 cumulative IPC: 0.123357 (Simulation time: 1 hr 39 min 22 sec) 
Heartbeat CPU 0 instructions: 144000000 cycles: 793864474 heartbeat IPC: 0.0681491 cumulative IPC: 0.122303 (Simulation time: 1 hr 39 min 30 sec) 
Heartbeat CPU 0 instructions: 145000001 cycles: 799125174 heartbeat IPC: 0.190089 cumulative IPC: 0.122764 (Simulation time: 1 hr 39 min 36 sec) 
Heartbeat CPU 0 instructions: 146000001 cycles: 803290597 heartbeat IPC: 0.240072 cumulative IPC: 0.123392 (Simulation time: 1 hr 39 min 42 sec) 
Heartbeat CPU 0 instructions: 147000000 cycles: 816116893 heartbeat IPC: 0.0779648 cumulative IPC: 0.122655 (Simulation time: 1 hr 39 min 52 sec) 
Heartbeat CPU 0 instructions: 148000000 cycles: 823397333 heartbeat IPC: 0.137354 cumulative IPC: 0.122789 (Simulation time: 1 hr 40 min 0 sec) 
Heartbeat CPU 0 instructions: 149000000 cycles: 827600854 heartbeat IPC: 0.237896 cumulative IPC: 0.123392 (Simulation time: 1 hr 40 min 7 sec) 
Heartbeat CPU 0 instructions: 150000000 cycles: 838252146 heartbeat IPC: 0.0938853 cumulative IPC: 0.123006 (Simulation time: 1 hr 40 min 16 sec) 
Finished CPU 0 instructions: 100000000 cycles: 812970026 cummulative IPC: 0.123006 (Simulation time: 1 hr 40 min 16 sec) 

ChampSim completed all CPUs

Region of Interest Statistics

CPU 0 cummulative IPC: 0.123006 instructions: 100000000 cycles: 812970026
LLC TOTAL     ACCESS:   18838580  HIT:    8591244  MISS:   10247336
LLC LOAD      ACCESS:    8518600  HIT:    4441823  MISS:    4076777
LLC RFO       ACCESS:     210569  HIT:      65298  MISS:     145271
LLC PREFETCH  ACCESS:    8014000  HIT:    2719598  MISS:    5294402
LLC WRITEBACK ACCESS:    2095411  HIT:    1364525  MISS:     730886
OPTgen accesses: 201649
OPTgen hits: 148690
OPTgen hit rate: 73.737


