
*** ChampSim Multicore Out-of-Order Simulator ***

Warmup Instructions: 50000000
Simulation Instructions: 100000000
Configuration: 2
Number of CPUs: 1
LLC sets: 2048
LLC ways: 16
Off-chip DRAM Channels: 1 Width: 64-bit Data Rate: 1600 MT/s

CPU 0 runs /datasets/cs240c-wi22-a00-public/data/Assignment2-gz/lbm_1004B.trace.gz
CPU 0 L1D next line prefetcher
CPU 0 L2C IP-based stride prefetcher
Initialize Hawkeye state
Heartbeat CPU 0 instructions: 1000002 cycles: 391414 heartbeat IPC: 2.55484 cumulative IPC: 2.55484 (Simulation time: 0 hr 0 min 31 sec) 
Heartbeat CPU 0 instructions: 2000001 cycles: 782838 heartbeat IPC: 2.55477 cumulative IPC: 2.55481 (Simulation time: 0 hr 1 min 3 sec) 
Heartbeat CPU 0 instructions: 3000001 cycles: 1174187 heartbeat IPC: 2.55526 cumulative IPC: 2.55496 (Simulation time: 0 hr 1 min 35 sec) 
Heartbeat CPU 0 instructions: 4000000 cycles: 1570369 heartbeat IPC: 2.52409 cumulative IPC: 2.54717 (Simulation time: 0 hr 2 min 13 sec) 
Heartbeat CPU 0 instructions: 5000002 cycles: 1961789 heartbeat IPC: 2.55481 cumulative IPC: 2.5487 (Simulation time: 0 hr 2 min 46 sec) 
Heartbeat CPU 0 instructions: 6000002 cycles: 2353157 heartbeat IPC: 2.55514 cumulative IPC: 2.54977 (Simulation time: 0 hr 3 min 17 sec) 
Heartbeat CPU 0 instructions: 7000003 cycles: 2749265 heartbeat IPC: 2.52457 cumulative IPC: 2.54614 (Simulation time: 0 hr 3 min 54 sec) 
Heartbeat CPU 0 instructions: 8000000 cycles: 3140616 heartbeat IPC: 2.55524 cumulative IPC: 2.54727 (Simulation time: 0 hr 4 min 31 sec) 
Heartbeat CPU 0 instructions: 9000003 cycles: 3532040 heartbeat IPC: 2.55478 cumulative IPC: 2.5481 (Simulation time: 0 hr 5 min 2 sec) 
Heartbeat CPU 0 instructions: 10000000 cycles: 3923405 heartbeat IPC: 2.55515 cumulative IPC: 2.54881 (Simulation time: 0 hr 5 min 34 sec) 
Heartbeat CPU 0 instructions: 11000000 cycles: 4319645 heartbeat IPC: 2.52372 cumulative IPC: 2.54651 (Simulation time: 0 hr 6 min 11 sec) 
Heartbeat CPU 0 instructions: 12000000 cycles: 4710973 heartbeat IPC: 2.5554 cumulative IPC: 2.54724 (Simulation time: 0 hr 6 min 46 sec) 
Heartbeat CPU 0 instructions: 13000002 cycles: 5102381 heartbeat IPC: 2.55488 cumulative IPC: 2.54783 (Simulation time: 0 hr 7 min 20 sec) 
Heartbeat CPU 0 instructions: 14000003 cycles: 5498552 heartbeat IPC: 2.52417 cumulative IPC: 2.54613 (Simulation time: 0 hr 7 min 54 sec) 
Heartbeat CPU 0 instructions: 15000003 cycles: 5889984 heartbeat IPC: 2.55472 cumulative IPC: 2.5467 (Simulation time: 0 hr 8 min 25 sec) 
Heartbeat CPU 0 instructions: 16000000 cycles: 6281385 heartbeat IPC: 2.55492 cumulative IPC: 2.54721 (Simulation time: 0 hr 8 min 54 sec) 
Heartbeat CPU 0 instructions: 17000000 cycles: 6677550 heartbeat IPC: 2.5242 cumulative IPC: 2.54584 (Simulation time: 0 hr 9 min 27 sec) 
Heartbeat CPU 0 instructions: 18000000 cycles: 7068933 heartbeat IPC: 2.55504 cumulative IPC: 2.54635 (Simulation time: 0 hr 10 min 2 sec) 
Heartbeat CPU 0 instructions: 19000003 cycles: 7460293 heartbeat IPC: 2.5552 cumulative IPC: 2.54682 (Simulation time: 0 hr 10 min 35 sec) 
Heartbeat CPU 0 instructions: 20000000 cycles: 7851689 heartbeat IPC: 2.55495 cumulative IPC: 2.54722 (Simulation time: 0 hr 11 min 5 sec) 
Heartbeat CPU 0 instructions: 21000003 cycles: 8247850 heartbeat IPC: 2.52423 cumulative IPC: 2.54612 (Simulation time: 0 hr 11 min 38 sec) 
Heartbeat CPU 0 instructions: 22000002 cycles: 8639313 heartbeat IPC: 2.55452 cumulative IPC: 2.5465 (Simulation time: 0 hr 12 min 10 sec) 
Heartbeat CPU 0 instructions: 23000001 cycles: 9030654 heartbeat IPC: 2.55531 cumulative IPC: 2.54688 (Simulation time: 0 hr 12 min 44 sec) 
Heartbeat CPU 0 instructions: 24000000 cycles: 9426872 heartbeat IPC: 2.52386 cumulative IPC: 2.54591 (Simulation time: 0 hr 13 min 21 sec) 
Heartbeat CPU 0 instructions: 25000003 cycles: 9818277 heartbeat IPC: 2.55491 cumulative IPC: 2.54627 (Simulation time: 0 hr 13 min 55 sec) 
Heartbeat CPU 0 instructions: 26000002 cycles: 10209668 heartbeat IPC: 2.55499 cumulative IPC: 2.54661 (Simulation time: 0 hr 14 min 32 sec) 
Heartbeat CPU 0 instructions: 27000001 cycles: 10601034 heartbeat IPC: 2.55515 cumulative IPC: 2.54692 (Simulation time: 0 hr 15 min 2 sec) 
Heartbeat CPU 0 instructions: 28000000 cycles: 10997218 heartbeat IPC: 2.52408 cumulative IPC: 2.5461 (Simulation time: 0 hr 15 min 33 sec) 
Heartbeat CPU 0 instructions: 29000002 cycles: 11388619 heartbeat IPC: 2.55493 cumulative IPC: 2.5464 (Simulation time: 0 hr 16 min 7 sec) 
Heartbeat CPU 0 instructions: 30000003 cycles: 11780012 heartbeat IPC: 2.55498 cumulative IPC: 2.54669 (Simulation time: 0 hr 16 min 36 sec) 
Heartbeat CPU 0 instructions: 31000003 cycles: 12176238 heartbeat IPC: 2.52381 cumulative IPC: 2.54594 (Simulation time: 0 hr 17 min 5 sec) 
Heartbeat CPU 0 instructions: 32000000 cycles: 12567621 heartbeat IPC: 2.55503 cumulative IPC: 2.54623 (Simulation time: 0 hr 17 min 35 sec) 
Heartbeat CPU 0 instructions: 33000003 cycles: 12959058 heartbeat IPC: 2.5547 cumulative IPC: 2.54648 (Simulation time: 0 hr 18 min 3 sec) 
Heartbeat CPU 0 instructions: 34000002 cycles: 13355165 heartbeat IPC: 2.52457 cumulative IPC: 2.54583 (Simulation time: 0 hr 18 min 34 sec) 
Heartbeat CPU 0 instructions: 35000003 cycles: 13746584 heartbeat IPC: 2.55481 cumulative IPC: 2.54609 (Simulation time: 0 hr 19 min 7 sec) 
Heartbeat CPU 0 instructions: 36000000 cycles: 14137986 heartbeat IPC: 2.55491 cumulative IPC: 2.54633 (Simulation time: 0 hr 19 min 40 sec) 
Heartbeat CPU 0 instructions: 37000002 cycles: 14529395 heartbeat IPC: 2.55488 cumulative IPC: 2.54656 (Simulation time: 0 hr 20 min 10 sec) 
Heartbeat CPU 0 instructions: 38000000 cycles: 14925588 heartbeat IPC: 2.52402 cumulative IPC: 2.54596 (Simulation time: 0 hr 20 min 39 sec) 
Heartbeat CPU 0 instructions: 39000003 cycles: 15316911 heartbeat IPC: 2.55544 cumulative IPC: 2.54621 (Simulation time: 0 hr 21 min 9 sec) 
Heartbeat CPU 0 instructions: 40000000 cycles: 15708307 heartbeat IPC: 2.55495 cumulative IPC: 2.54642 (Simulation time: 0 hr 21 min 39 sec) 
Heartbeat CPU 0 instructions: 41000002 cycles: 16104512 heartbeat IPC: 2.52395 cumulative IPC: 2.54587 (Simulation time: 0 hr 22 min 13 sec) 
Heartbeat CPU 0 instructions: 42000003 cycles: 16495949 heartbeat IPC: 2.55469 cumulative IPC: 2.54608 (Simulation time: 0 hr 22 min 44 sec) 
Heartbeat CPU 0 instructions: 43000000 cycles: 16887317 heartbeat IPC: 2.55513 cumulative IPC: 2.54629 (Simulation time: 0 hr 23 min 14 sec) 
Heartbeat CPU 0 instructions: 44000000 cycles: 17283466 heartbeat IPC: 2.5243 cumulative IPC: 2.54579 (Simulation time: 0 hr 23 min 48 sec) 
Heartbeat CPU 0 instructions: 45000003 cycles: 17674848 heartbeat IPC: 2.55506 cumulative IPC: 2.54599 (Simulation time: 0 hr 24 min 22 sec) 
Heartbeat CPU 0 instructions: 46000003 cycles: 18066202 heartbeat IPC: 2.55523 cumulative IPC: 2.54619 (Simulation time: 0 hr 24 min 58 sec) 
Heartbeat CPU 0 instructions: 47000002 cycles: 18457601 heartbeat IPC: 2.55493 cumulative IPC: 2.54638 (Simulation time: 0 hr 25 min 28 sec) 
Heartbeat CPU 0 instructions: 48000000 cycles: 18853774 heartbeat IPC: 2.52414 cumulative IPC: 2.54591 (Simulation time: 0 hr 25 min 58 sec) 
Heartbeat CPU 0 instructions: 49000000 cycles: 19245200 heartbeat IPC: 2.55476 cumulative IPC: 2.54609 (Simulation time: 0 hr 26 min 29 sec) 
Heartbeat CPU 0 instructions: 50000003 cycles: 19636534 heartbeat IPC: 2.55537 cumulative IPC: 2.54627 (Simulation time: 0 hr 27 min 7 sec) 

Warmup complete CPU 0 instructions: 50000003 cycles: 19636534 (Simulation time: 0 hr 27 min 7 sec) 

Heartbeat CPU 0 instructions: 51000001 cycles: 21120621 heartbeat IPC: 0.673814 cumulative IPC: 0.673814 (Simulation time: 0 hr 27 min 50 sec) 
Heartbeat CPU 0 instructions: 52000000 cycles: 22516523 heartbeat IPC: 0.716382 cumulative IPC: 0.694446 (Simulation time: 0 hr 28 min 25 sec) 
Heartbeat CPU 0 instructions: 53000002 cycles: 23941059 heartbeat IPC: 0.701984 cumulative IPC: 0.696941 (Simulation time: 0 hr 29 min 10 sec) 
Heartbeat CPU 0 instructions: 54000002 cycles: 25299950 heartbeat IPC: 0.735894 cumulative IPC: 0.706287 (Simulation time: 0 hr 29 min 47 sec) 
Heartbeat CPU 0 instructions: 55000001 cycles: 26747253 heartbeat IPC: 0.69094 cumulative IPC: 0.703164 (Simulation time: 0 hr 30 min 25 sec) 
Heartbeat CPU 0 instructions: 56000000 cycles: 28221313 heartbeat IPC: 0.678398 cumulative IPC: 0.698911 (Simulation time: 0 hr 30 min 59 sec) 
Heartbeat CPU 0 instructions: 57000003 cycles: 29687461 heartbeat IPC: 0.682061 cumulative IPC: 0.696453 (Simulation time: 0 hr 31 min 37 sec) 
Heartbeat CPU 0 instructions: 58000003 cycles: 31175797 heartbeat IPC: 0.671891 cumulative IPC: 0.693285 (Simulation time: 0 hr 32 min 14 sec) 
Heartbeat CPU 0 instructions: 59000002 cycles: 32621656 heartbeat IPC: 0.69163 cumulative IPC: 0.693101 (Simulation time: 0 hr 32 min 55 sec) 
Heartbeat CPU 0 instructions: 60000000 cycles: 34053921 heartbeat IPC: 0.698193 cumulative IPC: 0.693607 (Simulation time: 0 hr 33 min 32 sec) 
Heartbeat CPU 0 instructions: 61000003 cycles: 35462961 heartbeat IPC: 0.709705 cumulative IPC: 0.69504 (Simulation time: 0 hr 34 min 10 sec) 
Heartbeat CPU 0 instructions: 62000001 cycles: 36838752 heartbeat IPC: 0.726853 cumulative IPC: 0.697584 (Simulation time: 0 hr 34 min 49 sec) 
Heartbeat CPU 0 instructions: 63000001 cycles: 38227428 heartbeat IPC: 0.72011 cumulative IPC: 0.699267 (Simulation time: 0 hr 35 min 30 sec) 
Heartbeat CPU 0 instructions: 64000000 cycles: 39606872 heartbeat IPC: 0.724929 cumulative IPC: 0.70104 (Simulation time: 0 hr 36 min 8 sec) 
Heartbeat CPU 0 instructions: 65000000 cycles: 41030344 heartbeat IPC: 0.702508 cumulative IPC: 0.701137 (Simulation time: 0 hr 36 min 46 sec) 
Heartbeat CPU 0 instructions: 66000000 cycles: 42411473 heartbeat IPC: 0.724045 cumulative IPC: 0.702526 (Simulation time: 0 hr 37 min 26 sec) 
Heartbeat CPU 0 instructions: 67000000 cycles: 43763587 heartbeat IPC: 0.739583 cumulative IPC: 0.704603 (Simulation time: 0 hr 38 min 3 sec) 
Heartbeat CPU 0 instructions: 68000000 cycles: 45184439 heartbeat IPC: 0.703803 cumulative IPC: 0.704559 (Simulation time: 0 hr 38 min 38 sec) 
Heartbeat CPU 0 instructions: 69000000 cycles: 46591682 heartbeat IPC: 0.710609 cumulative IPC: 0.704875 (Simulation time: 0 hr 39 min 10 sec) 
Heartbeat CPU 0 instructions: 70000000 cycles: 48003682 heartbeat IPC: 0.708215 cumulative IPC: 0.705041 (Simulation time: 0 hr 39 min 49 sec) 
Heartbeat CPU 0 instructions: 71000002 cycles: 49429390 heartbeat IPC: 0.701407 cumulative IPC: 0.704867 (Simulation time: 0 hr 40 min 23 sec) 
Heartbeat CPU 0 instructions: 72000000 cycles: 51573096 heartbeat IPC: 0.466481 cumulative IPC: 0.688866 (Simulation time: 0 hr 41 min 13 sec) 
Heartbeat CPU 0 instructions: 73000001 cycles: 54754342 heartbeat IPC: 0.314343 cumulative IPC: 0.654938 (Simulation time: 0 hr 42 min 13 sec) 
Heartbeat CPU 0 instructions: 74000002 cycles: 61392765 heartbeat IPC: 0.150638 cumulative IPC: 0.574764 (Simulation time: 0 hr 43 min 43 sec) 
Heartbeat CPU 0 instructions: 75000003 cycles: 63804735 heartbeat IPC: 0.414599 cumulative IPC: 0.566018 (Simulation time: 0 hr 44 min 28 sec) 
Heartbeat CPU 0 instructions: 76000000 cycles: 65853517 heartbeat IPC: 0.488093 cumulative IPC: 0.562564 (Simulation time: 0 hr 45 min 11 sec) 
Heartbeat CPU 0 instructions: 77000000 cycles: 67278842 heartbeat IPC: 0.701594 cumulative IPC: 0.566723 (Simulation time: 0 hr 45 min 57 sec) 
Heartbeat CPU 0 instructions: 78000002 cycles: 68721139 heartbeat IPC: 0.69334 cumulative IPC: 0.570444 (Simulation time: 0 hr 46 min 33 sec) 
Heartbeat CPU 0 instructions: 79000002 cycles: 70192350 heartbeat IPC: 0.679712 cumulative IPC: 0.573623 (Simulation time: 0 hr 47 min 9 sec) 
Heartbeat CPU 0 instructions: 80000000 cycles: 71628714 heartbeat IPC: 0.696201 cumulative IPC: 0.57701 (Simulation time: 0 hr 47 min 47 sec) 
Heartbeat CPU 0 instructions: 81000001 cycles: 72907634 heartbeat IPC: 0.781911 cumulative IPC: 0.581929 (Simulation time: 0 hr 48 min 22 sec) 
Heartbeat CPU 0 instructions: 82000002 cycles: 74223547 heartbeat IPC: 0.759929 cumulative IPC: 0.58622 (Simulation time: 0 hr 48 min 56 sec) 
Heartbeat CPU 0 instructions: 83000003 cycles: 75774270 heartbeat IPC: 0.644861 cumulative IPC: 0.58784 (Simulation time: 0 hr 49 min 32 sec) 
Heartbeat CPU 0 instructions: 84000000 cycles: 77203263 heartbeat IPC: 0.699791 cumulative IPC: 0.590619 (Simulation time: 0 hr 50 min 5 sec) 
Heartbeat CPU 0 instructions: 85000000 cycles: 78577359 heartbeat IPC: 0.727751 cumulative IPC: 0.593816 (Simulation time: 0 hr 50 min 40 sec) 
Heartbeat CPU 0 instructions: 86000000 cycles: 80084449 heartbeat IPC: 0.66353 cumulative IPC: 0.595554 (Simulation time: 0 hr 51 min 15 sec) 
Heartbeat CPU 0 instructions: 87000002 cycles: 81545423 heartbeat IPC: 0.684476 cumulative IPC: 0.597652 (Simulation time: 0 hr 51 min 56 sec) 
Heartbeat CPU 0 instructions: 88000000 cycles: 82920042 heartbeat IPC: 0.727473 cumulative IPC: 0.600472 (Simulation time: 0 hr 52 min 33 sec) 
Heartbeat CPU 0 instructions: 89000003 cycles: 84305911 heartbeat IPC: 0.721571 cumulative IPC: 0.603068 (Simulation time: 0 hr 53 min 9 sec) 
Heartbeat CPU 0 instructions: 90000002 cycles: 85757287 heartbeat IPC: 0.689001 cumulative IPC: 0.604954 (Simulation time: 0 hr 53 min 52 sec) 
Heartbeat CPU 0 instructions: 91000001 cycles: 87150331 heartbeat IPC: 0.717852 cumulative IPC: 0.607283 (Simulation time: 0 hr 54 min 36 sec) 
Heartbeat CPU 0 instructions: 92000000 cycles: 88453055 heartbeat IPC: 0.767622 cumulative IPC: 0.610319 (Simulation time: 0 hr 55 min 18 sec) 
Heartbeat CPU 0 instructions: 93000003 cycles: 89895687 heartbeat IPC: 0.69318 cumulative IPC: 0.61202 (Simulation time: 0 hr 55 min 52 sec) 
Heartbeat CPU 0 instructions: 94000002 cycles: 91339290 heartbeat IPC: 0.692711 cumulative IPC: 0.613644 (Simulation time: 0 hr 56 min 30 sec) 
Heartbeat CPU 0 instructions: 95000000 cycles: 92723868 heartbeat IPC: 0.72224 cumulative IPC: 0.615702 (Simulation time: 0 hr 57 min 8 sec) 
Heartbeat CPU 0 instructions: 96000000 cycles: 94127537 heartbeat IPC: 0.712419 cumulative IPC: 0.617524 (Simulation time: 0 hr 57 min 48 sec) 
Heartbeat CPU 0 instructions: 97000002 cycles: 95591270 heartbeat IPC: 0.683186 cumulative IPC: 0.61879 (Simulation time: 0 hr 58 min 31 sec) 
Heartbeat CPU 0 instructions: 98000001 cycles: 97050235 heartbeat IPC: 0.685417 cumulative IPC: 0.620045 (Simulation time: 0 hr 59 min 10 sec) 
Heartbeat CPU 0 instructions: 99000000 cycles: 98395515 heartbeat IPC: 0.743339 cumulative IPC: 0.622151 (Simulation time: 0 hr 59 min 54 sec) 
Heartbeat CPU 0 instructions: 100000000 cycles: 99825064 heartbeat IPC: 0.699521 cumulative IPC: 0.623531 (Simulation time: 1 hr 0 min 42 sec) 
Heartbeat CPU 0 instructions: 101000000 cycles: 101275698 heartbeat IPC: 0.689354 cumulative IPC: 0.6247 (Simulation time: 1 hr 1 min 30 sec) 
Heartbeat CPU 0 instructions: 102000000 cycles: 102745616 heartbeat IPC: 0.68031 cumulative IPC: 0.625684 (Simulation time: 1 hr 2 min 11 sec) 
Heartbeat CPU 0 instructions: 103000001 cycles: 104171548 heartbeat IPC: 0.701296 cumulative IPC: 0.626959 (Simulation time: 1 hr 2 min 51 sec) 
Heartbeat CPU 0 instructions: 104000000 cycles: 105580847 heartbeat IPC: 0.709572 cumulative IPC: 0.628314 (Simulation time: 1 hr 3 min 29 sec) 
Heartbeat CPU 0 instructions: 105000001 cycles: 106991867 heartbeat IPC: 0.708708 cumulative IPC: 0.629612 (Simulation time: 1 hr 4 min 4 sec) 
Heartbeat CPU 0 instructions: 106000000 cycles: 108405230 heartbeat IPC: 0.707532 cumulative IPC: 0.630853 (Simulation time: 1 hr 4 min 41 sec) 
Heartbeat CPU 0 instructions: 107000000 cycles: 109944655 heartbeat IPC: 0.649593 cumulative IPC: 0.631172 (Simulation time: 1 hr 5 min 17 sec) 
Heartbeat CPU 0 instructions: 108000000 cycles: 111389459 heartbeat IPC: 0.692135 cumulative IPC: 0.632132 (Simulation time: 1 hr 5 min 55 sec) 
Heartbeat CPU 0 instructions: 109000003 cycles: 112760461 heartbeat IPC: 0.729396 cumulative IPC: 0.633564 (Simulation time: 1 hr 6 min 32 sec) 
Heartbeat CPU 0 instructions: 110000001 cycles: 114106225 heartbeat IPC: 0.743071 cumulative IPC: 0.635124 (Simulation time: 1 hr 7 min 14 sec) 
Heartbeat CPU 0 instructions: 111000003 cycles: 115550238 heartbeat IPC: 0.692516 cumulative IPC: 0.635988 (Simulation time: 1 hr 7 min 48 sec) 
Heartbeat CPU 0 instructions: 112000000 cycles: 117023774 heartbeat IPC: 0.678638 cumulative IPC: 0.636634 (Simulation time: 1 hr 8 min 29 sec) 
Heartbeat CPU 0 instructions: 113000001 cycles: 118482076 heartbeat IPC: 0.68573 cumulative IPC: 0.637358 (Simulation time: 1 hr 9 min 3 sec) 
Heartbeat CPU 0 instructions: 114000001 cycles: 119975351 heartbeat IPC: 0.669669 cumulative IPC: 0.637839 (Simulation time: 1 hr 9 min 38 sec) 
Heartbeat CPU 0 instructions: 115000000 cycles: 121365177 heartbeat IPC: 0.719514 cumulative IPC: 0.638955 (Simulation time: 1 hr 10 min 13 sec) 
Heartbeat CPU 0 instructions: 116000000 cycles: 122814652 heartbeat IPC: 0.689905 cumulative IPC: 0.63967 (Simulation time: 1 hr 10 min 47 sec) 
Heartbeat CPU 0 instructions: 117000000 cycles: 124305512 heartbeat IPC: 0.670754 cumulative IPC: 0.640113 (Simulation time: 1 hr 11 min 22 sec) 
Heartbeat CPU 0 instructions: 118000002 cycles: 125745949 heartbeat IPC: 0.694235 cumulative IPC: 0.640848 (Simulation time: 1 hr 11 min 55 sec) 
Heartbeat CPU 0 instructions: 119000002 cycles: 127106359 heartbeat IPC: 0.735072 cumulative IPC: 0.642041 (Simulation time: 1 hr 12 min 33 sec) 
Heartbeat CPU 0 instructions: 120000000 cycles: 128656308 heartbeat IPC: 0.645181 cumulative IPC: 0.642085 (Simulation time: 1 hr 13 min 6 sec) 
Heartbeat CPU 0 instructions: 121000002 cycles: 130202445 heartbeat IPC: 0.646775 cumulative IPC: 0.642151 (Simulation time: 1 hr 13 min 39 sec) 
Heartbeat CPU 0 instructions: 122000002 cycles: 131673018 heartbeat IPC: 0.680007 cumulative IPC: 0.642648 (Simulation time: 1 hr 14 min 11 sec) 
Heartbeat CPU 0 instructions: 123000002 cycles: 133174525 heartbeat IPC: 0.665998 cumulative IPC: 0.642957 (Simulation time: 1 hr 14 min 44 sec) 
Heartbeat CPU 0 instructions: 124000000 cycles: 134706245 heartbeat IPC: 0.65286 cumulative IPC: 0.643088 (Simulation time: 1 hr 15 min 17 sec) 
Heartbeat CPU 0 instructions: 125000000 cycles: 136118464 heartbeat IPC: 0.708105 cumulative IPC: 0.643877 (Simulation time: 1 hr 15 min 59 sec) 
Heartbeat CPU 0 instructions: 126000002 cycles: 137611584 heartbeat IPC: 0.66974 cumulative IPC: 0.644204 (Simulation time: 1 hr 16 min 36 sec) 
Heartbeat CPU 0 instructions: 127000000 cycles: 139200662 heartbeat IPC: 0.629294 cumulative IPC: 0.644006 (Simulation time: 1 hr 17 min 12 sec) 
Heartbeat CPU 0 instructions: 128000000 cycles: 140565743 heartbeat IPC: 0.732557 cumulative IPC: 0.645005 (Simulation time: 1 hr 17 min 48 sec) 
Heartbeat CPU 0 instructions: 129000000 cycles: 142020054 heartbeat IPC: 0.687611 cumulative IPC: 0.645512 (Simulation time: 1 hr 18 min 18 sec) 
Heartbeat CPU 0 instructions: 130000000 cycles: 143635710 heartbeat IPC: 0.618944 cumulative IPC: 0.645166 (Simulation time: 1 hr 18 min 52 sec) 
Heartbeat CPU 0 instructions: 131000000 cycles: 145078176 heartbeat IPC: 0.693257 cumulative IPC: 0.645719 (Simulation time: 1 hr 19 min 24 sec) 
Heartbeat CPU 0 instructions: 132000000 cycles: 146561904 heartbeat IPC: 0.673978 cumulative IPC: 0.646049 (Simulation time: 1 hr 19 min 55 sec) 
Heartbeat CPU 0 instructions: 133000001 cycles: 148297045 heartbeat IPC: 0.576323 cumulative IPC: 0.645109 (Simulation time: 1 hr 20 min 35 sec) 
Heartbeat CPU 0 instructions: 134000000 cycles: 149740819 heartbeat IPC: 0.692629 cumulative IPC: 0.645636 (Simulation time: 1 hr 21 min 5 sec) 
Heartbeat CPU 0 instructions: 135000003 cycles: 151250284 heartbeat IPC: 0.662488 cumulative IPC: 0.645829 (Simulation time: 1 hr 21 min 34 sec) 
Heartbeat CPU 0 instructions: 136000000 cycles: 152937123 heartbeat IPC: 0.592823 cumulative IPC: 0.645158 (Simulation time: 1 hr 22 min 6 sec) 
Heartbeat CPU 0 instructions: 137000000 cycles: 154349846 heartbeat IPC: 0.707853 cumulative IPC: 0.645816 (Simulation time: 1 hr 22 min 33 sec) 
Heartbeat CPU 0 instructions: 138000003 cycles: 155822272 heartbeat IPC: 0.679153 cumulative IPC: 0.646176 (Simulation time: 1 hr 23 min 0 sec) 
Heartbeat CPU 0 instructions: 139000000 cycles: 157597919 heartbeat IPC: 0.563173 cumulative IPC: 0.645108 (Simulation time: 1 hr 23 min 28 sec) 
Heartbeat CPU 0 instructions: 140000000 cycles: 158990289 heartbeat IPC: 0.7182 cumulative IPC: 0.645838 (Simulation time: 1 hr 23 min 55 sec) 
Heartbeat CPU 0 instructions: 141000001 cycles: 160334941 heartbeat IPC: 0.743688 cumulative IPC: 0.646773 (Simulation time: 1 hr 24 min 21 sec) 
Heartbeat CPU 0 instructions: 142000003 cycles: 162011454 heartbeat IPC: 0.596477 cumulative IPC: 0.646181 (Simulation time: 1 hr 24 min 48 sec) 
Heartbeat CPU 0 instructions: 143000000 cycles: 163470626 heartbeat IPC: 0.685318 cumulative IPC: 0.646578 (Simulation time: 1 hr 25 min 13 sec) 
Heartbeat CPU 0 instructions: 144000000 cycles: 164982905 heartbeat IPC: 0.661254 cumulative IPC: 0.646731 (Simulation time: 1 hr 25 min 37 sec) 
Heartbeat CPU 0 instructions: 145000000 cycles: 166714189 heartbeat IPC: 0.577606 cumulative IPC: 0.645917 (Simulation time: 1 hr 26 min 3 sec) 
Heartbeat CPU 0 instructions: 146000003 cycles: 168110417 heartbeat IPC: 0.716218 cumulative IPC: 0.646578 (Simulation time: 1 hr 26 min 24 sec) 
Heartbeat CPU 0 instructions: 147000000 cycles: 169480458 heartbeat IPC: 0.729903 cumulative IPC: 0.64734 (Simulation time: 1 hr 26 min 48 sec) 
Heartbeat CPU 0 instructions: 148000000 cycles: 171224753 heartbeat IPC: 0.573298 cumulative IPC: 0.646488 (Simulation time: 1 hr 27 min 14 sec) 
Heartbeat CPU 0 instructions: 149000001 cycles: 172696432 heartbeat IPC: 0.679497 cumulative IPC: 0.646806 (Simulation time: 1 hr 27 min 40 sec) 
Heartbeat CPU 0 instructions: 150000000 cycles: 174182986 heartbeat IPC: 0.672696 cumulative IPC: 0.647055 (Simulation time: 1 hr 28 min 2 sec) 
Finished CPU 0 instructions: 100000003 cycles: 154546492 cummulative IPC: 0.647054 (Simulation time: 1 hr 28 min 2 sec) 

ChampSim completed all CPUs

Region of Interest Statistics

CPU 0 cummulative IPC: 0.647054 instructions: 100000003 cycles: 154546492
LLC TOTAL     ACCESS:    5974819  HIT:    1833978  MISS:    4140841
LLC LOAD      ACCESS:     434376  HIT:      16872  MISS:     417504
LLC RFO       ACCESS:    2551818  HIT:     639672  MISS:    1912146
LLC PREFETCH  ACCESS:     436493  HIT:      22063  MISS:     414430
LLC WRITEBACK ACCESS:    2552132  HIT:    1155371  MISS:    1396761
OPTgen accesses: 66975
OPTgen hits: 21035
OPTgen hit rate: 31.4072


