
*** ChampSim Multicore Out-of-Order Simulator ***

Warmup Instructions: 50000000
Simulation Instructions: 100000000
Configuration: 2
Number of CPUs: 1
LLC sets: 2048
LLC ways: 16
Off-chip DRAM Channels: 1 Width: 64-bit Data Rate: 1600 MT/s

CPU 0 runs /datasets/cs240c-wi22-a00-public/data/Assignment2-gz/astar_313B.trace.gz
CPU 0 L1D next line prefetcher
CPU 0 L2C IP-based stride prefetcher
Initialize Hawkeye state
Heartbeat CPU 0 instructions: 1000001 cycles: 675680 heartbeat IPC: 1.47999 cumulative IPC: 1.47999 (Simulation time: 0 hr 0 min 54 sec) 
Heartbeat CPU 0 instructions: 2000003 cycles: 1263000 heartbeat IPC: 1.70265 cumulative IPC: 1.58353 (Simulation time: 0 hr 2 min 4 sec) 
Heartbeat CPU 0 instructions: 3000003 cycles: 1936938 heartbeat IPC: 1.48382 cumulative IPC: 1.54884 (Simulation time: 0 hr 3 min 22 sec) 
Heartbeat CPU 0 instructions: 4000000 cycles: 2610272 heartbeat IPC: 1.48514 cumulative IPC: 1.53241 (Simulation time: 0 hr 4 min 33 sec) 
Heartbeat CPU 0 instructions: 5000002 cycles: 3283856 heartbeat IPC: 1.4846 cumulative IPC: 1.5226 (Simulation time: 0 hr 5 min 45 sec) 
Heartbeat CPU 0 instructions: 6000001 cycles: 3871151 heartbeat IPC: 1.70272 cumulative IPC: 1.54993 (Simulation time: 0 hr 6 min 58 sec) 
Heartbeat CPU 0 instructions: 7000001 cycles: 4439993 heartbeat IPC: 1.75796 cumulative IPC: 1.57658 (Simulation time: 0 hr 8 min 7 sec) 
Heartbeat CPU 0 instructions: 8000000 cycles: 4991849 heartbeat IPC: 1.81207 cumulative IPC: 1.60261 (Simulation time: 0 hr 9 min 22 sec) 
Heartbeat CPU 0 instructions: 9000001 cycles: 5553541 heartbeat IPC: 1.78034 cumulative IPC: 1.62059 (Simulation time: 0 hr 10 min 39 sec) 
Heartbeat CPU 0 instructions: 10000002 cycles: 6228334 heartbeat IPC: 1.48194 cumulative IPC: 1.60557 (Simulation time: 0 hr 12 min 2 sec) 
Heartbeat CPU 0 instructions: 11000000 cycles: 6903878 heartbeat IPC: 1.48029 cumulative IPC: 1.59331 (Simulation time: 0 hr 13 min 19 sec) 
Heartbeat CPU 0 instructions: 12000000 cycles: 7573496 heartbeat IPC: 1.49339 cumulative IPC: 1.58447 (Simulation time: 0 hr 14 min 30 sec) 
Heartbeat CPU 0 instructions: 13000003 cycles: 8166505 heartbeat IPC: 1.68632 cumulative IPC: 1.59187 (Simulation time: 0 hr 15 min 42 sec) 
Heartbeat CPU 0 instructions: 14000002 cycles: 8838633 heartbeat IPC: 1.48781 cumulative IPC: 1.58396 (Simulation time: 0 hr 16 min 58 sec) 
Heartbeat CPU 0 instructions: 15000000 cycles: 9512607 heartbeat IPC: 1.48373 cumulative IPC: 1.57685 (Simulation time: 0 hr 18 min 10 sec) 
Heartbeat CPU 0 instructions: 16000000 cycles: 10186425 heartbeat IPC: 1.48408 cumulative IPC: 1.57072 (Simulation time: 0 hr 19 min 23 sec) 
Heartbeat CPU 0 instructions: 17000001 cycles: 10860031 heartbeat IPC: 1.48455 cumulative IPC: 1.56537 (Simulation time: 0 hr 20 min 39 sec) 
Heartbeat CPU 0 instructions: 18000000 cycles: 11445607 heartbeat IPC: 1.70772 cumulative IPC: 1.57266 (Simulation time: 0 hr 21 min 53 sec) 
Heartbeat CPU 0 instructions: 19000000 cycles: 12119359 heartbeat IPC: 1.48423 cumulative IPC: 1.56774 (Simulation time: 0 hr 23 min 10 sec) 
Heartbeat CPU 0 instructions: 20000000 cycles: 12793181 heartbeat IPC: 1.48407 cumulative IPC: 1.56333 (Simulation time: 0 hr 24 min 27 sec) 
Heartbeat CPU 0 instructions: 21000001 cycles: 13419662 heartbeat IPC: 1.59622 cumulative IPC: 1.56487 (Simulation time: 0 hr 25 min 33 sec) 
Heartbeat CPU 0 instructions: 22000001 cycles: 14054884 heartbeat IPC: 1.57425 cumulative IPC: 1.56529 (Simulation time: 0 hr 26 min 39 sec) 
Heartbeat CPU 0 instructions: 23000001 cycles: 14727675 heartbeat IPC: 1.48635 cumulative IPC: 1.56169 (Simulation time: 0 hr 27 min 49 sec) 
Heartbeat CPU 0 instructions: 24000000 cycles: 15382221 heartbeat IPC: 1.52777 cumulative IPC: 1.56024 (Simulation time: 0 hr 29 min 7 sec) 
Heartbeat CPU 0 instructions: 25000001 cycles: 15987783 heartbeat IPC: 1.65136 cumulative IPC: 1.56369 (Simulation time: 0 hr 30 min 24 sec) 
Heartbeat CPU 0 instructions: 26000002 cycles: 16664291 heartbeat IPC: 1.47818 cumulative IPC: 1.56022 (Simulation time: 0 hr 31 min 44 sec) 
Heartbeat CPU 0 instructions: 27000002 cycles: 17255086 heartbeat IPC: 1.69263 cumulative IPC: 1.56476 (Simulation time: 0 hr 32 min 54 sec) 
Heartbeat CPU 0 instructions: 28000000 cycles: 17929533 heartbeat IPC: 1.48269 cumulative IPC: 1.56167 (Simulation time: 0 hr 34 min 12 sec) 
Heartbeat CPU 0 instructions: 29000001 cycles: 18517540 heartbeat IPC: 1.70066 cumulative IPC: 1.56608 (Simulation time: 0 hr 35 min 28 sec) 
Heartbeat CPU 0 instructions: 30000002 cycles: 19190990 heartbeat IPC: 1.48489 cumulative IPC: 1.56323 (Simulation time: 0 hr 36 min 46 sec) 
Heartbeat CPU 0 instructions: 31000002 cycles: 19865665 heartbeat IPC: 1.4822 cumulative IPC: 1.56048 (Simulation time: 0 hr 38 min 8 sec) 
Heartbeat CPU 0 instructions: 32000000 cycles: 20540580 heartbeat IPC: 1.48167 cumulative IPC: 1.55789 (Simulation time: 0 hr 39 min 23 sec) 
Heartbeat CPU 0 instructions: 33000003 cycles: 21215544 heartbeat IPC: 1.48156 cumulative IPC: 1.55546 (Simulation time: 0 hr 40 min 32 sec) 
Heartbeat CPU 0 instructions: 34000000 cycles: 21801641 heartbeat IPC: 1.7062 cumulative IPC: 1.55952 (Simulation time: 0 hr 41 min 47 sec) 
Heartbeat CPU 0 instructions: 35000000 cycles: 22475575 heartbeat IPC: 1.48382 cumulative IPC: 1.55725 (Simulation time: 0 hr 43 min 1 sec) 
Heartbeat CPU 0 instructions: 36000000 cycles: 23149223 heartbeat IPC: 1.48445 cumulative IPC: 1.55513 (Simulation time: 0 hr 44 min 16 sec) 
Heartbeat CPU 0 instructions: 37000002 cycles: 23736777 heartbeat IPC: 1.70197 cumulative IPC: 1.55876 (Simulation time: 0 hr 45 min 30 sec) 
Heartbeat CPU 0 instructions: 38000000 cycles: 24409828 heartbeat IPC: 1.48577 cumulative IPC: 1.55675 (Simulation time: 0 hr 46 min 50 sec) 
Heartbeat CPU 0 instructions: 39000003 cycles: 24998106 heartbeat IPC: 1.69988 cumulative IPC: 1.56012 (Simulation time: 0 hr 48 min 6 sec) 
Heartbeat CPU 0 instructions: 40000000 cycles: 25586848 heartbeat IPC: 1.69853 cumulative IPC: 1.5633 (Simulation time: 0 hr 49 min 23 sec) 
Heartbeat CPU 0 instructions: 41000001 cycles: 26261522 heartbeat IPC: 1.4822 cumulative IPC: 1.56122 (Simulation time: 0 hr 50 min 36 sec) 
Heartbeat CPU 0 instructions: 42000003 cycles: 26938830 heartbeat IPC: 1.47644 cumulative IPC: 1.55909 (Simulation time: 0 hr 51 min 53 sec) 
Heartbeat CPU 0 instructions: 43000003 cycles: 27531794 heartbeat IPC: 1.68644 cumulative IPC: 1.56183 (Simulation time: 0 hr 53 min 5 sec) 
Heartbeat CPU 0 instructions: 44000000 cycles: 28199948 heartbeat IPC: 1.49666 cumulative IPC: 1.56029 (Simulation time: 0 hr 54 min 16 sec) 
Heartbeat CPU 0 instructions: 45000002 cycles: 28872405 heartbeat IPC: 1.48709 cumulative IPC: 1.55858 (Simulation time: 0 hr 55 min 26 sec) 
Heartbeat CPU 0 instructions: 46000002 cycles: 29545419 heartbeat IPC: 1.48585 cumulative IPC: 1.55693 (Simulation time: 0 hr 56 min 40 sec) 
Heartbeat CPU 0 instructions: 47000002 cycles: 30217008 heartbeat IPC: 1.48901 cumulative IPC: 1.55542 (Simulation time: 0 hr 57 min 47 sec) 
Heartbeat CPU 0 instructions: 48000000 cycles: 30805773 heartbeat IPC: 1.69847 cumulative IPC: 1.55815 (Simulation time: 0 hr 58 min 58 sec) 
Heartbeat CPU 0 instructions: 49000000 cycles: 31478110 heartbeat IPC: 1.48735 cumulative IPC: 1.55664 (Simulation time: 1 hr 0 min 11 sec) 
Heartbeat CPU 0 instructions: 50000000 cycles: 32150494 heartbeat IPC: 1.48725 cumulative IPC: 1.55519 (Simulation time: 1 hr 1 min 26 sec) 

Warmup complete CPU 0 instructions: 50000001 cycles: 32150495 (Simulation time: 1 hr 1 min 26 sec) 

Heartbeat CPU 0 instructions: 51000002 cycles: 38806398 heartbeat IPC: 0.150243 cumulative IPC: 0.150243 (Simulation time: 1 hr 2 min 38 sec) 
Heartbeat CPU 0 instructions: 52000000 cycles: 47161958 heartbeat IPC: 0.119681 cumulative IPC: 0.133231 (Simulation time: 1 hr 4 min 6 sec) 
Heartbeat CPU 0 instructions: 53000000 cycles: 53862298 heartbeat IPC: 0.149246 cumulative IPC: 0.138174 (Simulation time: 1 hr 5 min 19 sec) 
Heartbeat CPU 0 instructions: 54000000 cycles: 61597330 heartbeat IPC: 0.129282 cumulative IPC: 0.135838 (Simulation time: 1 hr 6 min 38 sec) 
Heartbeat CPU 0 instructions: 55000001 cycles: 69832918 heartbeat IPC: 0.121424 cumulative IPC: 0.132688 (Simulation time: 1 hr 7 min 48 sec) 
Heartbeat CPU 0 instructions: 56000000 cycles: 79619510 heartbeat IPC: 0.102181 cumulative IPC: 0.126398 (Simulation time: 1 hr 9 min 16 sec) 
Heartbeat CPU 0 instructions: 57000000 cycles: 85776116 heartbeat IPC: 0.162427 cumulative IPC: 0.130535 (Simulation time: 1 hr 10 min 37 sec) 
Heartbeat CPU 0 instructions: 58000001 cycles: 92112639 heartbeat IPC: 0.157815 cumulative IPC: 0.133418 (Simulation time: 1 hr 11 min 32 sec) 
Heartbeat CPU 0 instructions: 59000002 cycles: 100240778 heartbeat IPC: 0.12303 cumulative IPC: 0.132177 (Simulation time: 1 hr 12 min 32 sec) 
Heartbeat CPU 0 instructions: 60000000 cycles: 107831758 heartbeat IPC: 0.131735 cumulative IPC: 0.132133 (Simulation time: 1 hr 13 min 45 sec) 
Heartbeat CPU 0 instructions: 61000001 cycles: 114551897 heartbeat IPC: 0.148807 cumulative IPC: 0.133493 (Simulation time: 1 hr 14 min 52 sec) 
Heartbeat CPU 0 instructions: 62000001 cycles: 121588568 heartbeat IPC: 0.142113 cumulative IPC: 0.134171 (Simulation time: 1 hr 16 min 1 sec) 
Heartbeat CPU 0 instructions: 63000000 cycles: 128761789 heartbeat IPC: 0.139407 cumulative IPC: 0.13456 (Simulation time: 1 hr 17 min 13 sec) 
Heartbeat CPU 0 instructions: 64000000 cycles: 137877332 heartbeat IPC: 0.109703 cumulative IPC: 0.132417 (Simulation time: 1 hr 18 min 25 sec) 
Heartbeat CPU 0 instructions: 65000000 cycles: 144448164 heartbeat IPC: 0.152188 cumulative IPC: 0.133574 (Simulation time: 1 hr 19 min 38 sec) 
Heartbeat CPU 0 instructions: 66000001 cycles: 151076730 heartbeat IPC: 0.150862 cumulative IPC: 0.134537 (Simulation time: 1 hr 20 min 34 sec) 
Heartbeat CPU 0 instructions: 67000000 cycles: 158275161 heartbeat IPC: 0.138919 cumulative IPC: 0.134787 (Simulation time: 1 hr 21 min 34 sec) 
Heartbeat CPU 0 instructions: 68000000 cycles: 165730185 heartbeat IPC: 0.134138 cumulative IPC: 0.134751 (Simulation time: 1 hr 22 min 26 sec) 
Heartbeat CPU 0 instructions: 69000000 cycles: 177483672 heartbeat IPC: 0.0850811 cumulative IPC: 0.130734 (Simulation time: 1 hr 23 min 38 sec) 
Heartbeat CPU 0 instructions: 70000000 cycles: 184068816 heartbeat IPC: 0.151857 cumulative IPC: 0.13165 (Simulation time: 1 hr 24 min 15 sec) 
Heartbeat CPU 0 instructions: 71000002 cycles: 190621966 heartbeat IPC: 0.152599 cumulative IPC: 0.132516 (Simulation time: 1 hr 24 min 50 sec) 
Heartbeat CPU 0 instructions: 72000000 cycles: 197539002 heartbeat IPC: 0.14457 cumulative IPC: 0.13302 (Simulation time: 1 hr 25 min 36 sec) 
Heartbeat CPU 0 instructions: 73000003 cycles: 204795552 heartbeat IPC: 0.137807 cumulative IPC: 0.133221 (Simulation time: 1 hr 26 min 11 sec) 
Heartbeat CPU 0 instructions: 74000002 cycles: 213852155 heartbeat IPC: 0.110417 cumulative IPC: 0.132085 (Simulation time: 1 hr 26 min 55 sec) 
Heartbeat CPU 0 instructions: 75000000 cycles: 221020835 heartbeat IPC: 0.139495 cumulative IPC: 0.132366 (Simulation time: 1 hr 27 min 44 sec) 
Heartbeat CPU 0 instructions: 76000000 cycles: 227245127 heartbeat IPC: 0.160661 cumulative IPC: 0.133269 (Simulation time: 1 hr 28 min 25 sec) 
Heartbeat CPU 0 instructions: 77000000 cycles: 233409503 heartbeat IPC: 0.162222 cumulative IPC: 0.134155 (Simulation time: 1 hr 29 min 1 sec) 
Heartbeat CPU 0 instructions: 78000001 cycles: 239448623 heartbeat IPC: 0.165587 cumulative IPC: 0.135071 (Simulation time: 1 hr 29 min 41 sec) 
Heartbeat CPU 0 instructions: 79000000 cycles: 248258541 heartbeat IPC: 0.113508 cumulative IPC: 0.134192 (Simulation time: 1 hr 30 min 21 sec) 
Heartbeat CPU 0 instructions: 80000000 cycles: 254122107 heartbeat IPC: 0.170545 cumulative IPC: 0.135152 (Simulation time: 1 hr 30 min 51 sec) 
Heartbeat CPU 0 instructions: 81000000 cycles: 261432776 heartbeat IPC: 0.136786 cumulative IPC: 0.135205 (Simulation time: 1 hr 31 min 19 sec) 
Heartbeat CPU 0 instructions: 82000001 cycles: 269310999 heartbeat IPC: 0.126932 cumulative IPC: 0.13493 (Simulation time: 1 hr 31 min 48 sec) 
Heartbeat CPU 0 instructions: 83000002 cycles: 275799442 heartbeat IPC: 0.15412 cumulative IPC: 0.135441 (Simulation time: 1 hr 32 min 8 sec) 
Heartbeat CPU 0 instructions: 84000000 cycles: 282443127 heartbeat IPC: 0.150519 cumulative IPC: 0.135841 (Simulation time: 1 hr 32 min 29 sec) 
Heartbeat CPU 0 instructions: 85000000 cycles: 289343292 heartbeat IPC: 0.144924 cumulative IPC: 0.136085 (Simulation time: 1 hr 32 min 47 sec) 
Heartbeat CPU 0 instructions: 86000001 cycles: 297865457 heartbeat IPC: 0.117341 cumulative IPC: 0.135484 (Simulation time: 1 hr 33 min 8 sec) 
Heartbeat CPU 0 instructions: 87000000 cycles: 303609938 heartbeat IPC: 0.17408 cumulative IPC: 0.1363 (Simulation time: 1 hr 33 min 29 sec) 
Heartbeat CPU 0 instructions: 88000000 cycles: 309539956 heartbeat IPC: 0.168634 cumulative IPC: 0.136992 (Simulation time: 1 hr 33 min 48 sec) 
Heartbeat CPU 0 instructions: 89000002 cycles: 315593812 heartbeat IPC: 0.165184 cumulative IPC: 0.137594 (Simulation time: 1 hr 34 min 6 sec) 
Heartbeat CPU 0 instructions: 90000002 cycles: 321943560 heartbeat IPC: 0.157487 cumulative IPC: 0.13803 (Simulation time: 1 hr 34 min 24 sec) 
Heartbeat CPU 0 instructions: 91000001 cycles: 331060871 heartbeat IPC: 0.109681 cumulative IPC: 0.137165 (Simulation time: 1 hr 34 min 47 sec) 
Heartbeat CPU 0 instructions: 92000000 cycles: 338049157 heartbeat IPC: 0.143096 cumulative IPC: 0.1373 (Simulation time: 1 hr 35 min 5 sec) 
Heartbeat CPU 0 instructions: 93000003 cycles: 345280207 heartbeat IPC: 0.138293 cumulative IPC: 0.137323 (Simulation time: 1 hr 35 min 22 sec) 
Heartbeat CPU 0 instructions: 94000000 cycles: 352970808 heartbeat IPC: 0.130028 cumulative IPC: 0.137148 (Simulation time: 1 hr 35 min 37 sec) 
Heartbeat CPU 0 instructions: 95000000 cycles: 359489131 heartbeat IPC: 0.153414 cumulative IPC: 0.137472 (Simulation time: 1 hr 35 min 51 sec) 
Heartbeat CPU 0 instructions: 96000000 cycles: 368632743 heartbeat IPC: 0.109366 cumulative IPC: 0.136709 (Simulation time: 1 hr 36 min 5 sec) 
Heartbeat CPU 0 instructions: 97000000 cycles: 375580085 heartbeat IPC: 0.14394 cumulative IPC: 0.136855 (Simulation time: 1 hr 36 min 16 sec) 
Heartbeat CPU 0 instructions: 98000003 cycles: 383280055 heartbeat IPC: 0.129871 cumulative IPC: 0.136702 (Simulation time: 1 hr 36 min 27 sec) 
Heartbeat CPU 0 instructions: 99000001 cycles: 391243543 heartbeat IPC: 0.125573 cumulative IPC: 0.136455 (Simulation time: 1 hr 36 min 37 sec) 
Heartbeat CPU 0 instructions: 100000000 cycles: 398624395 heartbeat IPC: 0.135486 cumulative IPC: 0.136435 (Simulation time: 1 hr 36 min 46 sec) 
Heartbeat CPU 0 instructions: 101000000 cycles: 407839974 heartbeat IPC: 0.108512 cumulative IPC: 0.13575 (Simulation time: 1 hr 36 min 57 sec) 
Heartbeat CPU 0 instructions: 102000001 cycles: 414185823 heartbeat IPC: 0.157583 cumulative IPC: 0.136113 (Simulation time: 1 hr 37 min 6 sec) 
Heartbeat CPU 0 instructions: 103000000 cycles: 420467300 heartbeat IPC: 0.159198 cumulative IPC: 0.136487 (Simulation time: 1 hr 37 min 14 sec) 
Heartbeat CPU 0 instructions: 104000000 cycles: 426855056 heartbeat IPC: 0.156549 cumulative IPC: 0.136811 (Simulation time: 1 hr 37 min 22 sec) 
Heartbeat CPU 0 instructions: 105000000 cycles: 432997438 heartbeat IPC: 0.162803 cumulative IPC: 0.137209 (Simulation time: 1 hr 37 min 28 sec) 
Heartbeat CPU 0 instructions: 106000000 cycles: 441914164 heartbeat IPC: 0.112149 cumulative IPC: 0.136664 (Simulation time: 1 hr 37 min 37 sec) 
Heartbeat CPU 0 instructions: 107000002 cycles: 448252497 heartbeat IPC: 0.15777 cumulative IPC: 0.136986 (Simulation time: 1 hr 37 min 44 sec) 
Heartbeat CPU 0 instructions: 108000000 cycles: 457169488 heartbeat IPC: 0.112145 cumulative IPC: 0.136464 (Simulation time: 1 hr 37 min 52 sec) 
Heartbeat CPU 0 instructions: 109000003 cycles: 463444082 heartbeat IPC: 0.159373 cumulative IPC: 0.136798 (Simulation time: 1 hr 37 min 59 sec) 
Heartbeat CPU 0 instructions: 110000003 cycles: 469315024 heartbeat IPC: 0.17033 cumulative IPC: 0.137248 (Simulation time: 1 hr 38 min 6 sec) 
Heartbeat CPU 0 instructions: 111000001 cycles: 475355671 heartbeat IPC: 0.165545 cumulative IPC: 0.137634 (Simulation time: 1 hr 38 min 12 sec) 
Heartbeat CPU 0 instructions: 112000000 cycles: 483632917 heartbeat IPC: 0.120813 cumulative IPC: 0.137325 (Simulation time: 1 hr 38 min 18 sec) 
Heartbeat CPU 0 instructions: 113000000 cycles: 490903543 heartbeat IPC: 0.13754 cumulative IPC: 0.137329 (Simulation time: 1 hr 38 min 25 sec) 
Heartbeat CPU 0 instructions: 114000003 cycles: 498635721 heartbeat IPC: 0.12933 cumulative IPC: 0.137196 (Simulation time: 1 hr 38 min 31 sec) 
Heartbeat CPU 0 instructions: 115000001 cycles: 506893311 heartbeat IPC: 0.1211 cumulative IPC: 0.136916 (Simulation time: 1 hr 38 min 37 sec) 
Heartbeat CPU 0 instructions: 116000000 cycles: 513614323 heartbeat IPC: 0.148787 cumulative IPC: 0.137082 (Simulation time: 1 hr 38 min 43 sec) 
Heartbeat CPU 0 instructions: 117000001 cycles: 520235549 heartbeat IPC: 0.15103 cumulative IPC: 0.137271 (Simulation time: 1 hr 38 min 50 sec) 
Heartbeat CPU 0 instructions: 118000003 cycles: 529221117 heartbeat IPC: 0.11129 cumulative IPC: 0.136801 (Simulation time: 1 hr 38 min 56 sec) 
Heartbeat CPU 0 instructions: 119000000 cycles: 535609764 heartbeat IPC: 0.156527 cumulative IPC: 0.137052 (Simulation time: 1 hr 39 min 2 sec) 
Heartbeat CPU 0 instructions: 120000000 cycles: 542112222 heartbeat IPC: 0.153788 cumulative IPC: 0.137265 (Simulation time: 1 hr 39 min 7 sec) 
Heartbeat CPU 0 instructions: 121000001 cycles: 548752478 heartbeat IPC: 0.150597 cumulative IPC: 0.137437 (Simulation time: 1 hr 39 min 13 sec) 
Heartbeat CPU 0 instructions: 122000001 cycles: 555278875 heartbeat IPC: 0.153224 cumulative IPC: 0.137634 (Simulation time: 1 hr 39 min 17 sec) 
Heartbeat CPU 0 instructions: 123000001 cycles: 564402934 heartbeat IPC: 0.1096 cumulative IPC: 0.137153 (Simulation time: 1 hr 39 min 23 sec) 
Heartbeat CPU 0 instructions: 124000000 cycles: 570966062 heartbeat IPC: 0.152366 cumulative IPC: 0.137338 (Simulation time: 1 hr 39 min 29 sec) 
Heartbeat CPU 0 instructions: 125000000 cycles: 577708748 heartbeat IPC: 0.148309 cumulative IPC: 0.137474 (Simulation time: 1 hr 39 min 35 sec) 
Heartbeat CPU 0 instructions: 126000003 cycles: 584824732 heartbeat IPC: 0.140529 cumulative IPC: 0.137513 (Simulation time: 1 hr 39 min 40 sec) 
Heartbeat CPU 0 instructions: 127000003 cycles: 594221659 heartbeat IPC: 0.106418 cumulative IPC: 0.136993 (Simulation time: 1 hr 39 min 47 sec) 
Heartbeat CPU 0 instructions: 128000000 cycles: 600574638 heartbeat IPC: 0.157406 cumulative IPC: 0.137221 (Simulation time: 1 hr 39 min 52 sec) 
Heartbeat CPU 0 instructions: 129000001 cycles: 609549877 heartbeat IPC: 0.111418 cumulative IPC: 0.13682 (Simulation time: 1 hr 39 min 58 sec) 
Heartbeat CPU 0 instructions: 130000002 cycles: 615845593 heartbeat IPC: 0.158838 cumulative IPC: 0.137058 (Simulation time: 1 hr 40 min 4 sec) 
Heartbeat CPU 0 instructions: 131000003 cycles: 621747745 heartbeat IPC: 0.16943 cumulative IPC: 0.137382 (Simulation time: 1 hr 40 min 10 sec) 
Heartbeat CPU 0 instructions: 132000000 cycles: 632928916 heartbeat IPC: 0.0894358 cumulative IPC: 0.13649 (Simulation time: 1 hr 40 min 17 sec) 
Heartbeat CPU 0 instructions: 133000002 cycles: 642045493 heartbeat IPC: 0.109691 cumulative IPC: 0.136089 (Simulation time: 1 hr 40 min 23 sec) 
Heartbeat CPU 0 instructions: 134000000 cycles: 648033306 heartbeat IPC: 0.167006 cumulative IPC: 0.13639 (Simulation time: 1 hr 40 min 29 sec) 
Heartbeat CPU 0 instructions: 135000002 cycles: 655445747 heartbeat IPC: 0.134909 cumulative IPC: 0.136372 (Simulation time: 1 hr 40 min 34 sec) 
Heartbeat CPU 0 instructions: 136000000 cycles: 664698794 heartbeat IPC: 0.108072 cumulative IPC: 0.135958 (Simulation time: 1 hr 40 min 40 sec) 
Heartbeat CPU 0 instructions: 137000001 cycles: 672874928 heartbeat IPC: 0.122307 cumulative IPC: 0.135784 (Simulation time: 1 hr 40 min 46 sec) 
Heartbeat CPU 0 instructions: 138000002 cycles: 679595687 heartbeat IPC: 0.148793 cumulative IPC: 0.135919 (Simulation time: 1 hr 40 min 52 sec) 
Heartbeat CPU 0 instructions: 139000001 cycles: 686314408 heartbeat IPC: 0.148838 cumulative IPC: 0.136052 (Simulation time: 1 hr 40 min 57 sec) 
Heartbeat CPU 0 instructions: 140000000 cycles: 695602607 heartbeat IPC: 0.107663 cumulative IPC: 0.135654 (Simulation time: 1 hr 41 min 3 sec) 
Heartbeat CPU 0 instructions: 141000001 cycles: 702084781 heartbeat IPC: 0.154269 cumulative IPC: 0.135834 (Simulation time: 1 hr 41 min 8 sec) 
Heartbeat CPU 0 instructions: 142000000 cycles: 708451102 heartbeat IPC: 0.157076 cumulative IPC: 0.136034 (Simulation time: 1 hr 41 min 13 sec) 
Heartbeat CPU 0 instructions: 143000001 cycles: 714893073 heartbeat IPC: 0.155232 cumulative IPC: 0.136215 (Simulation time: 1 hr 41 min 18 sec) 
Heartbeat CPU 0 instructions: 144000000 cycles: 724350176 heartbeat IPC: 0.105741 cumulative IPC: 0.135799 (Simulation time: 1 hr 41 min 24 sec) 
Heartbeat CPU 0 instructions: 145000000 cycles: 731152358 heartbeat IPC: 0.147012 cumulative IPC: 0.135908 (Simulation time: 1 hr 41 min 30 sec) 
Heartbeat CPU 0 instructions: 146000000 cycles: 737923683 heartbeat IPC: 0.147682 cumulative IPC: 0.136021 (Simulation time: 1 hr 41 min 35 sec) 
Heartbeat CPU 0 instructions: 147000000 cycles: 747194341 heartbeat IPC: 0.107867 cumulative IPC: 0.135656 (Simulation time: 1 hr 41 min 41 sec) 
Heartbeat CPU 0 instructions: 148000000 cycles: 753551523 heartbeat IPC: 0.157302 cumulative IPC: 0.135847 (Simulation time: 1 hr 41 min 47 sec) 
Heartbeat CPU 0 instructions: 149000000 cycles: 762402532 heartbeat IPC: 0.112981 cumulative IPC: 0.13557 (Simulation time: 1 hr 41 min 53 sec) 
Heartbeat CPU 0 instructions: 150000001 cycles: 768815370 heartbeat IPC: 0.155937 cumulative IPC: 0.135747 (Simulation time: 1 hr 41 min 58 sec) 
Finished CPU 0 instructions: 100000000 cycles: 736664875 cummulative IPC: 0.135747 (Simulation time: 1 hr 41 min 58 sec) 

ChampSim completed all CPUs

Region of Interest Statistics

CPU 0 cummulative IPC: 0.135747 instructions: 100000000 cycles: 736664875
LLC TOTAL     ACCESS:    9036686  HIT:    2273965  MISS:    6762721
LLC LOAD      ACCESS:    1899522  HIT:     491240  MISS:    1408282
LLC RFO       ACCESS:    1963569  HIT:     387491  MISS:    1576078
LLC PREFETCH  ACCESS:    2282468  HIT:     361480  MISS:    1920988
LLC WRITEBACK ACCESS:    2891127  HIT:    1033754  MISS:    1857373
OPTgen accesses: 93795
OPTgen hits: 50246
OPTgen hit rate: 53.57


