
*** ChampSim Multicore Out-of-Order Simulator ***

Warmup Instructions: 50000000
Simulation Instructions: 100000000
Configuration: 2
Number of CPUs: 1
LLC sets: 2048
LLC ways: 16
Off-chip DRAM Channels: 1 Width: 64-bit Data Rate: 1600 MT/s

CPU 0 runs /datasets/cs240c-wi22-a00-public/data/Assignment2-gz/leslie3d_1116B.trace.gz
CPU 0 L1D next line prefetcher
CPU 0 L2C IP-based stride prefetcher
Initialize Hawkeye state
Heartbeat CPU 0 instructions: 1000003 cycles: 535311 heartbeat IPC: 1.86808 cumulative IPC: 1.86808 (Simulation time: 0 hr 0 min 40 sec) 
Heartbeat CPU 0 instructions: 2000003 cycles: 1071193 heartbeat IPC: 1.86608 cumulative IPC: 1.86708 (Simulation time: 0 hr 1 min 15 sec) 
Heartbeat CPU 0 instructions: 3000003 cycles: 1607887 heartbeat IPC: 1.86326 cumulative IPC: 1.8658 (Simulation time: 0 hr 1 min 50 sec) 
Heartbeat CPU 0 instructions: 4000000 cycles: 2143303 heartbeat IPC: 1.8677 cumulative IPC: 1.86628 (Simulation time: 0 hr 2 min 27 sec) 
Heartbeat CPU 0 instructions: 5000001 cycles: 2678433 heartbeat IPC: 1.86871 cumulative IPC: 1.86676 (Simulation time: 0 hr 3 min 8 sec) 
Heartbeat CPU 0 instructions: 6000001 cycles: 3213941 heartbeat IPC: 1.86739 cumulative IPC: 1.86687 (Simulation time: 0 hr 3 min 48 sec) 
Heartbeat CPU 0 instructions: 7000001 cycles: 3749958 heartbeat IPC: 1.86561 cumulative IPC: 1.86669 (Simulation time: 0 hr 4 min 27 sec) 
Heartbeat CPU 0 instructions: 8000000 cycles: 4285983 heartbeat IPC: 1.86558 cumulative IPC: 1.86655 (Simulation time: 0 hr 5 min 2 sec) 
Heartbeat CPU 0 instructions: 9000003 cycles: 4821121 heartbeat IPC: 1.86868 cumulative IPC: 1.86679 (Simulation time: 0 hr 5 min 41 sec) 
Heartbeat CPU 0 instructions: 10000002 cycles: 5356171 heartbeat IPC: 1.86898 cumulative IPC: 1.86701 (Simulation time: 0 hr 6 min 25 sec) 
Heartbeat CPU 0 instructions: 11000001 cycles: 5891944 heartbeat IPC: 1.86646 cumulative IPC: 1.86696 (Simulation time: 0 hr 7 min 5 sec) 
Heartbeat CPU 0 instructions: 12000000 cycles: 6428418 heartbeat IPC: 1.86402 cumulative IPC: 1.86671 (Simulation time: 0 hr 7 min 45 sec) 
Heartbeat CPU 0 instructions: 13000002 cycles: 6963711 heartbeat IPC: 1.86814 cumulative IPC: 1.86682 (Simulation time: 0 hr 8 min 25 sec) 
Heartbeat CPU 0 instructions: 14000003 cycles: 7498470 heartbeat IPC: 1.87 cumulative IPC: 1.86705 (Simulation time: 0 hr 9 min 10 sec) 
Heartbeat CPU 0 instructions: 15000002 cycles: 8033977 heartbeat IPC: 1.86739 cumulative IPC: 1.86707 (Simulation time: 0 hr 9 min 47 sec) 
Heartbeat CPU 0 instructions: 16000000 cycles: 8570107 heartbeat IPC: 1.86522 cumulative IPC: 1.86695 (Simulation time: 0 hr 10 min 24 sec) 
Heartbeat CPU 0 instructions: 17000003 cycles: 9106509 heartbeat IPC: 1.86428 cumulative IPC: 1.8668 (Simulation time: 0 hr 11 min 0 sec) 
Heartbeat CPU 0 instructions: 18000001 cycles: 9641557 heartbeat IPC: 1.86899 cumulative IPC: 1.86692 (Simulation time: 0 hr 11 min 37 sec) 
Heartbeat CPU 0 instructions: 19000001 cycles: 10177086 heartbeat IPC: 1.86731 cumulative IPC: 1.86694 (Simulation time: 0 hr 12 min 14 sec) 
Heartbeat CPU 0 instructions: 20000000 cycles: 10712565 heartbeat IPC: 1.86749 cumulative IPC: 1.86697 (Simulation time: 0 hr 12 min 48 sec) 
Heartbeat CPU 0 instructions: 21000000 cycles: 11249159 heartbeat IPC: 1.86361 cumulative IPC: 1.86681 (Simulation time: 0 hr 13 min 23 sec) 
Heartbeat CPU 0 instructions: 22000000 cycles: 11784340 heartbeat IPC: 1.86853 cumulative IPC: 1.86688 (Simulation time: 0 hr 14 min 4 sec) 
Heartbeat CPU 0 instructions: 23000003 cycles: 12319668 heartbeat IPC: 1.86802 cumulative IPC: 1.86693 (Simulation time: 0 hr 14 min 41 sec) 
Heartbeat CPU 0 instructions: 24000000 cycles: 12854820 heartbeat IPC: 1.86862 cumulative IPC: 1.867 (Simulation time: 0 hr 15 min 16 sec) 
Heartbeat CPU 0 instructions: 25000001 cycles: 13390903 heartbeat IPC: 1.86538 cumulative IPC: 1.86694 (Simulation time: 0 hr 15 min 52 sec) 
Heartbeat CPU 0 instructions: 26000002 cycles: 13927344 heartbeat IPC: 1.86414 cumulative IPC: 1.86683 (Simulation time: 0 hr 16 min 26 sec) 
Heartbeat CPU 0 instructions: 27000003 cycles: 14462307 heartbeat IPC: 1.86929 cumulative IPC: 1.86692 (Simulation time: 0 hr 17 min 4 sec) 
Heartbeat CPU 0 instructions: 28000000 cycles: 14997513 heartbeat IPC: 1.86843 cumulative IPC: 1.86698 (Simulation time: 0 hr 17 min 42 sec) 
Heartbeat CPU 0 instructions: 29000000 cycles: 15533083 heartbeat IPC: 1.86717 cumulative IPC: 1.86698 (Simulation time: 0 hr 18 min 17 sec) 
Heartbeat CPU 0 instructions: 30000002 cycles: 16070018 heartbeat IPC: 1.86243 cumulative IPC: 1.86683 (Simulation time: 0 hr 18 min 52 sec) 
Heartbeat CPU 0 instructions: 31000001 cycles: 16605390 heartbeat IPC: 1.86786 cumulative IPC: 1.86686 (Simulation time: 0 hr 19 min 31 sec) 
Heartbeat CPU 0 instructions: 32000000 cycles: 17140962 heartbeat IPC: 1.86716 cumulative IPC: 1.86687 (Simulation time: 0 hr 20 min 7 sec) 
Heartbeat CPU 0 instructions: 33000001 cycles: 17676297 heartbeat IPC: 1.86799 cumulative IPC: 1.86691 (Simulation time: 0 hr 20 min 38 sec) 
Heartbeat CPU 0 instructions: 34000000 cycles: 18212111 heartbeat IPC: 1.86632 cumulative IPC: 1.86689 (Simulation time: 0 hr 21 min 14 sec) 
Heartbeat CPU 0 instructions: 35000000 cycles: 18748290 heartbeat IPC: 1.86505 cumulative IPC: 1.86684 (Simulation time: 0 hr 21 min 52 sec) 
Heartbeat CPU 0 instructions: 36000000 cycles: 19282982 heartbeat IPC: 1.87024 cumulative IPC: 1.86693 (Simulation time: 0 hr 22 min 30 sec) 
Heartbeat CPU 0 instructions: 37000003 cycles: 19865350 heartbeat IPC: 1.71713 cumulative IPC: 1.86254 (Simulation time: 0 hr 23 min 4 sec) 
Heartbeat CPU 0 instructions: 38000003 cycles: 20283602 heartbeat IPC: 2.3909 cumulative IPC: 1.87343 (Simulation time: 0 hr 23 min 38 sec) 
Heartbeat CPU 0 instructions: 39000003 cycles: 20701764 heartbeat IPC: 2.39142 cumulative IPC: 1.8839 (Simulation time: 0 hr 24 min 13 sec) 
Heartbeat CPU 0 instructions: 40000000 cycles: 21120143 heartbeat IPC: 2.39017 cumulative IPC: 1.89393 (Simulation time: 0 hr 24 min 46 sec) 
Heartbeat CPU 0 instructions: 41000002 cycles: 21538307 heartbeat IPC: 2.39141 cumulative IPC: 1.90359 (Simulation time: 0 hr 25 min 23 sec) 
Heartbeat CPU 0 instructions: 42000001 cycles: 21956159 heartbeat IPC: 2.39319 cumulative IPC: 1.9129 (Simulation time: 0 hr 25 min 59 sec) 
Heartbeat CPU 0 instructions: 43000003 cycles: 22374188 heartbeat IPC: 2.39218 cumulative IPC: 1.92186 (Simulation time: 0 hr 26 min 30 sec) 
Heartbeat CPU 0 instructions: 44000000 cycles: 22792099 heartbeat IPC: 2.39285 cumulative IPC: 1.93049 (Simulation time: 0 hr 27 min 2 sec) 
Heartbeat CPU 0 instructions: 45000002 cycles: 23210228 heartbeat IPC: 2.39161 cumulative IPC: 1.9388 (Simulation time: 0 hr 27 min 37 sec) 
Heartbeat CPU 0 instructions: 46000002 cycles: 23628136 heartbeat IPC: 2.39287 cumulative IPC: 1.94683 (Simulation time: 0 hr 28 min 8 sec) 
Heartbeat CPU 0 instructions: 47000001 cycles: 24045820 heartbeat IPC: 2.39415 cumulative IPC: 1.9546 (Simulation time: 0 hr 28 min 40 sec) 
Heartbeat CPU 0 instructions: 48000000 cycles: 24463800 heartbeat IPC: 2.39246 cumulative IPC: 1.96208 (Simulation time: 0 hr 29 min 10 sec) 
Heartbeat CPU 0 instructions: 49000000 cycles: 24921041 heartbeat IPC: 2.18703 cumulative IPC: 1.96621 (Simulation time: 0 hr 29 min 42 sec) 
Heartbeat CPU 0 instructions: 50000000 cycles: 25408322 heartbeat IPC: 2.0522 cumulative IPC: 1.96786 (Simulation time: 0 hr 30 min 15 sec) 

Warmup complete CPU 0 instructions: 50000004 cycles: 25408324 (Simulation time: 0 hr 30 min 15 sec) 

Heartbeat CPU 0 instructions: 51000003 cycles: 27751308 heartbeat IPC: 0.426807 cumulative IPC: 0.426806 (Simulation time: 0 hr 30 min 55 sec) 
Heartbeat CPU 0 instructions: 52000000 cycles: 30149945 heartbeat IPC: 0.416902 cumulative IPC: 0.421796 (Simulation time: 0 hr 31 min 40 sec) 
Heartbeat CPU 0 instructions: 53000003 cycles: 32601408 heartbeat IPC: 0.407921 cumulative IPC: 0.417067 (Simulation time: 0 hr 32 min 33 sec) 
Heartbeat CPU 0 instructions: 54000000 cycles: 34968867 heartbeat IPC: 0.422393 cumulative IPC: 0.418386 (Simulation time: 0 hr 33 min 24 sec) 
Heartbeat CPU 0 instructions: 55000002 cycles: 37313442 heartbeat IPC: 0.426517 cumulative IPC: 0.419987 (Simulation time: 0 hr 34 min 14 sec) 
Heartbeat CPU 0 instructions: 56000000 cycles: 39692475 heartbeat IPC: 0.420338 cumulative IPC: 0.420046 (Simulation time: 0 hr 35 min 6 sec) 
Heartbeat CPU 0 instructions: 57000001 cycles: 42042518 heartbeat IPC: 0.425525 cumulative IPC: 0.42082 (Simulation time: 0 hr 35 min 55 sec) 
Heartbeat CPU 0 instructions: 58000001 cycles: 44297472 heartbeat IPC: 0.443468 cumulative IPC: 0.423523 (Simulation time: 0 hr 36 min 46 sec) 
Heartbeat CPU 0 instructions: 59000000 cycles: 45570689 heartbeat IPC: 0.785411 cumulative IPC: 0.446376 (Simulation time: 0 hr 37 min 26 sec) 
Heartbeat CPU 0 instructions: 60000000 cycles: 46856600 heartbeat IPC: 0.777659 cumulative IPC: 0.466238 (Simulation time: 0 hr 38 min 11 sec) 
Heartbeat CPU 0 instructions: 61000000 cycles: 48235874 heartbeat IPC: 0.725019 cumulative IPC: 0.481874 (Simulation time: 0 hr 38 min 49 sec) 
Heartbeat CPU 0 instructions: 62000002 cycles: 49548853 heartbeat IPC: 0.761628 cumulative IPC: 0.497089 (Simulation time: 0 hr 39 min 29 sec) 
Heartbeat CPU 0 instructions: 63000003 cycles: 50724730 heartbeat IPC: 0.85043 cumulative IPC: 0.513501 (Simulation time: 0 hr 40 min 13 sec) 
Heartbeat CPU 0 instructions: 64000000 cycles: 51928476 heartbeat IPC: 0.830738 cumulative IPC: 0.5279 (Simulation time: 0 hr 40 min 53 sec) 
Heartbeat CPU 0 instructions: 65000001 cycles: 53291371 heartbeat IPC: 0.733733 cumulative IPC: 0.537961 (Simulation time: 0 hr 41 min 33 sec) 
Heartbeat CPU 0 instructions: 66000000 cycles: 54507403 heartbeat IPC: 0.822346 cumulative IPC: 0.549845 (Simulation time: 0 hr 42 min 15 sec) 
Heartbeat CPU 0 instructions: 67000001 cycles: 55741606 heartbeat IPC: 0.81024 cumulative IPC: 0.56044 (Simulation time: 0 hr 42 min 54 sec) 
Heartbeat CPU 0 instructions: 68000000 cycles: 57117464 heartbeat IPC: 0.726818 cumulative IPC: 0.56766 (Simulation time: 0 hr 43 min 33 sec) 
Heartbeat CPU 0 instructions: 69000002 cycles: 58396354 heartbeat IPC: 0.78193 cumulative IPC: 0.575966 (Simulation time: 0 hr 44 min 17 sec) 
Heartbeat CPU 0 instructions: 70000000 cycles: 59596356 heartbeat IPC: 0.83333 cumulative IPC: 0.585 (Simulation time: 0 hr 45 min 4 sec) 
Heartbeat CPU 0 instructions: 71000002 cycles: 60812506 heartbeat IPC: 0.822269 cumulative IPC: 0.59315 (Simulation time: 0 hr 45 min 47 sec) 
Heartbeat CPU 0 instructions: 72000000 cycles: 62223166 heartbeat IPC: 0.708887 cumulative IPC: 0.597585 (Simulation time: 0 hr 46 min 31 sec) 
Heartbeat CPU 0 instructions: 73000000 cycles: 63431067 heartbeat IPC: 0.827882 cumulative IPC: 0.604901 (Simulation time: 0 hr 47 min 9 sec) 
Heartbeat CPU 0 instructions: 74000000 cycles: 64628972 heartbeat IPC: 0.834791 cumulative IPC: 0.611923 (Simulation time: 0 hr 47 min 53 sec) 
Heartbeat CPU 0 instructions: 75000002 cycles: 66055869 heartbeat IPC: 0.700823 cumulative IPC: 0.615043 (Simulation time: 0 hr 48 min 33 sec) 
Heartbeat CPU 0 instructions: 76000000 cycles: 67258449 heartbeat IPC: 0.831544 cumulative IPC: 0.621264 (Simulation time: 0 hr 49 min 18 sec) 
Heartbeat CPU 0 instructions: 77000001 cycles: 68440281 heartbeat IPC: 0.846145 cumulative IPC: 0.627441 (Simulation time: 0 hr 49 min 59 sec) 
Heartbeat CPU 0 instructions: 78000000 cycles: 69724668 heartbeat IPC: 0.778581 cumulative IPC: 0.631821 (Simulation time: 0 hr 50 min 41 sec) 
Heartbeat CPU 0 instructions: 79000001 cycles: 71049176 heartbeat IPC: 0.754998 cumulative IPC: 0.635396 (Simulation time: 0 hr 51 min 28 sec) 
Heartbeat CPU 0 instructions: 80000000 cycles: 72236853 heartbeat IPC: 0.841979 cumulative IPC: 0.640635 (Simulation time: 0 hr 52 min 16 sec) 
Heartbeat CPU 0 instructions: 81000003 cycles: 73420671 heartbeat IPC: 0.844727 cumulative IPC: 0.645667 (Simulation time: 0 hr 52 min 56 sec) 
Heartbeat CPU 0 instructions: 82000000 cycles: 74827392 heartbeat IPC: 0.710871 cumulative IPC: 0.647523 (Simulation time: 0 hr 53 min 39 sec) 
Heartbeat CPU 0 instructions: 83000001 cycles: 76010668 heartbeat IPC: 0.845112 cumulative IPC: 0.652144 (Simulation time: 0 hr 54 min 29 sec) 
Heartbeat CPU 0 instructions: 84000000 cycles: 77209727 heartbeat IPC: 0.833986 cumulative IPC: 0.656353 (Simulation time: 0 hr 55 min 15 sec) 
Heartbeat CPU 0 instructions: 85000003 cycles: 78587085 heartbeat IPC: 0.72603 cumulative IPC: 0.658157 (Simulation time: 0 hr 56 min 1 sec) 
Heartbeat CPU 0 instructions: 86000002 cycles: 79803593 heartbeat IPC: 0.822024 cumulative IPC: 0.661822 (Simulation time: 0 hr 56 min 45 sec) 
Heartbeat CPU 0 instructions: 87000001 cycles: 80996934 heartbeat IPC: 0.837983 cumulative IPC: 0.665604 (Simulation time: 0 hr 57 min 25 sec) 
Heartbeat CPU 0 instructions: 88000000 cycles: 82216320 heartbeat IPC: 0.820084 cumulative IPC: 0.66892 (Simulation time: 0 hr 58 min 9 sec) 
Heartbeat CPU 0 instructions: 89000001 cycles: 83621797 heartbeat IPC: 0.711503 cumulative IPC: 0.669948 (Simulation time: 0 hr 58 min 50 sec) 
Heartbeat CPU 0 instructions: 90000003 cycles: 84811142 heartbeat IPC: 0.840801 cumulative IPC: 0.673369 (Simulation time: 0 hr 59 min 35 sec) 
Heartbeat CPU 0 instructions: 91000000 cycles: 86005977 heartbeat IPC: 0.836933 cumulative IPC: 0.676594 (Simulation time: 1 hr 0 min 15 sec) 
Heartbeat CPU 0 instructions: 92000000 cycles: 87420146 heartbeat IPC: 0.707129 cumulative IPC: 0.67729 (Simulation time: 1 hr 0 min 58 sec) 
Heartbeat CPU 0 instructions: 93000002 cycles: 88609127 heartbeat IPC: 0.841058 cumulative IPC: 0.680371 (Simulation time: 1 hr 1 min 43 sec) 
Heartbeat CPU 0 instructions: 94000000 cycles: 89798508 heartbeat IPC: 0.840772 cumulative IPC: 0.683334 (Simulation time: 1 hr 2 min 22 sec) 
Heartbeat CPU 0 instructions: 95000003 cycles: 91107348 heartbeat IPC: 0.764038 cumulative IPC: 0.684942 (Simulation time: 1 hr 3 min 3 sec) 
Heartbeat CPU 0 instructions: 96000000 cycles: 92426857 heartbeat IPC: 0.757855 cumulative IPC: 0.686377 (Simulation time: 1 hr 3 min 46 sec) 
Heartbeat CPU 0 instructions: 97000000 cycles: 93599657 heartbeat IPC: 0.85266 cumulative IPC: 0.689237 (Simulation time: 1 hr 4 min 31 sec) 
Heartbeat CPU 0 instructions: 98000000 cycles: 94795876 heartbeat IPC: 0.835967 cumulative IPC: 0.691767 (Simulation time: 1 hr 5 min 11 sec) 
Heartbeat CPU 0 instructions: 99000003 cycles: 96206147 heartbeat IPC: 0.709086 cumulative IPC: 0.692112 (Simulation time: 1 hr 5 min 54 sec) 
Heartbeat CPU 0 instructions: 100000000 cycles: 97410549 heartbeat IPC: 0.830285 cumulative IPC: 0.694423 (Simulation time: 1 hr 6 min 41 sec) 
Heartbeat CPU 0 instructions: 101000001 cycles: 98612178 heartbeat IPC: 0.832204 cumulative IPC: 0.696685 (Simulation time: 1 hr 7 min 23 sec) 
Heartbeat CPU 0 instructions: 102000003 cycles: 100015453 heartbeat IPC: 0.71262 cumulative IPC: 0.696984 (Simulation time: 1 hr 8 min 1 sec) 
Heartbeat CPU 0 instructions: 103000002 cycles: 101229548 heartbeat IPC: 0.823658 cumulative IPC: 0.699013 (Simulation time: 1 hr 8 min 46 sec) 
Heartbeat CPU 0 instructions: 104000000 cycles: 102426077 heartbeat IPC: 0.835749 cumulative IPC: 0.701137 (Simulation time: 1 hr 9 min 30 sec) 
Heartbeat CPU 0 instructions: 105000000 cycles: 103648202 heartbeat IPC: 0.818247 cumulative IPC: 0.702966 (Simulation time: 1 hr 10 min 22 sec) 
Heartbeat CPU 0 instructions: 106000003 cycles: 105509903 heartbeat IPC: 0.537145 cumulative IPC: 0.699112 (Simulation time: 1 hr 11 min 2 sec) 
Heartbeat CPU 0 instructions: 107000002 cycles: 107108804 heartbeat IPC: 0.625429 cumulative IPC: 0.69767 (Simulation time: 1 hr 11 min 39 sec) 
Heartbeat CPU 0 instructions: 108000000 cycles: 108791638 heartbeat IPC: 0.594234 cumulative IPC: 0.695583 (Simulation time: 1 hr 12 min 16 sec) 
Heartbeat CPU 0 instructions: 109000003 cycles: 110348468 heartbeat IPC: 0.642333 cumulative IPC: 0.694607 (Simulation time: 1 hr 12 min 52 sec) 
Heartbeat CPU 0 instructions: 110000003 cycles: 112029855 heartbeat IPC: 0.594747 cumulative IPC: 0.692668 (Simulation time: 1 hr 13 min 29 sec) 
Heartbeat CPU 0 instructions: 111000003 cycles: 113614998 heartbeat IPC: 0.630858 cumulative IPC: 0.691558 (Simulation time: 1 hr 14 min 4 sec) 
Heartbeat CPU 0 instructions: 112000000 cycles: 115252879 heartbeat IPC: 0.610543 cumulative IPC: 0.690081 (Simulation time: 1 hr 14 min 39 sec) 
Heartbeat CPU 0 instructions: 113000000 cycles: 116819844 heartbeat IPC: 0.638176 cumulative IPC: 0.689191 (Simulation time: 1 hr 15 min 13 sec) 
Heartbeat CPU 0 instructions: 114000000 cycles: 118492847 heartbeat IPC: 0.597728 cumulative IPC: 0.687547 (Simulation time: 1 hr 15 min 48 sec) 
Heartbeat CPU 0 instructions: 115000000 cycles: 120064708 heartbeat IPC: 0.636189 cumulative IPC: 0.686694 (Simulation time: 1 hr 16 min 23 sec) 
Heartbeat CPU 0 instructions: 116000000 cycles: 122470765 heartbeat IPC: 0.415618 cumulative IPC: 0.679975 (Simulation time: 1 hr 17 min 5 sec) 
Heartbeat CPU 0 instructions: 117000003 cycles: 124676187 heartbeat IPC: 0.453429 cumulative IPC: 0.674941 (Simulation time: 1 hr 17 min 56 sec) 
Heartbeat CPU 0 instructions: 118000002 cycles: 127053142 heartbeat IPC: 0.420706 cumulative IPC: 0.668996 (Simulation time: 1 hr 18 min 39 sec) 
Heartbeat CPU 0 instructions: 119000002 cycles: 129437007 heartbeat IPC: 0.419487 cumulative IPC: 0.663279 (Simulation time: 1 hr 19 min 24 sec) 
Heartbeat CPU 0 instructions: 120000000 cycles: 131803038 heartbeat IPC: 0.422648 cumulative IPC: 0.657927 (Simulation time: 1 hr 20 min 3 sec) 
Heartbeat CPU 0 instructions: 121000001 cycles: 134134572 heartbeat IPC: 0.428903 cumulative IPC: 0.653016 (Simulation time: 1 hr 20 min 42 sec) 
Heartbeat CPU 0 instructions: 122000002 cycles: 136470640 heartbeat IPC: 0.42807 cumulative IPC: 0.648285 (Simulation time: 1 hr 21 min 21 sec) 
Heartbeat CPU 0 instructions: 123000001 cycles: 138831769 heartbeat IPC: 0.423526 cumulative IPC: 0.643606 (Simulation time: 1 hr 22 min 2 sec) 
Heartbeat CPU 0 instructions: 124000000 cycles: 140145443 heartbeat IPC: 0.761223 cumulative IPC: 0.644953 (Simulation time: 1 hr 22 min 31 sec) 
Heartbeat CPU 0 instructions: 125000000 cycles: 141396489 heartbeat IPC: 0.799331 cumulative IPC: 0.646618 (Simulation time: 1 hr 22 min 59 sec) 
Heartbeat CPU 0 instructions: 126000000 cycles: 142645525 heartbeat IPC: 0.800617 cumulative IPC: 0.648258 (Simulation time: 1 hr 23 min 29 sec) 
Heartbeat CPU 0 instructions: 127000003 cycles: 143898798 heartbeat IPC: 0.797913 cumulative IPC: 0.649841 (Simulation time: 1 hr 23 min 58 sec) 
Heartbeat CPU 0 instructions: 128000000 cycles: 145177735 heartbeat IPC: 0.781897 cumulative IPC: 0.651251 (Simulation time: 1 hr 24 min 25 sec) 
Heartbeat CPU 0 instructions: 129000000 cycles: 146425405 heartbeat IPC: 0.801494 cumulative IPC: 0.6528 (Simulation time: 1 hr 25 min 1 sec) 
Heartbeat CPU 0 instructions: 130000000 cycles: 147726347 heartbeat IPC: 0.768674 cumulative IPC: 0.654033 (Simulation time: 1 hr 25 min 28 sec) 
Heartbeat CPU 0 instructions: 131000000 cycles: 148953783 heartbeat IPC: 0.814706 cumulative IPC: 0.655629 (Simulation time: 1 hr 25 min 56 sec) 
Heartbeat CPU 0 instructions: 132000000 cycles: 150213028 heartbeat IPC: 0.794127 cumulative IPC: 0.657026 (Simulation time: 1 hr 26 min 21 sec) 
Heartbeat CPU 0 instructions: 133000001 cycles: 151479478 heartbeat IPC: 0.78961 cumulative IPC: 0.658358 (Simulation time: 1 hr 26 min 45 sec) 
Heartbeat CPU 0 instructions: 134000000 cycles: 152726509 heartbeat IPC: 0.801904 cumulative IPC: 0.659764 (Simulation time: 1 hr 27 min 11 sec) 
Heartbeat CPU 0 instructions: 135000001 cycles: 154016661 heartbeat IPC: 0.775103 cumulative IPC: 0.660921 (Simulation time: 1 hr 27 min 35 sec) 
Heartbeat CPU 0 instructions: 136000000 cycles: 155261075 heartbeat IPC: 0.80359 cumulative IPC: 0.662289 (Simulation time: 1 hr 28 min 2 sec) 
Heartbeat CPU 0 instructions: 137000003 cycles: 156558951 heartbeat IPC: 0.770492 cumulative IPC: 0.663359 (Simulation time: 1 hr 28 min 25 sec) 
Heartbeat CPU 0 instructions: 138000002 cycles: 157793106 heartbeat IPC: 0.81027 cumulative IPC: 0.664729 (Simulation time: 1 hr 28 min 49 sec) 
Heartbeat CPU 0 instructions: 139000000 cycles: 159055743 heartbeat IPC: 0.791992 cumulative IPC: 0.665931 (Simulation time: 1 hr 29 min 13 sec) 
Heartbeat CPU 0 instructions: 140000000 cycles: 160336459 heartbeat IPC: 0.780813 cumulative IPC: 0.667022 (Simulation time: 1 hr 29 min 36 sec) 
Heartbeat CPU 0 instructions: 141000001 cycles: 161577364 heartbeat IPC: 0.805864 cumulative IPC: 0.668287 (Simulation time: 1 hr 30 min 1 sec) 
Heartbeat CPU 0 instructions: 142000003 cycles: 162881380 heartbeat IPC: 0.766863 cumulative IPC: 0.669222 (Simulation time: 1 hr 30 min 24 sec) 
Heartbeat CPU 0 instructions: 143000003 cycles: 164126747 heartbeat IPC: 0.802976 cumulative IPC: 0.670423 (Simulation time: 1 hr 30 min 47 sec) 
Heartbeat CPU 0 instructions: 144000000 cycles: 165428779 heartbeat IPC: 0.768028 cumulative IPC: 0.67133 (Simulation time: 1 hr 31 min 7 sec) 
Heartbeat CPU 0 instructions: 145000003 cycles: 166701762 heartbeat IPC: 0.785559 cumulative IPC: 0.67236 (Simulation time: 1 hr 31 min 26 sec) 
Heartbeat CPU 0 instructions: 146000003 cycles: 167980675 heartbeat IPC: 0.781914 cumulative IPC: 0.673342 (Simulation time: 1 hr 31 min 45 sec) 
Heartbeat CPU 0 instructions: 147000003 cycles: 169267019 heartbeat IPC: 0.777397 cumulative IPC: 0.674273 (Simulation time: 1 hr 32 min 2 sec) 
Heartbeat CPU 0 instructions: 148000000 cycles: 170518416 heartbeat IPC: 0.799105 cumulative IPC: 0.675349 (Simulation time: 1 hr 32 min 19 sec) 
Heartbeat CPU 0 instructions: 149000000 cycles: 171809458 heartbeat IPC: 0.774568 cumulative IPC: 0.676224 (Simulation time: 1 hr 32 min 34 sec) 
Heartbeat CPU 0 instructions: 150000001 cycles: 173066074 heartbeat IPC: 0.795789 cumulative IPC: 0.677242 (Simulation time: 1 hr 32 min 49 sec) 
Finished CPU 0 instructions: 100000001 cycles: 147657751 cummulative IPC: 0.677242 (Simulation time: 1 hr 32 min 49 sec) 

ChampSim completed all CPUs

Region of Interest Statistics

CPU 0 cummulative IPC: 0.677242 instructions: 100000001 cycles: 147657751
LLC TOTAL     ACCESS:    4212197  HIT:    1280479  MISS:    2931718
LLC LOAD      ACCESS:     417067  HIT:     145750  MISS:     271317
LLC RFO       ACCESS:     595321  HIT:     160984  MISS:     434337
LLC PREFETCH  ACCESS:    2364438  HIT:     571639  MISS:    1792799
LLC WRITEBACK ACCESS:     835371  HIT:     402106  MISS:     433265
OPTgen accesses: 21839
OPTgen hits: 9216
OPTgen hit rate: 42.1997


