
*** ChampSim Multicore Out-of-Order Simulator ***

Warmup Instructions: 50000000
Simulation Instructions: 100000000
Configuration: 2
Number of CPUs: 1
LLC sets: 2048
LLC ways: 16
Off-chip DRAM Channels: 1 Width: 64-bit Data Rate: 1600 MT/s

CPU 0 runs /datasets/cs240c-wi22-a00-public/data/Assignment2-gz/libquantum_1735B.trace.gz
CPU 0 L1D next line prefetcher
CPU 0 L2C IP-based stride prefetcher
Initialize Hawkeye state
Heartbeat CPU 0 instructions: 1000001 cycles: 333341 heartbeat IPC: 2.99993 cumulative IPC: 2.99993 (Simulation time: 0 hr 0 min 23 sec) 
Heartbeat CPU 0 instructions: 2000000 cycles: 666674 heartbeat IPC: 3 cumulative IPC: 2.99997 (Simulation time: 0 hr 0 min 46 sec) 
Heartbeat CPU 0 instructions: 3000000 cycles: 989045 heartbeat IPC: 3.10202 cumulative IPC: 3.03323 (Simulation time: 0 hr 1 min 5 sec) 
Heartbeat CPU 0 instructions: 4000000 cycles: 1290770 heartbeat IPC: 3.31428 cumulative IPC: 3.09893 (Simulation time: 0 hr 1 min 24 sec) 
Heartbeat CPU 0 instructions: 5000001 cycles: 1592495 heartbeat IPC: 3.31428 cumulative IPC: 3.13973 (Simulation time: 0 hr 1 min 46 sec) 
Heartbeat CPU 0 instructions: 6000001 cycles: 1894219 heartbeat IPC: 3.31429 cumulative IPC: 3.16753 (Simulation time: 0 hr 2 min 11 sec) 
Heartbeat CPU 0 instructions: 7000002 cycles: 2195942 heartbeat IPC: 3.3143 cumulative IPC: 3.1877 (Simulation time: 0 hr 2 min 36 sec) 
Heartbeat CPU 0 instructions: 8000000 cycles: 2501897 heartbeat IPC: 3.26845 cumulative IPC: 3.19757 (Simulation time: 0 hr 3 min 0 sec) 
Heartbeat CPU 0 instructions: 9000000 cycles: 2835230 heartbeat IPC: 3 cumulative IPC: 3.17435 (Simulation time: 0 hr 3 min 24 sec) 
Heartbeat CPU 0 instructions: 10000002 cycles: 3168564 heartbeat IPC: 3 cumulative IPC: 3.156 (Simulation time: 0 hr 3 min 48 sec) 
Heartbeat CPU 0 instructions: 11000001 cycles: 3501897 heartbeat IPC: 3 cumulative IPC: 3.14116 (Simulation time: 0 hr 4 min 12 sec) 
Heartbeat CPU 0 instructions: 12000000 cycles: 3835230 heartbeat IPC: 3 cumulative IPC: 3.12889 (Simulation time: 0 hr 4 min 35 sec) 
Heartbeat CPU 0 instructions: 13000000 cycles: 4159530 heartbeat IPC: 3.08356 cumulative IPC: 3.12535 (Simulation time: 0 hr 4 min 59 sec) 
Heartbeat CPU 0 instructions: 14000002 cycles: 4471102 heartbeat IPC: 3.20954 cumulative IPC: 3.13122 (Simulation time: 0 hr 5 min 20 sec) 
Heartbeat CPU 0 instructions: 15000000 cycles: 4782674 heartbeat IPC: 3.20952 cumulative IPC: 3.13632 (Simulation time: 0 hr 5 min 45 sec) 
Heartbeat CPU 0 instructions: 16000000 cycles: 5094247 heartbeat IPC: 3.20952 cumulative IPC: 3.1408 (Simulation time: 0 hr 6 min 7 sec) 
Heartbeat CPU 0 instructions: 17000000 cycles: 5405820 heartbeat IPC: 3.20952 cumulative IPC: 3.14476 (Simulation time: 0 hr 6 min 31 sec) 
Heartbeat CPU 0 instructions: 18000001 cycles: 5725379 heartbeat IPC: 3.12932 cumulative IPC: 3.1439 (Simulation time: 0 hr 6 min 53 sec) 
Heartbeat CPU 0 instructions: 19000000 cycles: 6058712 heartbeat IPC: 3 cumulative IPC: 3.13598 (Simulation time: 0 hr 7 min 14 sec) 
Heartbeat CPU 0 instructions: 20000000 cycles: 6392046 heartbeat IPC: 2.99999 cumulative IPC: 3.12889 (Simulation time: 0 hr 7 min 35 sec) 
Heartbeat CPU 0 instructions: 21000001 cycles: 6725379 heartbeat IPC: 3.00001 cumulative IPC: 3.1225 (Simulation time: 0 hr 7 min 58 sec) 
Heartbeat CPU 0 instructions: 22000000 cycles: 7058712 heartbeat IPC: 3 cumulative IPC: 3.11672 (Simulation time: 0 hr 8 min 22 sec) 
Heartbeat CPU 0 instructions: 23000001 cycles: 7377935 heartbeat IPC: 3.13261 cumulative IPC: 3.1174 (Simulation time: 0 hr 8 min 43 sec) 
Heartbeat CPU 0 instructions: 24000000 cycles: 7689508 heartbeat IPC: 3.20952 cumulative IPC: 3.12114 (Simulation time: 0 hr 9 min 4 sec) 
Heartbeat CPU 0 instructions: 25000002 cycles: 8001081 heartbeat IPC: 3.20953 cumulative IPC: 3.12458 (Simulation time: 0 hr 9 min 28 sec) 
Heartbeat CPU 0 instructions: 26000000 cycles: 8312653 heartbeat IPC: 3.20952 cumulative IPC: 3.12776 (Simulation time: 0 hr 9 min 51 sec) 
Heartbeat CPU 0 instructions: 27000003 cycles: 8624226 heartbeat IPC: 3.20953 cumulative IPC: 3.13072 (Simulation time: 0 hr 10 min 15 sec) 
Heartbeat CPU 0 instructions: 28000000 cycles: 8948866 heartbeat IPC: 3.08033 cumulative IPC: 3.12889 (Simulation time: 0 hr 10 min 39 sec) 
Heartbeat CPU 0 instructions: 29000000 cycles: 9282199 heartbeat IPC: 3 cumulative IPC: 3.12426 (Simulation time: 0 hr 11 min 1 sec) 
Heartbeat CPU 0 instructions: 30000001 cycles: 9615533 heartbeat IPC: 3 cumulative IPC: 3.11995 (Simulation time: 0 hr 11 min 29 sec) 
Heartbeat CPU 0 instructions: 31000000 cycles: 9948866 heartbeat IPC: 3 cumulative IPC: 3.11593 (Simulation time: 0 hr 11 min 52 sec) 
Heartbeat CPU 0 instructions: 32000000 cycles: 10282200 heartbeat IPC: 2.99999 cumulative IPC: 3.11217 (Simulation time: 0 hr 12 min 16 sec) 
Heartbeat CPU 0 instructions: 33000003 cycles: 10587669 heartbeat IPC: 3.27366 cumulative IPC: 3.11683 (Simulation time: 0 hr 12 min 39 sec) 
Heartbeat CPU 0 instructions: 34000002 cycles: 10889391 heartbeat IPC: 3.31431 cumulative IPC: 3.12231 (Simulation time: 0 hr 13 min 4 sec) 
Heartbeat CPU 0 instructions: 35000002 cycles: 11191114 heartbeat IPC: 3.3143 cumulative IPC: 3.12748 (Simulation time: 0 hr 13 min 27 sec) 
Heartbeat CPU 0 instructions: 36000000 cycles: 11492840 heartbeat IPC: 3.31426 cumulative IPC: 3.13239 (Simulation time: 0 hr 13 min 50 sec) 
Heartbeat CPU 0 instructions: 37000002 cycles: 11794564 heartbeat IPC: 3.31429 cumulative IPC: 3.13704 (Simulation time: 0 hr 14 min 16 sec) 
Heartbeat CPU 0 instructions: 38000003 cycles: 12117424 heartbeat IPC: 3.09732 cumulative IPC: 3.13598 (Simulation time: 0 hr 14 min 37 sec) 
Heartbeat CPU 0 instructions: 39000002 cycles: 12450757 heartbeat IPC: 3 cumulative IPC: 3.13234 (Simulation time: 0 hr 14 min 57 sec) 
Heartbeat CPU 0 instructions: 40000000 cycles: 12784090 heartbeat IPC: 3 cumulative IPC: 3.12889 (Simulation time: 0 hr 15 min 20 sec) 
Heartbeat CPU 0 instructions: 41000000 cycles: 13117423 heartbeat IPC: 3 cumulative IPC: 3.12561 (Simulation time: 0 hr 15 min 43 sec) 
Heartbeat CPU 0 instructions: 42000001 cycles: 13450757 heartbeat IPC: 3 cumulative IPC: 3.1225 (Simulation time: 0 hr 16 min 5 sec) 
Heartbeat CPU 0 instructions: 43000003 cycles: 13754059 heartbeat IPC: 3.29705 cumulative IPC: 3.12635 (Simulation time: 0 hr 16 min 24 sec) 
Heartbeat CPU 0 instructions: 44000000 cycles: 14055784 heartbeat IPC: 3.31427 cumulative IPC: 3.13038 (Simulation time: 0 hr 16 min 46 sec) 
Heartbeat CPU 0 instructions: 45000000 cycles: 14357508 heartbeat IPC: 3.31429 cumulative IPC: 3.13425 (Simulation time: 0 hr 17 min 6 sec) 
Heartbeat CPU 0 instructions: 46000002 cycles: 14659231 heartbeat IPC: 3.3143 cumulative IPC: 3.13795 (Simulation time: 0 hr 17 min 30 sec) 
Heartbeat CPU 0 instructions: 47000002 cycles: 14960955 heartbeat IPC: 3.31429 cumulative IPC: 3.14151 (Simulation time: 0 hr 17 min 49 sec) 
Heartbeat CPU 0 instructions: 48000000 cycles: 15285989 heartbeat IPC: 3.0766 cumulative IPC: 3.14013 (Simulation time: 0 hr 18 min 9 sec) 
Heartbeat CPU 0 instructions: 49000002 cycles: 15619323 heartbeat IPC: 3 cumulative IPC: 3.13714 (Simulation time: 0 hr 18 min 33 sec) 
Heartbeat CPU 0 instructions: 50000001 cycles: 15952656 heartbeat IPC: 3 cumulative IPC: 3.13427 (Simulation time: 0 hr 18 min 54 sec) 

Warmup complete CPU 0 instructions: 50000001 cycles: 15952656 (Simulation time: 0 hr 18 min 54 sec) 

Heartbeat CPU 0 instructions: 51000000 cycles: 17455142 heartbeat IPC: 0.665563 cumulative IPC: 0.665563 (Simulation time: 0 hr 19 min 27 sec) 
Heartbeat CPU 0 instructions: 52000000 cycles: 18974816 heartbeat IPC: 0.658036 cumulative IPC: 0.661778 (Simulation time: 0 hr 20 min 3 sec) 
Heartbeat CPU 0 instructions: 53000002 cycles: 20469274 heartbeat IPC: 0.66914 cumulative IPC: 0.664214 (Simulation time: 0 hr 20 min 40 sec) 
Heartbeat CPU 0 instructions: 54000001 cycles: 22000456 heartbeat IPC: 0.65309 cumulative IPC: 0.661398 (Simulation time: 0 hr 21 min 12 sec) 
Heartbeat CPU 0 instructions: 55000000 cycles: 23520108 heartbeat IPC: 0.658045 cumulative IPC: 0.660724 (Simulation time: 0 hr 21 min 46 sec) 
Heartbeat CPU 0 instructions: 56000000 cycles: 25041206 heartbeat IPC: 0.65742 cumulative IPC: 0.660171 (Simulation time: 0 hr 22 min 25 sec) 
Heartbeat CPU 0 instructions: 57000000 cycles: 26560799 heartbeat IPC: 0.658071 cumulative IPC: 0.65987 (Simulation time: 0 hr 23 min 4 sec) 
Heartbeat CPU 0 instructions: 58000002 cycles: 28080270 heartbeat IPC: 0.658125 cumulative IPC: 0.659652 (Simulation time: 0 hr 23 min 41 sec) 
Heartbeat CPU 0 instructions: 59000001 cycles: 29589701 heartbeat IPC: 0.662501 cumulative IPC: 0.659967 (Simulation time: 0 hr 24 min 15 sec) 
Heartbeat CPU 0 instructions: 60000000 cycles: 31046333 heartbeat IPC: 0.686514 cumulative IPC: 0.662529 (Simulation time: 0 hr 24 min 49 sec) 
Heartbeat CPU 0 instructions: 61000003 cycles: 32530248 heartbeat IPC: 0.673895 cumulative IPC: 0.663546 (Simulation time: 0 hr 25 min 22 sec) 
Heartbeat CPU 0 instructions: 62000002 cycles: 34038505 heartbeat IPC: 0.663016 cumulative IPC: 0.663502 (Simulation time: 0 hr 25 min 56 sec) 
Heartbeat CPU 0 instructions: 63000001 cycles: 35540627 heartbeat IPC: 0.665724 cumulative IPC: 0.663673 (Simulation time: 0 hr 26 min 30 sec) 
Heartbeat CPU 0 instructions: 64000000 cycles: 37066795 heartbeat IPC: 0.655235 cumulative IPC: 0.663063 (Simulation time: 0 hr 27 min 3 sec) 
Heartbeat CPU 0 instructions: 65000001 cycles: 38586283 heartbeat IPC: 0.658117 cumulative IPC: 0.662731 (Simulation time: 0 hr 27 min 36 sec) 
Heartbeat CPU 0 instructions: 66000000 cycles: 40105846 heartbeat IPC: 0.658083 cumulative IPC: 0.662438 (Simulation time: 0 hr 28 min 11 sec) 
Heartbeat CPU 0 instructions: 67000001 cycles: 41602596 heartbeat IPC: 0.668115 cumulative IPC: 0.66277 (Simulation time: 0 hr 28 min 49 sec) 
Heartbeat CPU 0 instructions: 68000000 cycles: 43090372 heartbeat IPC: 0.672144 cumulative IPC: 0.663283 (Simulation time: 0 hr 29 min 22 sec) 
Heartbeat CPU 0 instructions: 69000002 cycles: 44581792 heartbeat IPC: 0.670503 cumulative IPC: 0.66366 (Simulation time: 0 hr 29 min 55 sec) 
Heartbeat CPU 0 instructions: 70000001 cycles: 46069143 heartbeat IPC: 0.672336 cumulative IPC: 0.664088 (Simulation time: 0 hr 30 min 28 sec) 
Heartbeat CPU 0 instructions: 71000003 cycles: 47619898 heartbeat IPC: 0.644848 cumulative IPC: 0.663146 (Simulation time: 0 hr 31 min 2 sec) 
Heartbeat CPU 0 instructions: 72000000 cycles: 49714074 heartbeat IPC: 0.477513 cumulative IPC: 0.651631 (Simulation time: 0 hr 31 min 31 sec) 
Heartbeat CPU 0 instructions: 73000000 cycles: 51591024 heartbeat IPC: 0.532779 cumulative IPC: 0.645372 (Simulation time: 0 hr 32 min 5 sec) 
Heartbeat CPU 0 instructions: 74000000 cycles: 53877536 heartbeat IPC: 0.437347 cumulative IPC: 0.63283 (Simulation time: 0 hr 32 min 37 sec) 
Heartbeat CPU 0 instructions: 75000000 cycles: 56137874 heartbeat IPC: 0.442412 cumulative IPC: 0.622119 (Simulation time: 0 hr 33 min 9 sec) 
Heartbeat CPU 0 instructions: 76000000 cycles: 58447961 heartbeat IPC: 0.432884 cumulative IPC: 0.611832 (Simulation time: 0 hr 33 min 36 sec) 
Heartbeat CPU 0 instructions: 77000001 cycles: 60080674 heartbeat IPC: 0.612478 cumulative IPC: 0.611856 (Simulation time: 0 hr 34 min 13 sec) 
Heartbeat CPU 0 instructions: 78000000 cycles: 61582097 heartbeat IPC: 0.666034 cumulative IPC: 0.613639 (Simulation time: 0 hr 34 min 54 sec) 
Heartbeat CPU 0 instructions: 79000001 cycles: 63051383 heartbeat IPC: 0.680603 cumulative IPC: 0.615728 (Simulation time: 0 hr 35 min 27 sec) 
Heartbeat CPU 0 instructions: 80000000 cycles: 64497881 heartbeat IPC: 0.691324 cumulative IPC: 0.61798 (Simulation time: 0 hr 36 min 0 sec) 
Heartbeat CPU 0 instructions: 81000002 cycles: 66098368 heartbeat IPC: 0.624811 cumulative IPC: 0.618198 (Simulation time: 0 hr 36 min 35 sec) 
Heartbeat CPU 0 instructions: 82000003 cycles: 68342237 heartbeat IPC: 0.445659 cumulative IPC: 0.610808 (Simulation time: 0 hr 37 min 12 sec) 
Heartbeat CPU 0 instructions: 83000000 cycles: 70603241 heartbeat IPC: 0.44228 cumulative IPC: 0.603836 (Simulation time: 0 hr 37 min 47 sec) 
Heartbeat CPU 0 instructions: 84000000 cycles: 72886676 heartbeat IPC: 0.437937 cumulative IPC: 0.597182 (Simulation time: 0 hr 38 min 16 sec) 
Heartbeat CPU 0 instructions: 85000002 cycles: 75188547 heartbeat IPC: 0.43443 cumulative IPC: 0.590858 (Simulation time: 0 hr 38 min 44 sec) 
Heartbeat CPU 0 instructions: 86000002 cycles: 77489719 heartbeat IPC: 0.434561 cumulative IPC: 0.585013 (Simulation time: 0 hr 39 min 13 sec) 
Heartbeat CPU 0 instructions: 87000002 cycles: 79345165 heartbeat IPC: 0.538954 cumulative IPC: 0.583665 (Simulation time: 0 hr 39 min 53 sec) 
Heartbeat CPU 0 instructions: 88000000 cycles: 80930349 heartbeat IPC: 0.63084 cumulative IPC: 0.584816 (Simulation time: 0 hr 40 min 37 sec) 
Heartbeat CPU 0 instructions: 89000000 cycles: 82499336 heartbeat IPC: 0.637354 cumulative IPC: 0.586055 (Simulation time: 0 hr 41 min 14 sec) 
Heartbeat CPU 0 instructions: 90000000 cycles: 84426927 heartbeat IPC: 0.518782 cumulative IPC: 0.584161 (Simulation time: 0 hr 41 min 50 sec) 
Heartbeat CPU 0 instructions: 91000001 cycles: 87241545 heartbeat IPC: 0.355288 cumulative IPC: 0.575125 (Simulation time: 0 hr 42 min 21 sec) 
Heartbeat CPU 0 instructions: 92000000 cycles: 90108134 heartbeat IPC: 0.348846 cumulative IPC: 0.566378 (Simulation time: 0 hr 42 min 50 sec) 
Heartbeat CPU 0 instructions: 93000001 cycles: 93034030 heartbeat IPC: 0.341776 cumulative IPC: 0.557852 (Simulation time: 0 hr 43 min 24 sec) 
Heartbeat CPU 0 instructions: 94000001 cycles: 95750024 heartbeat IPC: 0.368189 cumulative IPC: 0.551397 (Simulation time: 0 hr 44 min 1 sec) 
Heartbeat CPU 0 instructions: 95000000 cycles: 97326710 heartbeat IPC: 0.634241 cumulative IPC: 0.553002 (Simulation time: 0 hr 44 min 37 sec) 
Heartbeat CPU 0 instructions: 96000000 cycles: 98894742 heartbeat IPC: 0.637742 cumulative IPC: 0.554604 (Simulation time: 0 hr 45 min 23 sec) 
Heartbeat CPU 0 instructions: 97000002 cycles: 100465580 heartbeat IPC: 0.636604 cumulative IPC: 0.556128 (Simulation time: 0 hr 46 min 11 sec) 
Heartbeat CPU 0 instructions: 98000001 cycles: 102640745 heartbeat IPC: 0.459735 cumulative IPC: 0.553709 (Simulation time: 0 hr 46 min 46 sec) 
Heartbeat CPU 0 instructions: 99000003 cycles: 105521076 heartbeat IPC: 0.347183 cumulative IPC: 0.547068 (Simulation time: 0 hr 47 min 15 sec) 
Heartbeat CPU 0 instructions: 100000000 cycles: 108405260 heartbeat IPC: 0.346717 cumulative IPC: 0.540818 (Simulation time: 0 hr 47 min 45 sec) 
Heartbeat CPU 0 instructions: 101000000 cycles: 111307916 heartbeat IPC: 0.344512 cumulative IPC: 0.534842 (Simulation time: 0 hr 48 min 20 sec) 
Heartbeat CPU 0 instructions: 102000000 cycles: 113366594 heartbeat IPC: 0.485749 cumulative IPC: 0.533804 (Simulation time: 0 hr 48 min 55 sec) 
Heartbeat CPU 0 instructions: 103000002 cycles: 114715392 heartbeat IPC: 0.741402 cumulative IPC: 0.53664 (Simulation time: 0 hr 49 min 37 sec) 
Heartbeat CPU 0 instructions: 104000000 cycles: 116183771 heartbeat IPC: 0.681022 cumulative IPC: 0.538755 (Simulation time: 0 hr 50 min 9 sec) 
Heartbeat CPU 0 instructions: 105000000 cycles: 117650055 heartbeat IPC: 0.681996 cumulative IPC: 0.54082 (Simulation time: 0 hr 50 min 44 sec) 
Heartbeat CPU 0 instructions: 106000003 cycles: 119120144 heartbeat IPC: 0.680233 cumulative IPC: 0.542807 (Simulation time: 0 hr 51 min 27 sec) 
Heartbeat CPU 0 instructions: 107000000 cycles: 121252852 heartbeat IPC: 0.468886 cumulative IPC: 0.54131 (Simulation time: 0 hr 51 min 56 sec) 
Heartbeat CPU 0 instructions: 108000000 cycles: 123759551 heartbeat IPC: 0.398931 cumulative IPC: 0.537999 (Simulation time: 0 hr 52 min 25 sec) 
Heartbeat CPU 0 instructions: 109000002 cycles: 126293406 heartbeat IPC: 0.394656 cumulative IPC: 0.534707 (Simulation time: 0 hr 52 min 54 sec) 
Heartbeat CPU 0 instructions: 110000002 cycles: 128865785 heartbeat IPC: 0.388745 cumulative IPC: 0.531382 (Simulation time: 0 hr 53 min 24 sec) 
Heartbeat CPU 0 instructions: 111000001 cycles: 131461420 heartbeat IPC: 0.385262 cumulative IPC: 0.528098 (Simulation time: 0 hr 53 min 59 sec) 
Heartbeat CPU 0 instructions: 112000000 cycles: 133402993 heartbeat IPC: 0.515046 cumulative IPC: 0.527883 (Simulation time: 0 hr 54 min 41 sec) 
Heartbeat CPU 0 instructions: 113000002 cycles: 134903820 heartbeat IPC: 0.666301 cumulative IPC: 0.529629 (Simulation time: 0 hr 55 min 23 sec) 
Heartbeat CPU 0 instructions: 114000001 cycles: 136396942 heartbeat IPC: 0.669737 cumulative IPC: 0.531366 (Simulation time: 0 hr 55 min 55 sec) 
Heartbeat CPU 0 instructions: 115000000 cycles: 137888145 heartbeat IPC: 0.670599 cumulative IPC: 0.533069 (Simulation time: 0 hr 56 min 29 sec) 
Heartbeat CPU 0 instructions: 116000000 cycles: 139386604 heartbeat IPC: 0.667352 cumulative IPC: 0.534699 (Simulation time: 0 hr 57 min 5 sec) 
Heartbeat CPU 0 instructions: 117000000 cycles: 141974523 heartbeat IPC: 0.386411 cumulative IPC: 0.531654 (Simulation time: 0 hr 57 min 42 sec) 
Heartbeat CPU 0 instructions: 118000001 cycles: 144729145 heartbeat IPC: 0.363027 cumulative IPC: 0.528047 (Simulation time: 0 hr 58 min 10 sec) 
Heartbeat CPU 0 instructions: 119000001 cycles: 147501120 heartbeat IPC: 0.360754 cumulative IPC: 0.524522 (Simulation time: 0 hr 58 min 37 sec) 
Heartbeat CPU 0 instructions: 120000000 cycles: 150277416 heartbeat IPC: 0.360192 cumulative IPC: 0.521125 (Simulation time: 0 hr 59 min 11 sec) 
Heartbeat CPU 0 instructions: 121000000 cycles: 153032169 heartbeat IPC: 0.363009 cumulative IPC: 0.517948 (Simulation time: 0 hr 59 min 45 sec) 
Heartbeat CPU 0 instructions: 122000000 cycles: 154316131 heartbeat IPC: 0.778839 cumulative IPC: 0.520369 (Simulation time: 1 hr 0 min 22 sec) 
Heartbeat CPU 0 instructions: 123000001 cycles: 155778441 heartbeat IPC: 0.68385 cumulative IPC: 0.522078 (Simulation time: 1 hr 1 min 2 sec) 
Heartbeat CPU 0 instructions: 124000000 cycles: 157241798 heartbeat IPC: 0.68336 cumulative IPC: 0.523749 (Simulation time: 1 hr 1 min 36 sec) 
Heartbeat CPU 0 instructions: 125000002 cycles: 158704706 heartbeat IPC: 0.683571 cumulative IPC: 0.525387 (Simulation time: 1 hr 2 min 17 sec) 
Heartbeat CPU 0 instructions: 126000001 cycles: 160243130 heartbeat IPC: 0.650015 cumulative IPC: 0.526715 (Simulation time: 1 hr 2 min 54 sec) 
Heartbeat CPU 0 instructions: 127000000 cycles: 162460769 heartbeat IPC: 0.45093 cumulative IPC: 0.525568 (Simulation time: 1 hr 3 min 26 sec) 
Heartbeat CPU 0 instructions: 128000000 cycles: 164657410 heartbeat IPC: 0.455241 cumulative IPC: 0.524529 (Simulation time: 1 hr 3 min 57 sec) 
Heartbeat CPU 0 instructions: 129000002 cycles: 166949246 heartbeat IPC: 0.436332 cumulative IPC: 0.523191 (Simulation time: 1 hr 4 min 29 sec) 
Heartbeat CPU 0 instructions: 130000003 cycles: 169239899 heartbeat IPC: 0.436557 cumulative IPC: 0.521896 (Simulation time: 1 hr 5 min 0 sec) 
Heartbeat CPU 0 instructions: 131000001 cycles: 171548925 heartbeat IPC: 0.433082 cumulative IPC: 0.520578 (Simulation time: 1 hr 5 min 36 sec) 
Heartbeat CPU 0 instructions: 132000000 cycles: 173125998 heartbeat IPC: 0.634085 cumulative IPC: 0.521717 (Simulation time: 1 hr 6 min 12 sec) 
Heartbeat CPU 0 instructions: 133000001 cycles: 174584572 heartbeat IPC: 0.685602 cumulative IPC: 0.523224 (Simulation time: 1 hr 6 min 45 sec) 
Heartbeat CPU 0 instructions: 134000000 cycles: 176046313 heartbeat IPC: 0.684115 cumulative IPC: 0.524693 (Simulation time: 1 hr 7 min 16 sec) 
Heartbeat CPU 0 instructions: 135000001 cycles: 177513118 heartbeat IPC: 0.681755 cumulative IPC: 0.526119 (Simulation time: 1 hr 7 min 53 sec) 
Heartbeat CPU 0 instructions: 136000000 cycles: 179097104 heartbeat IPC: 0.631318 cumulative IPC: 0.52714 (Simulation time: 1 hr 8 min 27 sec) 
Heartbeat CPU 0 instructions: 137000001 cycles: 181370587 heartbeat IPC: 0.439854 cumulative IPC: 0.525941 (Simulation time: 1 hr 8 min 56 sec) 
Heartbeat CPU 0 instructions: 138000001 cycles: 183665709 heartbeat IPC: 0.435707 cumulative IPC: 0.524706 (Simulation time: 1 hr 9 min 28 sec) 
Heartbeat CPU 0 instructions: 139000000 cycles: 185963379 heartbeat IPC: 0.435223 cumulative IPC: 0.523496 (Simulation time: 1 hr 10 min 2 sec) 
Heartbeat CPU 0 instructions: 140000000 cycles: 188275836 heartbeat IPC: 0.43244 cumulative IPC: 0.522274 (Simulation time: 1 hr 10 min 35 sec) 
Heartbeat CPU 0 instructions: 141000000 cycles: 190537433 heartbeat IPC: 0.442165 cumulative IPC: 0.521237 (Simulation time: 1 hr 11 min 14 sec) 
Heartbeat CPU 0 instructions: 142000002 cycles: 191686662 heartbeat IPC: 0.87015 cumulative IPC: 0.523519 (Simulation time: 1 hr 11 min 56 sec) 
Heartbeat CPU 0 instructions: 143000001 cycles: 193094233 heartbeat IPC: 0.710443 cumulative IPC: 0.525004 (Simulation time: 1 hr 12 min 33 sec) 
Heartbeat CPU 0 instructions: 144000000 cycles: 194516940 heartbeat IPC: 0.702885 cumulative IPC: 0.526421 (Simulation time: 1 hr 13 min 12 sec) 
Heartbeat CPU 0 instructions: 145000003 cycles: 195945053 heartbeat IPC: 0.700227 cumulative IPC: 0.5278 (Simulation time: 1 hr 13 min 43 sec) 
Heartbeat CPU 0 instructions: 146000002 cycles: 197369244 heartbeat IPC: 0.702152 cumulative IPC: 0.529169 (Simulation time: 1 hr 14 min 12 sec) 
Heartbeat CPU 0 instructions: 147000001 cycles: 198781119 heartbeat IPC: 0.708277 cumulative IPC: 0.530552 (Simulation time: 1 hr 14 min 42 sec) 
Heartbeat CPU 0 instructions: 148000000 cycles: 200200154 heartbeat IPC: 0.704704 cumulative IPC: 0.531893 (Simulation time: 1 hr 15 min 11 sec) 
Heartbeat CPU 0 instructions: 149000001 cycles: 201627392 heartbeat IPC: 0.700655 cumulative IPC: 0.53319 (Simulation time: 1 hr 15 min 41 sec) 
Heartbeat CPU 0 instructions: 150000000 cycles: 203055815 heartbeat IPC: 0.700072 cumulative IPC: 0.534465 (Simulation time: 1 hr 16 min 11 sec) 
Finished CPU 0 instructions: 100000002 cycles: 187103160 cummulative IPC: 0.534464 (Simulation time: 1 hr 16 min 11 sec) 

ChampSim completed all CPUs

Region of Interest Statistics

CPU 0 cummulative IPC: 0.534464 instructions: 100000002 cycles: 187103160
LLC TOTAL     ACCESS:    3739906  HIT:     183943  MISS:    3555963
LLC LOAD      ACCESS:     679604  HIT:      29794  MISS:     649810
LLC RFO       ACCESS:         20  HIT:         20  MISS:          0
LLC PREFETCH  ACCESS:    2116535  HIT:     100958  MISS:    2015577
LLC WRITEBACK ACCESS:     943747  HIT:      53171  MISS:     890576
OPTgen accesses: 11289
OPTgen hits: 146
OPTgen hit rate: 1.29329


