
*** ChampSim Multicore Out-of-Order Simulator ***

Warmup Instructions: 50000000
Simulation Instructions: 100000000
Configuration: 2
Number of CPUs: 1
LLC sets: 2048
LLC ways: 16
Off-chip DRAM Channels: 1 Width: 64-bit Data Rate: 1600 MT/s

CPU 0 runs /datasets/cs240c-wi22-a00-public/data/Assignment2-gz/milc_744B.trace.gz
CPU 0 L1D next line prefetcher
CPU 0 L2C IP-based stride prefetcher
Initialize Hawkeye state
Heartbeat CPU 0 instructions: 1000000 cycles: 383656 heartbeat IPC: 2.6065 cumulative IPC: 2.6065 (Simulation time: 0 hr 0 min 36 sec) 
Heartbeat CPU 0 instructions: 2000001 cycles: 767293 heartbeat IPC: 2.60663 cumulative IPC: 2.60657 (Simulation time: 0 hr 1 min 10 sec) 
Heartbeat CPU 0 instructions: 3000001 cycles: 1150974 heartbeat IPC: 2.60633 cumulative IPC: 2.60649 (Simulation time: 0 hr 1 min 48 sec) 
Heartbeat CPU 0 instructions: 4000000 cycles: 1534617 heartbeat IPC: 2.60659 cumulative IPC: 2.60651 (Simulation time: 0 hr 2 min 24 sec) 
Heartbeat CPU 0 instructions: 5000001 cycles: 1918298 heartbeat IPC: 2.60633 cumulative IPC: 2.60648 (Simulation time: 0 hr 3 min 1 sec) 
Heartbeat CPU 0 instructions: 6000002 cycles: 2301951 heartbeat IPC: 2.60652 cumulative IPC: 2.60649 (Simulation time: 0 hr 3 min 38 sec) 
Heartbeat CPU 0 instructions: 7000002 cycles: 2685605 heartbeat IPC: 2.60652 cumulative IPC: 2.60649 (Simulation time: 0 hr 4 min 16 sec) 
Heartbeat CPU 0 instructions: 8000000 cycles: 3069239 heartbeat IPC: 2.60665 cumulative IPC: 2.60651 (Simulation time: 0 hr 4 min 52 sec) 
Heartbeat CPU 0 instructions: 9000003 cycles: 3452946 heartbeat IPC: 2.60616 cumulative IPC: 2.60647 (Simulation time: 0 hr 5 min 27 sec) 
Heartbeat CPU 0 instructions: 10000002 cycles: 3836611 heartbeat IPC: 2.60644 cumulative IPC: 2.60647 (Simulation time: 0 hr 6 min 4 sec) 
Heartbeat CPU 0 instructions: 11000003 cycles: 4220269 heartbeat IPC: 2.60649 cumulative IPC: 2.60647 (Simulation time: 0 hr 6 min 40 sec) 
Heartbeat CPU 0 instructions: 12000000 cycles: 4603919 heartbeat IPC: 2.60653 cumulative IPC: 2.60648 (Simulation time: 0 hr 7 min 17 sec) 
Heartbeat CPU 0 instructions: 13000002 cycles: 4987595 heartbeat IPC: 2.60637 cumulative IPC: 2.60647 (Simulation time: 0 hr 7 min 54 sec) 
Heartbeat CPU 0 instructions: 14000001 cycles: 5371239 heartbeat IPC: 2.60658 cumulative IPC: 2.60648 (Simulation time: 0 hr 8 min 32 sec) 
Heartbeat CPU 0 instructions: 15000001 cycles: 5754911 heartbeat IPC: 2.60639 cumulative IPC: 2.60647 (Simulation time: 0 hr 9 min 11 sec) 
Heartbeat CPU 0 instructions: 16000000 cycles: 6138558 heartbeat IPC: 2.60656 cumulative IPC: 2.60648 (Simulation time: 0 hr 9 min 50 sec) 
Heartbeat CPU 0 instructions: 17000001 cycles: 6522213 heartbeat IPC: 2.60651 cumulative IPC: 2.60648 (Simulation time: 0 hr 10 min 27 sec) 
Heartbeat CPU 0 instructions: 18000003 cycles: 6905855 heartbeat IPC: 2.6066 cumulative IPC: 2.60648 (Simulation time: 0 hr 11 min 3 sec) 
Heartbeat CPU 0 instructions: 19000002 cycles: 7289496 heartbeat IPC: 2.6066 cumulative IPC: 2.60649 (Simulation time: 0 hr 11 min 40 sec) 
Heartbeat CPU 0 instructions: 20000000 cycles: 7673132 heartbeat IPC: 2.60663 cumulative IPC: 2.6065 (Simulation time: 0 hr 12 min 15 sec) 
Heartbeat CPU 0 instructions: 21000003 cycles: 8056837 heartbeat IPC: 2.60618 cumulative IPC: 2.60648 (Simulation time: 0 hr 12 min 52 sec) 
Heartbeat CPU 0 instructions: 22000002 cycles: 8440504 heartbeat IPC: 2.60642 cumulative IPC: 2.60648 (Simulation time: 0 hr 13 min 27 sec) 
Heartbeat CPU 0 instructions: 23000000 cycles: 8824165 heartbeat IPC: 2.60646 cumulative IPC: 2.60648 (Simulation time: 0 hr 14 min 5 sec) 
Heartbeat CPU 0 instructions: 24000000 cycles: 9207788 heartbeat IPC: 2.60673 cumulative IPC: 2.60649 (Simulation time: 0 hr 14 min 39 sec) 
Heartbeat CPU 0 instructions: 25000002 cycles: 9591463 heartbeat IPC: 2.60638 cumulative IPC: 2.60648 (Simulation time: 0 hr 15 min 13 sec) 
Heartbeat CPU 0 instructions: 26000001 cycles: 9975122 heartbeat IPC: 2.60648 cumulative IPC: 2.60648 (Simulation time: 0 hr 15 min 49 sec) 
Heartbeat CPU 0 instructions: 27000001 cycles: 10358818 heartbeat IPC: 2.60623 cumulative IPC: 2.60648 (Simulation time: 0 hr 16 min 24 sec) 
Heartbeat CPU 0 instructions: 28000000 cycles: 10742467 heartbeat IPC: 2.60655 cumulative IPC: 2.60648 (Simulation time: 0 hr 16 min 58 sec) 
Heartbeat CPU 0 instructions: 29000000 cycles: 11126140 heartbeat IPC: 2.60639 cumulative IPC: 2.60647 (Simulation time: 0 hr 17 min 34 sec) 
Heartbeat CPU 0 instructions: 30000003 cycles: 11509791 heartbeat IPC: 2.60654 cumulative IPC: 2.60648 (Simulation time: 0 hr 18 min 9 sec) 
Heartbeat CPU 0 instructions: 31000002 cycles: 11893424 heartbeat IPC: 2.60666 cumulative IPC: 2.60648 (Simulation time: 0 hr 18 min 46 sec) 
Heartbeat CPU 0 instructions: 32000000 cycles: 12277079 heartbeat IPC: 2.6065 cumulative IPC: 2.60648 (Simulation time: 0 hr 19 min 22 sec) 
Heartbeat CPU 0 instructions: 33000001 cycles: 12660737 heartbeat IPC: 2.60649 cumulative IPC: 2.60648 (Simulation time: 0 hr 19 min 59 sec) 
Heartbeat CPU 0 instructions: 34000002 cycles: 13044413 heartbeat IPC: 2.60637 cumulative IPC: 2.60648 (Simulation time: 0 hr 20 min 37 sec) 
Heartbeat CPU 0 instructions: 35000000 cycles: 13428051 heartbeat IPC: 2.60662 cumulative IPC: 2.60648 (Simulation time: 0 hr 21 min 14 sec) 
Heartbeat CPU 0 instructions: 36000000 cycles: 13811694 heartbeat IPC: 2.60659 cumulative IPC: 2.60649 (Simulation time: 0 hr 21 min 51 sec) 
Heartbeat CPU 0 instructions: 37000001 cycles: 14195360 heartbeat IPC: 2.60644 cumulative IPC: 2.60649 (Simulation time: 0 hr 22 min 30 sec) 
Heartbeat CPU 0 instructions: 38000000 cycles: 14579025 heartbeat IPC: 2.60644 cumulative IPC: 2.60648 (Simulation time: 0 hr 23 min 8 sec) 
Heartbeat CPU 0 instructions: 39000002 cycles: 14962680 heartbeat IPC: 2.60651 cumulative IPC: 2.60649 (Simulation time: 0 hr 23 min 47 sec) 
Heartbeat CPU 0 instructions: 40000000 cycles: 15346358 heartbeat IPC: 2.60635 cumulative IPC: 2.60648 (Simulation time: 0 hr 24 min 23 sec) 
Heartbeat CPU 0 instructions: 41000003 cycles: 15730024 heartbeat IPC: 2.60644 cumulative IPC: 2.60648 (Simulation time: 0 hr 24 min 58 sec) 
Heartbeat CPU 0 instructions: 42000002 cycles: 16113669 heartbeat IPC: 2.60657 cumulative IPC: 2.60648 (Simulation time: 0 hr 25 min 35 sec) 
Heartbeat CPU 0 instructions: 43000002 cycles: 16497335 heartbeat IPC: 2.60643 cumulative IPC: 2.60648 (Simulation time: 0 hr 26 min 15 sec) 
Heartbeat CPU 0 instructions: 44000000 cycles: 16880988 heartbeat IPC: 2.60652 cumulative IPC: 2.60648 (Simulation time: 0 hr 26 min 50 sec) 
Heartbeat CPU 0 instructions: 45000000 cycles: 17264648 heartbeat IPC: 2.60647 cumulative IPC: 2.60648 (Simulation time: 0 hr 27 min 26 sec) 
Heartbeat CPU 0 instructions: 46000002 cycles: 17648338 heartbeat IPC: 2.60628 cumulative IPC: 2.60648 (Simulation time: 0 hr 28 min 0 sec) 
Heartbeat CPU 0 instructions: 47000002 cycles: 18031991 heartbeat IPC: 2.60652 cumulative IPC: 2.60648 (Simulation time: 0 hr 28 min 37 sec) 
Heartbeat CPU 0 instructions: 48000000 cycles: 18415635 heartbeat IPC: 2.60658 cumulative IPC: 2.60648 (Simulation time: 0 hr 29 min 14 sec) 
Heartbeat CPU 0 instructions: 49000001 cycles: 18799298 heartbeat IPC: 2.60646 cumulative IPC: 2.60648 (Simulation time: 0 hr 29 min 49 sec) 
Heartbeat CPU 0 instructions: 50000000 cycles: 19182930 heartbeat IPC: 2.60666 cumulative IPC: 2.60648 (Simulation time: 0 hr 30 min 27 sec) 

Warmup complete CPU 0 instructions: 50000004 cycles: 19182931 (Simulation time: 0 hr 30 min 27 sec) 

Heartbeat CPU 0 instructions: 51000001 cycles: 20624476 heartbeat IPC: 0.6937 cumulative IPC: 0.693698 (Simulation time: 0 hr 31 min 5 sec) 
Heartbeat CPU 0 instructions: 52000000 cycles: 22054846 heartbeat IPC: 0.699119 cumulative IPC: 0.696398 (Simulation time: 0 hr 31 min 43 sec) 
Heartbeat CPU 0 instructions: 53000000 cycles: 23477689 heartbeat IPC: 0.702818 cumulative IPC: 0.698525 (Simulation time: 0 hr 32 min 20 sec) 
Heartbeat CPU 0 instructions: 54000001 cycles: 24896257 heartbeat IPC: 0.704937 cumulative IPC: 0.700117 (Simulation time: 0 hr 32 min 57 sec) 
Heartbeat CPU 0 instructions: 55000003 cycles: 26321747 heartbeat IPC: 0.701515 cumulative IPC: 0.700396 (Simulation time: 0 hr 33 min 34 sec) 
Heartbeat CPU 0 instructions: 56000000 cycles: 27748008 heartbeat IPC: 0.701132 cumulative IPC: 0.700519 (Simulation time: 0 hr 34 min 11 sec) 
Heartbeat CPU 0 instructions: 57000000 cycles: 29169665 heartbeat IPC: 0.703405 cumulative IPC: 0.700929 (Simulation time: 0 hr 34 min 48 sec) 
Heartbeat CPU 0 instructions: 58000000 cycles: 30587961 heartbeat IPC: 0.705071 cumulative IPC: 0.701445 (Simulation time: 0 hr 35 min 25 sec) 
Heartbeat CPU 0 instructions: 59000002 cycles: 32011899 heartbeat IPC: 0.702279 cumulative IPC: 0.701537 (Simulation time: 0 hr 36 min 3 sec) 
Heartbeat CPU 0 instructions: 60000000 cycles: 33425294 heartbeat IPC: 0.707515 cumulative IPC: 0.70213 (Simulation time: 0 hr 36 min 42 sec) 
Heartbeat CPU 0 instructions: 61000001 cycles: 34848300 heartbeat IPC: 0.702738 cumulative IPC: 0.702186 (Simulation time: 0 hr 37 min 23 sec) 
Heartbeat CPU 0 instructions: 62000003 cycles: 36276667 heartbeat IPC: 0.700102 cumulative IPC: 0.702011 (Simulation time: 0 hr 38 min 4 sec) 
Heartbeat CPU 0 instructions: 63000001 cycles: 37698378 heartbeat IPC: 0.703376 cumulative IPC: 0.702116 (Simulation time: 0 hr 38 min 45 sec) 
Heartbeat CPU 0 instructions: 64000000 cycles: 39117010 heartbeat IPC: 0.704904 cumulative IPC: 0.702315 (Simulation time: 0 hr 39 min 24 sec) 
Heartbeat CPU 0 instructions: 65000002 cycles: 40539932 heartbeat IPC: 0.702781 cumulative IPC: 0.702346 (Simulation time: 0 hr 40 min 6 sec) 
Heartbeat CPU 0 instructions: 66000001 cycles: 41958569 heartbeat IPC: 0.704901 cumulative IPC: 0.702505 (Simulation time: 0 hr 40 min 47 sec) 
Heartbeat CPU 0 instructions: 67000003 cycles: 43380753 heartbeat IPC: 0.703145 cumulative IPC: 0.702543 (Simulation time: 0 hr 41 min 27 sec) 
Heartbeat CPU 0 instructions: 68000000 cycles: 44809479 heartbeat IPC: 0.699922 cumulative IPC: 0.702396 (Simulation time: 0 hr 42 min 5 sec) 
Heartbeat CPU 0 instructions: 69000003 cycles: 46232720 heartbeat IPC: 0.702624 cumulative IPC: 0.702408 (Simulation time: 0 hr 42 min 43 sec) 
Heartbeat CPU 0 instructions: 70000002 cycles: 47654540 heartbeat IPC: 0.703323 cumulative IPC: 0.702454 (Simulation time: 0 hr 43 min 23 sec) 
Heartbeat CPU 0 instructions: 71000002 cycles: 49053762 heartbeat IPC: 0.714683 cumulative IPC: 0.703027 (Simulation time: 0 hr 44 min 1 sec) 
Heartbeat CPU 0 instructions: 72000000 cycles: 50474343 heartbeat IPC: 0.703936 cumulative IPC: 0.703068 (Simulation time: 0 hr 44 min 39 sec) 
Heartbeat CPU 0 instructions: 73000002 cycles: 51894843 heartbeat IPC: 0.703979 cumulative IPC: 0.703108 (Simulation time: 0 hr 45 min 17 sec) 
Heartbeat CPU 0 instructions: 74000002 cycles: 53315170 heartbeat IPC: 0.704063 cumulative IPC: 0.703147 (Simulation time: 0 hr 45 min 52 sec) 
Heartbeat CPU 0 instructions: 75000001 cycles: 54730925 heartbeat IPC: 0.706336 cumulative IPC: 0.703274 (Simulation time: 0 hr 46 min 28 sec) 
Heartbeat CPU 0 instructions: 76000000 cycles: 56155500 heartbeat IPC: 0.701963 cumulative IPC: 0.703224 (Simulation time: 0 hr 47 min 5 sec) 
Heartbeat CPU 0 instructions: 77000002 cycles: 57577631 heartbeat IPC: 0.703171 cumulative IPC: 0.703222 (Simulation time: 0 hr 47 min 42 sec) 
Heartbeat CPU 0 instructions: 78000000 cycles: 58999311 heartbeat IPC: 0.703392 cumulative IPC: 0.703228 (Simulation time: 0 hr 48 min 19 sec) 
Heartbeat CPU 0 instructions: 79000000 cycles: 60425694 heartbeat IPC: 0.701074 cumulative IPC: 0.703154 (Simulation time: 0 hr 48 min 58 sec) 
Heartbeat CPU 0 instructions: 80000000 cycles: 61850398 heartbeat IPC: 0.7019 cumulative IPC: 0.703112 (Simulation time: 0 hr 49 min 34 sec) 
Heartbeat CPU 0 instructions: 81000003 cycles: 63267244 heartbeat IPC: 0.705795 cumulative IPC: 0.703198 (Simulation time: 0 hr 50 min 13 sec) 
Heartbeat CPU 0 instructions: 82000003 cycles: 64688548 heartbeat IPC: 0.703579 cumulative IPC: 0.70321 (Simulation time: 0 hr 50 min 47 sec) 
Heartbeat CPU 0 instructions: 83000002 cycles: 66106613 heartbeat IPC: 0.705186 cumulative IPC: 0.70327 (Simulation time: 0 hr 51 min 23 sec) 
Heartbeat CPU 0 instructions: 84000000 cycles: 67527530 heartbeat IPC: 0.703769 cumulative IPC: 0.703284 (Simulation time: 0 hr 52 min 0 sec) 
Heartbeat CPU 0 instructions: 85000000 cycles: 68945509 heartbeat IPC: 0.705229 cumulative IPC: 0.70334 (Simulation time: 0 hr 52 min 37 sec) 
Heartbeat CPU 0 instructions: 86000001 cycles: 70359586 heartbeat IPC: 0.707176 cumulative IPC: 0.703446 (Simulation time: 0 hr 53 min 14 sec) 
Heartbeat CPU 0 instructions: 87000001 cycles: 71784024 heartbeat IPC: 0.702031 cumulative IPC: 0.703407 (Simulation time: 0 hr 53 min 50 sec) 
Heartbeat CPU 0 instructions: 88000000 cycles: 73205291 heartbeat IPC: 0.703597 cumulative IPC: 0.703412 (Simulation time: 0 hr 54 min 27 sec) 
Heartbeat CPU 0 instructions: 89000001 cycles: 74620612 heartbeat IPC: 0.706554 cumulative IPC: 0.703493 (Simulation time: 0 hr 55 min 1 sec) 
Heartbeat CPU 0 instructions: 90000000 cycles: 76042880 heartbeat IPC: 0.703102 cumulative IPC: 0.703483 (Simulation time: 0 hr 55 min 41 sec) 
Heartbeat CPU 0 instructions: 91000001 cycles: 77467574 heartbeat IPC: 0.701906 cumulative IPC: 0.703444 (Simulation time: 0 hr 56 min 17 sec) 
Heartbeat CPU 0 instructions: 92000000 cycles: 81943552 heartbeat IPC: 0.223415 cumulative IPC: 0.669209 (Simulation time: 0 hr 57 min 35 sec) 
Heartbeat CPU 0 instructions: 93000000 cycles: 86575552 heartbeat IPC: 0.215889 cumulative IPC: 0.638052 (Simulation time: 0 hr 58 min 53 sec) 
Heartbeat CPU 0 instructions: 94000002 cycles: 89744362 heartbeat IPC: 0.315577 cumulative IPC: 0.62357 (Simulation time: 0 hr 59 min 55 sec) 
Heartbeat CPU 0 instructions: 95000000 cycles: 91050704 heartbeat IPC: 0.765495 cumulative IPC: 0.62615 (Simulation time: 1 hr 0 min 39 sec) 
Heartbeat CPU 0 instructions: 96000000 cycles: 92380570 heartbeat IPC: 0.751955 cumulative IPC: 0.628435 (Simulation time: 1 hr 1 min 16 sec) 
Heartbeat CPU 0 instructions: 97000002 cycles: 93619899 heartbeat IPC: 0.80689 cumulative IPC: 0.631407 (Simulation time: 1 hr 1 min 51 sec) 
Heartbeat CPU 0 instructions: 98000003 cycles: 94856714 heartbeat IPC: 0.808529 cumulative IPC: 0.634302 (Simulation time: 1 hr 2 min 26 sec) 
Heartbeat CPU 0 instructions: 99000000 cycles: 96093775 heartbeat IPC: 0.808365 cumulative IPC: 0.637101 (Simulation time: 1 hr 3 min 2 sec) 
Heartbeat CPU 0 instructions: 100000000 cycles: 97347807 heartbeat IPC: 0.797428 cumulative IPC: 0.639673 (Simulation time: 1 hr 3 min 36 sec) 
Heartbeat CPU 0 instructions: 101000001 cycles: 98597759 heartbeat IPC: 0.800032 cumulative IPC: 0.642197 (Simulation time: 1 hr 4 min 12 sec) 
Heartbeat CPU 0 instructions: 102000000 cycles: 99854865 heartbeat IPC: 0.795477 cumulative IPC: 0.644586 (Simulation time: 1 hr 4 min 48 sec) 
Heartbeat CPU 0 instructions: 103000002 cycles: 101112895 heartbeat IPC: 0.794895 cumulative IPC: 0.646894 (Simulation time: 1 hr 5 min 24 sec) 
Heartbeat CPU 0 instructions: 104000000 cycles: 102370997 heartbeat IPC: 0.794847 cumulative IPC: 0.649132 (Simulation time: 1 hr 6 min 0 sec) 
Heartbeat CPU 0 instructions: 105000003 cycles: 103631172 heartbeat IPC: 0.793543 cumulative IPC: 0.651286 (Simulation time: 1 hr 6 min 37 sec) 
Heartbeat CPU 0 instructions: 106000002 cycles: 104884956 heartbeat IPC: 0.797585 cumulative IPC: 0.653427 (Simulation time: 1 hr 7 min 15 sec) 
Heartbeat CPU 0 instructions: 107000002 cycles: 106145858 heartbeat IPC: 0.793083 cumulative IPC: 0.655452 (Simulation time: 1 hr 7 min 51 sec) 
Heartbeat CPU 0 instructions: 108000000 cycles: 107406652 heartbeat IPC: 0.793149 cumulative IPC: 0.65742 (Simulation time: 1 hr 8 min 26 sec) 
Heartbeat CPU 0 instructions: 109000001 cycles: 108662106 heartbeat IPC: 0.796525 cumulative IPC: 0.659371 (Simulation time: 1 hr 9 min 4 sec) 
Heartbeat CPU 0 instructions: 110000001 cycles: 109919182 heartbeat IPC: 0.795497 cumulative IPC: 0.661257 (Simulation time: 1 hr 9 min 40 sec) 
Heartbeat CPU 0 instructions: 111000000 cycles: 111180634 heartbeat IPC: 0.792736 cumulative IPC: 0.66306 (Simulation time: 1 hr 10 min 15 sec) 
Heartbeat CPU 0 instructions: 112000000 cycles: 112438289 heartbeat IPC: 0.795131 cumulative IPC: 0.664841 (Simulation time: 1 hr 10 min 51 sec) 
Heartbeat CPU 0 instructions: 113000002 cycles: 113699328 heartbeat IPC: 0.792998 cumulative IPC: 0.666551 (Simulation time: 1 hr 11 min 23 sec) 
Heartbeat CPU 0 instructions: 114000000 cycles: 114950746 heartbeat IPC: 0.799092 cumulative IPC: 0.668283 (Simulation time: 1 hr 12 min 1 sec) 
Heartbeat CPU 0 instructions: 115000002 cycles: 116210706 heartbeat IPC: 0.793678 cumulative IPC: 0.669911 (Simulation time: 1 hr 12 min 34 sec) 
Heartbeat CPU 0 instructions: 116000000 cycles: 117470663 heartbeat IPC: 0.793676 cumulative IPC: 0.671498 (Simulation time: 1 hr 13 min 11 sec) 
Heartbeat CPU 0 instructions: 117000003 cycles: 118724766 heartbeat IPC: 0.797385 cumulative IPC: 0.673084 (Simulation time: 1 hr 13 min 43 sec) 
Heartbeat CPU 0 instructions: 118000000 cycles: 119984908 heartbeat IPC: 0.793559 cumulative IPC: 0.67459 (Simulation time: 1 hr 14 min 14 sec) 
Heartbeat CPU 0 instructions: 119000003 cycles: 121247850 heartbeat IPC: 0.791804 cumulative IPC: 0.67604 (Simulation time: 1 hr 14 min 48 sec) 
Heartbeat CPU 0 instructions: 120000000 cycles: 122508742 heartbeat IPC: 0.793087 cumulative IPC: 0.677469 (Simulation time: 1 hr 15 min 17 sec) 
Heartbeat CPU 0 instructions: 121000003 cycles: 123766493 heartbeat IPC: 0.795072 cumulative IPC: 0.678883 (Simulation time: 1 hr 15 min 47 sec) 
Heartbeat CPU 0 instructions: 122000001 cycles: 125024082 heartbeat IPC: 0.795171 cumulative IPC: 0.680265 (Simulation time: 1 hr 16 min 15 sec) 
Heartbeat CPU 0 instructions: 123000000 cycles: 126278292 heartbeat IPC: 0.797314 cumulative IPC: 0.681635 (Simulation time: 1 hr 16 min 44 sec) 
Heartbeat CPU 0 instructions: 124000000 cycles: 127535579 heartbeat IPC: 0.795363 cumulative IPC: 0.682955 (Simulation time: 1 hr 17 min 11 sec) 
Heartbeat CPU 0 instructions: 125000003 cycles: 128796074 heartbeat IPC: 0.793342 cumulative IPC: 0.684224 (Simulation time: 1 hr 17 min 39 sec) 
Heartbeat CPU 0 instructions: 126000000 cycles: 130052657 heartbeat IPC: 0.795807 cumulative IPC: 0.685489 (Simulation time: 1 hr 18 min 9 sec) 
Heartbeat CPU 0 instructions: 127000000 cycles: 131312235 heartbeat IPC: 0.793917 cumulative IPC: 0.686707 (Simulation time: 1 hr 18 min 38 sec) 
Heartbeat CPU 0 instructions: 128000000 cycles: 132569905 heartbeat IPC: 0.795121 cumulative IPC: 0.68791 (Simulation time: 1 hr 19 min 5 sec) 
Heartbeat CPU 0 instructions: 129000000 cycles: 133829249 heartbeat IPC: 0.794064 cumulative IPC: 0.689076 (Simulation time: 1 hr 19 min 31 sec) 
Heartbeat CPU 0 instructions: 130000002 cycles: 135086908 heartbeat IPC: 0.79513 cumulative IPC: 0.690226 (Simulation time: 1 hr 19 min 59 sec) 
Heartbeat CPU 0 instructions: 131000002 cycles: 136342805 heartbeat IPC: 0.796244 cumulative IPC: 0.691363 (Simulation time: 1 hr 20 min 26 sec) 
Heartbeat CPU 0 instructions: 132000000 cycles: 137600119 heartbeat IPC: 0.795345 cumulative IPC: 0.692467 (Simulation time: 1 hr 20 min 55 sec) 
Heartbeat CPU 0 instructions: 133000002 cycles: 138856987 heartbeat IPC: 0.79563 cumulative IPC: 0.69355 (Simulation time: 1 hr 21 min 23 sec) 
Heartbeat CPU 0 instructions: 134000002 cycles: 140117283 heartbeat IPC: 0.793464 cumulative IPC: 0.694592 (Simulation time: 1 hr 21 min 51 sec) 
Heartbeat CPU 0 instructions: 135000000 cycles: 141374422 heartbeat IPC: 0.795455 cumulative IPC: 0.695629 (Simulation time: 1 hr 22 min 21 sec) 
Heartbeat CPU 0 instructions: 136000000 cycles: 142635160 heartbeat IPC: 0.793186 cumulative IPC: 0.696626 (Simulation time: 1 hr 22 min 47 sec) 
Heartbeat CPU 0 instructions: 137000001 cycles: 143888995 heartbeat IPC: 0.797554 cumulative IPC: 0.69764 (Simulation time: 1 hr 23 min 13 sec) 
Heartbeat CPU 0 instructions: 138000003 cycles: 145152289 heartbeat IPC: 0.791583 cumulative IPC: 0.698583 (Simulation time: 1 hr 23 min 38 sec) 
Heartbeat CPU 0 instructions: 139000001 cycles: 146410247 heartbeat IPC: 0.794937 cumulative IPC: 0.699535 (Simulation time: 1 hr 24 min 2 sec) 
Heartbeat CPU 0 instructions: 140000000 cycles: 147674416 heartbeat IPC: 0.791033 cumulative IPC: 0.700435 (Simulation time: 1 hr 24 min 24 sec) 
Heartbeat CPU 0 instructions: 141000003 cycles: 148937187 heartbeat IPC: 0.791912 cumulative IPC: 0.701326 (Simulation time: 1 hr 24 min 45 sec) 
Heartbeat CPU 0 instructions: 142000001 cycles: 150197361 heartbeat IPC: 0.79354 cumulative IPC: 0.702213 (Simulation time: 1 hr 25 min 6 sec) 
Heartbeat CPU 0 instructions: 143000001 cycles: 151460101 heartbeat IPC: 0.791929 cumulative IPC: 0.703069 (Simulation time: 1 hr 25 min 26 sec) 
Heartbeat CPU 0 instructions: 144000000 cycles: 152716741 heartbeat IPC: 0.795772 cumulative IPC: 0.703942 (Simulation time: 1 hr 25 min 47 sec) 
Heartbeat CPU 0 instructions: 145000001 cycles: 153972808 heartbeat IPC: 0.796137 cumulative IPC: 0.704801 (Simulation time: 1 hr 26 min 10 sec) 
Heartbeat CPU 0 instructions: 146000003 cycles: 155232849 heartbeat IPC: 0.793627 cumulative IPC: 0.705623 (Simulation time: 1 hr 26 min 30 sec) 
Heartbeat CPU 0 instructions: 147000003 cycles: 156490132 heartbeat IPC: 0.795366 cumulative IPC: 0.706445 (Simulation time: 1 hr 26 min 51 sec) 
Heartbeat CPU 0 instructions: 148000000 cycles: 157747372 heartbeat IPC: 0.795391 cumulative IPC: 0.707252 (Simulation time: 1 hr 27 min 10 sec) 
Heartbeat CPU 0 instructions: 149000001 cycles: 159006654 heartbeat IPC: 0.794104 cumulative IPC: 0.708034 (Simulation time: 1 hr 27 min 28 sec) 
Heartbeat CPU 0 instructions: 150000003 cycles: 160270981 heartbeat IPC: 0.790936 cumulative IPC: 0.708777 (Simulation time: 1 hr 27 min 47 sec) 
Finished CPU 0 instructions: 100000003 cycles: 141088051 cummulative IPC: 0.708777 (Simulation time: 1 hr 27 min 47 sec) 

ChampSim completed all CPUs

Region of Interest Statistics

CPU 0 cummulative IPC: 0.708777 instructions: 100000003 cycles: 141088051
LLC TOTAL     ACCESS:    2853535  HIT:      50117  MISS:    2803418
LLC LOAD      ACCESS:     878637  HIT:        239  MISS:     878398
LLC RFO       ACCESS:     539880  HIT:       6618  MISS:     533262
LLC PREFETCH  ACCESS:     755035  HIT:       3388  MISS:     751647
LLC WRITEBACK ACCESS:     679983  HIT:      39872  MISS:     640111
OPTgen accesses: 25468
OPTgen hits: 173
OPTgen hit rate: 0.679284


