
*** ChampSim Multicore Out-of-Order Simulator ***

Warmup Instructions: 50000000
Simulation Instructions: 100000000
Configuration: 2
Number of CPUs: 1
LLC sets: 2048
LLC ways: 16
Off-chip DRAM Channels: 1 Width: 64-bit Data Rate: 1600 MT/s

CPU 0 runs /datasets/cs240c-wi22-a00-public/data/Assignment2-gz/omnetpp_4B.trace.gz
CPU 0 L1D next line prefetcher
CPU 0 L2C IP-based stride prefetcher
Initialize Hawkeye state
Heartbeat CPU 0 instructions: 1000001 cycles: 566981 heartbeat IPC: 1.76373 cumulative IPC: 1.76373 (Simulation time: 0 hr 0 min 35 sec) 
Heartbeat CPU 0 instructions: 2000001 cycles: 1135674 heartbeat IPC: 1.75842 cumulative IPC: 1.76107 (Simulation time: 0 hr 1 min 9 sec) 
Heartbeat CPU 0 instructions: 3000001 cycles: 1722678 heartbeat IPC: 1.70357 cumulative IPC: 1.74148 (Simulation time: 0 hr 1 min 45 sec) 
Heartbeat CPU 0 instructions: 4000000 cycles: 2292030 heartbeat IPC: 1.75638 cumulative IPC: 1.74518 (Simulation time: 0 hr 2 min 20 sec) 
Heartbeat CPU 0 instructions: 5000000 cycles: 2866263 heartbeat IPC: 1.74145 cumulative IPC: 1.74443 (Simulation time: 0 hr 2 min 54 sec) 
Heartbeat CPU 0 instructions: 6000000 cycles: 3442501 heartbeat IPC: 1.73539 cumulative IPC: 1.74292 (Simulation time: 0 hr 3 min 30 sec) 
Heartbeat CPU 0 instructions: 7000000 cycles: 4011836 heartbeat IPC: 1.75644 cumulative IPC: 1.74484 (Simulation time: 0 hr 4 min 6 sec) 
Heartbeat CPU 0 instructions: 8000000 cycles: 4565386 heartbeat IPC: 1.80652 cumulative IPC: 1.75232 (Simulation time: 0 hr 4 min 39 sec) 
Heartbeat CPU 0 instructions: 9000001 cycles: 5147553 heartbeat IPC: 1.71772 cumulative IPC: 1.7484 (Simulation time: 0 hr 5 min 14 sec) 
Heartbeat CPU 0 instructions: 10000000 cycles: 5701611 heartbeat IPC: 1.80486 cumulative IPC: 1.75389 (Simulation time: 0 hr 5 min 49 sec) 
Heartbeat CPU 0 instructions: 11000000 cycles: 6288830 heartbeat IPC: 1.70294 cumulative IPC: 1.74913 (Simulation time: 0 hr 6 min 23 sec) 
Heartbeat CPU 0 instructions: 12000000 cycles: 6939912 heartbeat IPC: 1.5359 cumulative IPC: 1.72913 (Simulation time: 0 hr 6 min 53 sec) 
Heartbeat CPU 0 instructions: 13000002 cycles: 7587098 heartbeat IPC: 1.54515 cumulative IPC: 1.71344 (Simulation time: 0 hr 7 min 25 sec) 
Heartbeat CPU 0 instructions: 14000000 cycles: 8237599 heartbeat IPC: 1.53727 cumulative IPC: 1.69952 (Simulation time: 0 hr 7 min 55 sec) 
Heartbeat CPU 0 instructions: 15000000 cycles: 8891130 heartbeat IPC: 1.53015 cumulative IPC: 1.68707 (Simulation time: 0 hr 8 min 25 sec) 
Heartbeat CPU 0 instructions: 16000000 cycles: 9461596 heartbeat IPC: 1.75295 cumulative IPC: 1.69105 (Simulation time: 0 hr 9 min 1 sec) 
Heartbeat CPU 0 instructions: 17000000 cycles: 10043612 heartbeat IPC: 1.71817 cumulative IPC: 1.69262 (Simulation time: 0 hr 9 min 37 sec) 
Heartbeat CPU 0 instructions: 18000000 cycles: 10615141 heartbeat IPC: 1.74969 cumulative IPC: 1.69569 (Simulation time: 0 hr 10 min 9 sec) 
Heartbeat CPU 0 instructions: 19000002 cycles: 11183936 heartbeat IPC: 1.75811 cumulative IPC: 1.69887 (Simulation time: 0 hr 10 min 43 sec) 
Heartbeat CPU 0 instructions: 20000000 cycles: 11731689 heartbeat IPC: 1.82564 cumulative IPC: 1.70478 (Simulation time: 0 hr 11 min 17 sec) 
Heartbeat CPU 0 instructions: 21000000 cycles: 12279924 heartbeat IPC: 1.82404 cumulative IPC: 1.71011 (Simulation time: 0 hr 11 min 51 sec) 
Heartbeat CPU 0 instructions: 22000001 cycles: 12832892 heartbeat IPC: 1.80842 cumulative IPC: 1.71434 (Simulation time: 0 hr 12 min 27 sec) 
Heartbeat CPU 0 instructions: 23000000 cycles: 13414516 heartbeat IPC: 1.71932 cumulative IPC: 1.71456 (Simulation time: 0 hr 13 min 1 sec) 
Heartbeat CPU 0 instructions: 24000000 cycles: 13984305 heartbeat IPC: 1.75504 cumulative IPC: 1.71621 (Simulation time: 0 hr 13 min 34 sec) 
Heartbeat CPU 0 instructions: 25000000 cycles: 14547194 heartbeat IPC: 1.77655 cumulative IPC: 1.71854 (Simulation time: 0 hr 14 min 8 sec) 
Heartbeat CPU 0 instructions: 26000001 cycles: 15116782 heartbeat IPC: 1.75566 cumulative IPC: 1.71994 (Simulation time: 0 hr 14 min 41 sec) 
Heartbeat CPU 0 instructions: 27000001 cycles: 15683494 heartbeat IPC: 1.76456 cumulative IPC: 1.72156 (Simulation time: 0 hr 15 min 13 sec) 
Heartbeat CPU 0 instructions: 28000000 cycles: 16252733 heartbeat IPC: 1.75673 cumulative IPC: 1.72279 (Simulation time: 0 hr 15 min 50 sec) 
Heartbeat CPU 0 instructions: 29000000 cycles: 16839134 heartbeat IPC: 1.70532 cumulative IPC: 1.72218 (Simulation time: 0 hr 16 min 25 sec) 
Heartbeat CPU 0 instructions: 30000000 cycles: 17409935 heartbeat IPC: 1.75192 cumulative IPC: 1.72315 (Simulation time: 0 hr 17 min 1 sec) 
Heartbeat CPU 0 instructions: 31000000 cycles: 17985546 heartbeat IPC: 1.73728 cumulative IPC: 1.72361 (Simulation time: 0 hr 17 min 38 sec) 
Heartbeat CPU 0 instructions: 32000000 cycles: 18555396 heartbeat IPC: 1.75485 cumulative IPC: 1.72457 (Simulation time: 0 hr 18 min 10 sec) 
Heartbeat CPU 0 instructions: 33000000 cycles: 19114057 heartbeat IPC: 1.78999 cumulative IPC: 1.72648 (Simulation time: 0 hr 18 min 46 sec) 
Heartbeat CPU 0 instructions: 34000001 cycles: 19666721 heartbeat IPC: 1.80942 cumulative IPC: 1.72881 (Simulation time: 0 hr 19 min 20 sec) 
Heartbeat CPU 0 instructions: 35000001 cycles: 20247778 heartbeat IPC: 1.721 cumulative IPC: 1.72858 (Simulation time: 0 hr 19 min 57 sec) 
Heartbeat CPU 0 instructions: 36000000 cycles: 20803528 heartbeat IPC: 1.79937 cumulative IPC: 1.73048 (Simulation time: 0 hr 20 min 32 sec) 
Heartbeat CPU 0 instructions: 37000001 cycles: 21375786 heartbeat IPC: 1.74747 cumulative IPC: 1.73093 (Simulation time: 0 hr 21 min 7 sec) 
Heartbeat CPU 0 instructions: 38000001 cycles: 21936338 heartbeat IPC: 1.78396 cumulative IPC: 1.73229 (Simulation time: 0 hr 21 min 43 sec) 
Heartbeat CPU 0 instructions: 39000001 cycles: 22549200 heartbeat IPC: 1.63169 cumulative IPC: 1.72955 (Simulation time: 0 hr 22 min 17 sec) 
Heartbeat CPU 0 instructions: 40000000 cycles: 23198205 heartbeat IPC: 1.54082 cumulative IPC: 1.72427 (Simulation time: 0 hr 22 min 48 sec) 
Heartbeat CPU 0 instructions: 41000001 cycles: 23847161 heartbeat IPC: 1.54094 cumulative IPC: 1.71928 (Simulation time: 0 hr 23 min 18 sec) 
Heartbeat CPU 0 instructions: 42000001 cycles: 24494085 heartbeat IPC: 1.54578 cumulative IPC: 1.7147 (Simulation time: 0 hr 23 min 47 sec) 
Heartbeat CPU 0 instructions: 43000000 cycles: 25162749 heartbeat IPC: 1.49552 cumulative IPC: 1.70888 (Simulation time: 0 hr 24 min 18 sec) 
Heartbeat CPU 0 instructions: 44000000 cycles: 25726581 heartbeat IPC: 1.77358 cumulative IPC: 1.71029 (Simulation time: 0 hr 24 min 51 sec) 
Heartbeat CPU 0 instructions: 45000000 cycles: 26290345 heartbeat IPC: 1.77379 cumulative IPC: 1.71166 (Simulation time: 0 hr 25 min 27 sec) 
Heartbeat CPU 0 instructions: 46000000 cycles: 26836589 heartbeat IPC: 1.83068 cumulative IPC: 1.71408 (Simulation time: 0 hr 26 min 1 sec) 
Heartbeat CPU 0 instructions: 47000000 cycles: 27382795 heartbeat IPC: 1.83081 cumulative IPC: 1.71641 (Simulation time: 0 hr 26 min 36 sec) 
Heartbeat CPU 0 instructions: 48000000 cycles: 27934339 heartbeat IPC: 1.81309 cumulative IPC: 1.71832 (Simulation time: 0 hr 27 min 10 sec) 
Heartbeat CPU 0 instructions: 49000002 cycles: 28515256 heartbeat IPC: 1.72142 cumulative IPC: 1.71838 (Simulation time: 0 hr 27 min 44 sec) 
Heartbeat CPU 0 instructions: 50000000 cycles: 29085293 heartbeat IPC: 1.75427 cumulative IPC: 1.71908 (Simulation time: 0 hr 28 min 20 sec) 

Warmup complete CPU 0 instructions: 50000002 cycles: 29085294 (Simulation time: 0 hr 28 min 20 sec) 

Heartbeat CPU 0 instructions: 51000003 cycles: 31985193 heartbeat IPC: 0.344841 cumulative IPC: 0.34484 (Simulation time: 0 hr 29 min 0 sec) 
Heartbeat CPU 0 instructions: 52000000 cycles: 34868936 heartbeat IPC: 0.34677 cumulative IPC: 0.345803 (Simulation time: 0 hr 29 min 41 sec) 
Heartbeat CPU 0 instructions: 53000003 cycles: 37775906 heartbeat IPC: 0.344002 cumulative IPC: 0.3452 (Simulation time: 0 hr 30 min 21 sec) 
Heartbeat CPU 0 instructions: 54000001 cycles: 40647167 heartbeat IPC: 0.348278 cumulative IPC: 0.345965 (Simulation time: 0 hr 31 min 1 sec) 
Heartbeat CPU 0 instructions: 55000001 cycles: 43659848 heartbeat IPC: 0.33193 cumulative IPC: 0.343064 (Simulation time: 0 hr 31 min 41 sec) 
Heartbeat CPU 0 instructions: 56000000 cycles: 46530645 heartbeat IPC: 0.348335 cumulative IPC: 0.343931 (Simulation time: 0 hr 32 min 22 sec) 
Heartbeat CPU 0 instructions: 57000003 cycles: 49383131 heartbeat IPC: 0.350572 cumulative IPC: 0.344864 (Simulation time: 0 hr 33 min 1 sec) 
Heartbeat CPU 0 instructions: 58000001 cycles: 52472042 heartbeat IPC: 0.323738 cumulative IPC: 0.342074 (Simulation time: 0 hr 33 min 39 sec) 
Heartbeat CPU 0 instructions: 59000001 cycles: 55884712 heartbeat IPC: 0.293026 cumulative IPC: 0.335828 (Simulation time: 0 hr 34 min 19 sec) 
Heartbeat CPU 0 instructions: 60000000 cycles: 58973471 heartbeat IPC: 0.323754 cumulative IPC: 0.33458 (Simulation time: 0 hr 35 min 0 sec) 
Heartbeat CPU 0 instructions: 61000001 cycles: 62098017 heartbeat IPC: 0.320047 cumulative IPC: 0.333205 (Simulation time: 0 hr 35 min 40 sec) 
Heartbeat CPU 0 instructions: 62000000 cycles: 65540290 heartbeat IPC: 0.290505 cumulative IPC: 0.329173 (Simulation time: 0 hr 36 min 22 sec) 
Heartbeat CPU 0 instructions: 63000001 cycles: 68468051 heartbeat IPC: 0.341558 cumulative IPC: 0.330094 (Simulation time: 0 hr 36 min 59 sec) 
Heartbeat CPU 0 instructions: 64000000 cycles: 71371946 heartbeat IPC: 0.344365 cumulative IPC: 0.331074 (Simulation time: 0 hr 37 min 38 sec) 
Heartbeat CPU 0 instructions: 65000001 cycles: 74266582 heartbeat IPC: 0.345467 cumulative IPC: 0.331996 (Simulation time: 0 hr 38 min 17 sec) 
Heartbeat CPU 0 instructions: 66000002 cycles: 78564403 heartbeat IPC: 0.232676 cumulative IPC: 0.323369 (Simulation time: 0 hr 39 min 4 sec) 
Heartbeat CPU 0 instructions: 67000001 cycles: 80235705 heartbeat IPC: 0.598335 cumulative IPC: 0.332353 (Simulation time: 0 hr 39 min 41 sec) 
Heartbeat CPU 0 instructions: 68000000 cycles: 81359541 heartbeat IPC: 0.889809 cumulative IPC: 0.344338 (Simulation time: 0 hr 40 min 9 sec) 
Heartbeat CPU 0 instructions: 69000003 cycles: 82501574 heartbeat IPC: 0.875634 cumulative IPC: 0.355697 (Simulation time: 0 hr 40 min 40 sec) 
Heartbeat CPU 0 instructions: 70000000 cycles: 83621821 heartbeat IPC: 0.892658 cumulative IPC: 0.366727 (Simulation time: 0 hr 41 min 11 sec) 
Heartbeat CPU 0 instructions: 71000001 cycles: 84794701 heartbeat IPC: 0.852603 cumulative IPC: 0.376956 (Simulation time: 0 hr 41 min 41 sec) 
Heartbeat CPU 0 instructions: 72000000 cycles: 88218143 heartbeat IPC: 0.292103 cumulative IPC: 0.372044 (Simulation time: 0 hr 42 min 24 sec) 
Heartbeat CPU 0 instructions: 73000000 cycles: 91737004 heartbeat IPC: 0.284183 cumulative IPC: 0.367109 (Simulation time: 0 hr 43 min 7 sec) 
Heartbeat CPU 0 instructions: 74000001 cycles: 95206284 heartbeat IPC: 0.288245 cumulative IPC: 0.362971 (Simulation time: 0 hr 43 min 47 sec) 
Heartbeat CPU 0 instructions: 75000001 cycles: 98181908 heartbeat IPC: 0.336064 cumulative IPC: 0.361812 (Simulation time: 0 hr 44 min 28 sec) 
Heartbeat CPU 0 instructions: 76000000 cycles: 101057991 heartbeat IPC: 0.347695 cumulative IPC: 0.361248 (Simulation time: 0 hr 45 min 6 sec) 
Heartbeat CPU 0 instructions: 77000000 cycles: 103969645 heartbeat IPC: 0.343447 cumulative IPC: 0.360556 (Simulation time: 0 hr 45 min 42 sec) 
Heartbeat CPU 0 instructions: 78000001 cycles: 106880379 heartbeat IPC: 0.343556 cumulative IPC: 0.35992 (Simulation time: 0 hr 46 min 20 sec) 
Heartbeat CPU 0 instructions: 79000001 cycles: 109785207 heartbeat IPC: 0.344254 cumulative IPC: 0.359356 (Simulation time: 0 hr 46 min 56 sec) 
Heartbeat CPU 0 instructions: 80000000 cycles: 112668909 heartbeat IPC: 0.346776 cumulative IPC: 0.358922 (Simulation time: 0 hr 47 min 33 sec) 
Heartbeat CPU 0 instructions: 81000002 cycles: 115621843 heartbeat IPC: 0.338647 cumulative IPC: 0.35823 (Simulation time: 0 hr 48 min 11 sec) 
Heartbeat CPU 0 instructions: 82000001 cycles: 118491554 heartbeat IPC: 0.348467 cumulative IPC: 0.357917 (Simulation time: 0 hr 48 min 50 sec) 
Heartbeat CPU 0 instructions: 83000002 cycles: 121420720 heartbeat IPC: 0.341394 cumulative IPC: 0.357393 (Simulation time: 0 hr 49 min 28 sec) 
Heartbeat CPU 0 instructions: 84000000 cycles: 124385796 heartbeat IPC: 0.337259 cumulative IPC: 0.356766 (Simulation time: 0 hr 50 min 8 sec) 
Heartbeat CPU 0 instructions: 85000002 cycles: 127839383 heartbeat IPC: 0.289555 cumulative IPC: 0.354416 (Simulation time: 0 hr 50 min 47 sec) 
Heartbeat CPU 0 instructions: 86000002 cycles: 131289201 heartbeat IPC: 0.28987 cumulative IPC: 0.352237 (Simulation time: 0 hr 51 min 27 sec) 
Heartbeat CPU 0 instructions: 87000000 cycles: 134392994 heartbeat IPC: 0.322186 cumulative IPC: 0.351351 (Simulation time: 0 hr 52 min 8 sec) 
Heartbeat CPU 0 instructions: 88000000 cycles: 137495796 heartbeat IPC: 0.322289 cumulative IPC: 0.35052 (Simulation time: 0 hr 52 min 46 sec) 
Heartbeat CPU 0 instructions: 89000002 cycles: 140681385 heartbeat IPC: 0.313914 cumulative IPC: 0.349475 (Simulation time: 0 hr 53 min 23 sec) 
Heartbeat CPU 0 instructions: 90000001 cycles: 143529891 heartbeat IPC: 0.351061 cumulative IPC: 0.349514 (Simulation time: 0 hr 54 min 1 sec) 
Heartbeat CPU 0 instructions: 91000001 cycles: 146408257 heartbeat IPC: 0.347419 cumulative IPC: 0.349463 (Simulation time: 0 hr 54 min 36 sec) 
Heartbeat CPU 0 instructions: 92000000 cycles: 149375673 heartbeat IPC: 0.336993 cumulative IPC: 0.349155 (Simulation time: 0 hr 55 min 14 sec) 
Heartbeat CPU 0 instructions: 93000000 cycles: 152267781 heartbeat IPC: 0.345769 cumulative IPC: 0.349076 (Simulation time: 0 hr 55 min 51 sec) 
Heartbeat CPU 0 instructions: 94000000 cycles: 156959388 heartbeat IPC: 0.213147 cumulative IPC: 0.344088 (Simulation time: 0 hr 56 min 36 sec) 
Heartbeat CPU 0 instructions: 95000000 cycles: 158147643 heartbeat IPC: 0.84157 cumulative IPC: 0.348669 (Simulation time: 0 hr 57 min 5 sec) 
Heartbeat CPU 0 instructions: 96000000 cycles: 159290624 heartbeat IPC: 0.874905 cumulative IPC: 0.353288 (Simulation time: 0 hr 57 min 33 sec) 
Heartbeat CPU 0 instructions: 97000002 cycles: 160409327 heartbeat IPC: 0.893894 cumulative IPC: 0.357893 (Simulation time: 0 hr 58 min 0 sec) 
Heartbeat CPU 0 instructions: 98000001 cycles: 161551264 heartbeat IPC: 0.875704 cumulative IPC: 0.362357 (Simulation time: 0 hr 58 min 29 sec) 
Heartbeat CPU 0 instructions: 99000002 cycles: 163460169 heartbeat IPC: 0.523861 cumulative IPC: 0.364652 (Simulation time: 0 hr 59 min 1 sec) 
Heartbeat CPU 0 instructions: 100000000 cycles: 166988563 heartbeat IPC: 0.283414 cumulative IPC: 0.362573 (Simulation time: 0 hr 59 min 40 sec) 
Heartbeat CPU 0 instructions: 101000002 cycles: 170162458 heartbeat IPC: 0.315071 cumulative IPC: 0.361504 (Simulation time: 1 hr 0 min 18 sec) 
Heartbeat CPU 0 instructions: 102000001 cycles: 173254247 heartbeat IPC: 0.323437 cumulative IPC: 0.360688 (Simulation time: 1 hr 0 min 55 sec) 
Heartbeat CPU 0 instructions: 103000000 cycles: 176150129 heartbeat IPC: 0.345318 cumulative IPC: 0.360385 (Simulation time: 1 hr 1 min 31 sec) 
Heartbeat CPU 0 instructions: 104000000 cycles: 179051162 heartbeat IPC: 0.344705 cumulative IPC: 0.360082 (Simulation time: 1 hr 2 min 9 sec) 
Heartbeat CPU 0 instructions: 105000001 cycles: 181908705 heartbeat IPC: 0.349951 cumulative IPC: 0.359892 (Simulation time: 1 hr 2 min 48 sec) 
Heartbeat CPU 0 instructions: 106000000 cycles: 184877325 heartbeat IPC: 0.336857 cumulative IPC: 0.359454 (Simulation time: 1 hr 3 min 24 sec) 
Heartbeat CPU 0 instructions: 107000002 cycles: 187762105 heartbeat IPC: 0.346648 cumulative IPC: 0.359221 (Simulation time: 1 hr 4 min 0 sec) 
Heartbeat CPU 0 instructions: 108000000 cycles: 190655717 heartbeat IPC: 0.345588 cumulative IPC: 0.358977 (Simulation time: 1 hr 4 min 38 sec) 
Heartbeat CPU 0 instructions: 109000002 cycles: 193553611 heartbeat IPC: 0.345079 cumulative IPC: 0.358732 (Simulation time: 1 hr 5 min 13 sec) 
Heartbeat CPU 0 instructions: 110000001 cycles: 196473045 heartbeat IPC: 0.342532 cumulative IPC: 0.358449 (Simulation time: 1 hr 5 min 50 sec) 
Heartbeat CPU 0 instructions: 111000001 cycles: 199555664 heartbeat IPC: 0.324399 cumulative IPC: 0.357833 (Simulation time: 1 hr 6 min 29 sec) 
Heartbeat CPU 0 instructions: 112000000 cycles: 202970066 heartbeat IPC: 0.292877 cumulative IPC: 0.356558 (Simulation time: 1 hr 7 min 9 sec) 
Heartbeat CPU 0 instructions: 113000002 cycles: 206084613 heartbeat IPC: 0.321075 cumulative IPC: 0.355934 (Simulation time: 1 hr 7 min 50 sec) 
Heartbeat CPU 0 instructions: 114000001 cycles: 209471190 heartbeat IPC: 0.295283 cumulative IPC: 0.354795 (Simulation time: 1 hr 8 min 29 sec) 
Heartbeat CPU 0 instructions: 115000001 cycles: 212617302 heartbeat IPC: 0.317853 cumulative IPC: 0.354162 (Simulation time: 1 hr 9 min 8 sec) 
Heartbeat CPU 0 instructions: 116000000 cycles: 215549397 heartbeat IPC: 0.341053 cumulative IPC: 0.353956 (Simulation time: 1 hr 9 min 45 sec) 
Heartbeat CPU 0 instructions: 117000001 cycles: 218444727 heartbeat IPC: 0.345384 cumulative IPC: 0.353824 (Simulation time: 1 hr 10 min 22 sec) 
Heartbeat CPU 0 instructions: 118000000 cycles: 221434203 heartbeat IPC: 0.334506 cumulative IPC: 0.353524 (Simulation time: 1 hr 10 min 58 sec) 
Heartbeat CPU 0 instructions: 119000001 cycles: 224348082 heartbeat IPC: 0.343185 cumulative IPC: 0.35337 (Simulation time: 1 hr 11 min 37 sec) 
Heartbeat CPU 0 instructions: 120000000 cycles: 227270755 heartbeat IPC: 0.342152 cumulative IPC: 0.353205 (Simulation time: 1 hr 12 min 7 sec) 
Heartbeat CPU 0 instructions: 121000003 cycles: 230202979 heartbeat IPC: 0.341039 cumulative IPC: 0.353027 (Simulation time: 1 hr 12 min 39 sec) 
Heartbeat CPU 0 instructions: 122000000 cycles: 234891442 heartbeat IPC: 0.213289 cumulative IPC: 0.349844 (Simulation time: 1 hr 13 min 22 sec) 
Heartbeat CPU 0 instructions: 123000001 cycles: 236056715 heartbeat IPC: 0.858169 cumulative IPC: 0.352706 (Simulation time: 1 hr 13 min 47 sec) 
Heartbeat CPU 0 instructions: 124000000 cycles: 237178691 heartbeat IPC: 0.891284 cumulative IPC: 0.35561 (Simulation time: 1 hr 14 min 10 sec) 
Heartbeat CPU 0 instructions: 125000000 cycles: 238320328 heartbeat IPC: 0.875935 cumulative IPC: 0.358449 (Simulation time: 1 hr 14 min 37 sec) 
Heartbeat CPU 0 instructions: 126000001 cycles: 239551416 heartbeat IPC: 0.81229 cumulative IPC: 0.361103 (Simulation time: 1 hr 15 min 4 sec) 
Heartbeat CPU 0 instructions: 127000000 cycles: 241578650 heartbeat IPC: 0.493282 cumulative IPC: 0.362364 (Simulation time: 1 hr 15 min 31 sec) 
Heartbeat CPU 0 instructions: 128000000 cycles: 245075649 heartbeat IPC: 0.285959 cumulative IPC: 0.361127 (Simulation time: 1 hr 16 min 7 sec) 
Heartbeat CPU 0 instructions: 129000001 cycles: 248274624 heartbeat IPC: 0.3126 cumulative IPC: 0.360419 (Simulation time: 1 hr 16 min 38 sec) 
Heartbeat CPU 0 instructions: 130000000 cycles: 251177985 heartbeat IPC: 0.344428 cumulative IPC: 0.36021 (Simulation time: 1 hr 17 min 7 sec) 
Heartbeat CPU 0 instructions: 131000001 cycles: 254072601 heartbeat IPC: 0.345469 cumulative IPC: 0.36002 (Simulation time: 1 hr 17 min 39 sec) 
Heartbeat CPU 0 instructions: 132000000 cycles: 257020820 heartbeat IPC: 0.339188 cumulative IPC: 0.359751 (Simulation time: 1 hr 18 min 7 sec) 
Heartbeat CPU 0 instructions: 133000000 cycles: 259975027 heartbeat IPC: 0.3385 cumulative IPC: 0.359479 (Simulation time: 1 hr 18 min 37 sec) 
Heartbeat CPU 0 instructions: 134000000 cycles: 262902665 heartbeat IPC: 0.341572 cumulative IPC: 0.359255 (Simulation time: 1 hr 19 min 8 sec) 
Heartbeat CPU 0 instructions: 135000000 cycles: 265816458 heartbeat IPC: 0.343195 cumulative IPC: 0.359057 (Simulation time: 1 hr 19 min 37 sec) 
Heartbeat CPU 0 instructions: 136000000 cycles: 268711156 heartbeat IPC: 0.345459 cumulative IPC: 0.358893 (Simulation time: 1 hr 20 min 6 sec) 
Heartbeat CPU 0 instructions: 137000000 cycles: 271577102 heartbeat IPC: 0.348925 cumulative IPC: 0.358775 (Simulation time: 1 hr 20 min 34 sec) 
Heartbeat CPU 0 instructions: 138000001 cycles: 274898869 heartbeat IPC: 0.301045 cumulative IPC: 0.357995 (Simulation time: 1 hr 21 min 4 sec) 
Heartbeat CPU 0 instructions: 139000000 cycles: 277668410 heartbeat IPC: 0.36107 cumulative IPC: 0.358029 (Simulation time: 1 hr 21 min 33 sec) 
Heartbeat CPU 0 instructions: 140000000 cycles: 281133911 heartbeat IPC: 0.288559 cumulative IPC: 0.357074 (Simulation time: 1 hr 22 min 4 sec) 
Heartbeat CPU 0 instructions: 141000002 cycles: 284593700 heartbeat IPC: 0.289036 cumulative IPC: 0.356153 (Simulation time: 1 hr 22 min 35 sec) 
Heartbeat CPU 0 instructions: 142000001 cycles: 287956243 heartbeat IPC: 0.297394 cumulative IPC: 0.355389 (Simulation time: 1 hr 23 min 2 sec) 
Heartbeat CPU 0 instructions: 143000001 cycles: 290901348 heartbeat IPC: 0.339546 cumulative IPC: 0.355211 (Simulation time: 1 hr 23 min 27 sec) 
Heartbeat CPU 0 instructions: 144000000 cycles: 293903949 heartbeat IPC: 0.333044 cumulative IPC: 0.35496 (Simulation time: 1 hr 23 min 54 sec) 
Heartbeat CPU 0 instructions: 145000001 cycles: 296802188 heartbeat IPC: 0.345037 cumulative IPC: 0.354852 (Simulation time: 1 hr 24 min 18 sec) 
Heartbeat CPU 0 instructions: 146000000 cycles: 299745054 heartbeat IPC: 0.339804 cumulative IPC: 0.354689 (Simulation time: 1 hr 24 min 40 sec) 
Heartbeat CPU 0 instructions: 147000001 cycles: 302696803 heartbeat IPC: 0.338783 cumulative IPC: 0.354517 (Simulation time: 1 hr 25 min 1 sec) 
Heartbeat CPU 0 instructions: 148000000 cycles: 305637620 heartbeat IPC: 0.340041 cumulative IPC: 0.354363 (Simulation time: 1 hr 25 min 23 sec) 
Heartbeat CPU 0 instructions: 149000002 cycles: 308544962 heartbeat IPC: 0.343957 cumulative IPC: 0.354255 (Simulation time: 1 hr 25 min 45 sec) 
Heartbeat CPU 0 instructions: 150000001 cycles: 313220490 heartbeat IPC: 0.213879 cumulative IPC: 0.351945 (Simulation time: 1 hr 26 min 12 sec) 
Finished CPU 0 instructions: 100000000 cycles: 284135199 cummulative IPC: 0.351945 (Simulation time: 1 hr 26 min 12 sec) 

ChampSim completed all CPUs

Region of Interest Statistics

CPU 0 cummulative IPC: 0.351945 instructions: 100000000 cycles: 284135199
LLC TOTAL     ACCESS:    4941601  HIT:    2180449  MISS:    2761152
LLC LOAD      ACCESS:    2311616  HIT:    1808299  MISS:     503317
LLC RFO       ACCESS:      25014  HIT:       7032  MISS:      17982
LLC PREFETCH  ACCESS:    2523669  HIT:     294018  MISS:    2229651
LLC WRITEBACK ACCESS:      81302  HIT:      71100  MISS:      10202
OPTgen accesses: 53250
OPTgen hits: 51307
OPTgen hit rate: 96.3512


