
*** ChampSim Multicore Out-of-Order Simulator ***

Warmup Instructions: 50000000
Simulation Instructions: 100000000
Configuration: 2
Number of CPUs: 1
LLC sets: 2048
LLC ways: 16
Off-chip DRAM Channels: 1 Width: 64-bit Data Rate: 1600 MT/s

CPU 0 runs /datasets/cs240c-wi22-a00-public/data/Assignment2-gz/soplex_205B.trace.gz
CPU 0 L1D next line prefetcher
CPU 0 L2C IP-based stride prefetcher
Initialize Hawkeye state
Heartbeat CPU 0 instructions: 1000000 cycles: 395620 heartbeat IPC: 2.52768 cumulative IPC: 2.52768 (Simulation time: 0 hr 0 min 33 sec) 
Heartbeat CPU 0 instructions: 2000002 cycles: 928717 heartbeat IPC: 1.87583 cumulative IPC: 2.15351 (Simulation time: 0 hr 1 min 9 sec) 
Heartbeat CPU 0 instructions: 3000000 cycles: 1400487 heartbeat IPC: 2.11967 cumulative IPC: 2.14211 (Simulation time: 0 hr 1 min 58 sec) 
Heartbeat CPU 0 instructions: 4000000 cycles: 1761654 heartbeat IPC: 2.7688 cumulative IPC: 2.27059 (Simulation time: 0 hr 2 min 31 sec) 
Heartbeat CPU 0 instructions: 5000003 cycles: 2205047 heartbeat IPC: 2.25534 cumulative IPC: 2.26753 (Simulation time: 0 hr 3 min 10 sec) 
Heartbeat CPU 0 instructions: 6000003 cycles: 2624712 heartbeat IPC: 2.38285 cumulative IPC: 2.28597 (Simulation time: 0 hr 3 min 51 sec) 
Heartbeat CPU 0 instructions: 7000000 cycles: 3009146 heartbeat IPC: 2.60122 cumulative IPC: 2.32624 (Simulation time: 0 hr 4 min 23 sec) 
Heartbeat CPU 0 instructions: 8000000 cycles: 3401640 heartbeat IPC: 2.54781 cumulative IPC: 2.35181 (Simulation time: 0 hr 4 min 56 sec) 
Heartbeat CPU 0 instructions: 9000003 cycles: 3923144 heartbeat IPC: 1.91754 cumulative IPC: 2.29408 (Simulation time: 0 hr 5 min 33 sec) 
Heartbeat CPU 0 instructions: 10000000 cycles: 4408426 heartbeat IPC: 2.06065 cumulative IPC: 2.26838 (Simulation time: 0 hr 6 min 15 sec) 
Heartbeat CPU 0 instructions: 11000001 cycles: 4778383 heartbeat IPC: 2.70302 cumulative IPC: 2.30203 (Simulation time: 0 hr 6 min 52 sec) 
Heartbeat CPU 0 instructions: 12000000 cycles: 5215256 heartbeat IPC: 2.28899 cumulative IPC: 2.30094 (Simulation time: 0 hr 7 min 34 sec) 
Heartbeat CPU 0 instructions: 13000001 cycles: 5637701 heartbeat IPC: 2.36717 cumulative IPC: 2.3059 (Simulation time: 0 hr 8 min 16 sec) 
Heartbeat CPU 0 instructions: 14000003 cycles: 6022021 heartbeat IPC: 2.602 cumulative IPC: 2.3248 (Simulation time: 0 hr 8 min 46 sec) 
Heartbeat CPU 0 instructions: 15000000 cycles: 6432783 heartbeat IPC: 2.43449 cumulative IPC: 2.33181 (Simulation time: 0 hr 9 min 16 sec) 
Heartbeat CPU 0 instructions: 16000000 cycles: 6965050 heartbeat IPC: 1.87876 cumulative IPC: 2.29718 (Simulation time: 0 hr 9 min 53 sec) 
Heartbeat CPU 0 instructions: 17000001 cycles: 7521710 heartbeat IPC: 1.79643 cumulative IPC: 2.26012 (Simulation time: 0 hr 10 min 41 sec) 
Heartbeat CPU 0 instructions: 18000000 cycles: 8033796 heartbeat IPC: 1.9528 cumulative IPC: 2.24053 (Simulation time: 0 hr 11 min 23 sec) 
Heartbeat CPU 0 instructions: 19000002 cycles: 8709042 heartbeat IPC: 1.48094 cumulative IPC: 2.18164 (Simulation time: 0 hr 12 min 14 sec) 
Heartbeat CPU 0 instructions: 20000000 cycles: 9465133 heartbeat IPC: 1.32259 cumulative IPC: 2.11302 (Simulation time: 0 hr 12 min 59 sec) 
Heartbeat CPU 0 instructions: 21000001 cycles: 9911501 heartbeat IPC: 2.24031 cumulative IPC: 2.11875 (Simulation time: 0 hr 13 min 45 sec) 
Heartbeat CPU 0 instructions: 22000000 cycles: 10356837 heartbeat IPC: 2.24549 cumulative IPC: 2.1242 (Simulation time: 0 hr 14 min 32 sec) 
Heartbeat CPU 0 instructions: 23000000 cycles: 10798533 heartbeat IPC: 2.264 cumulative IPC: 2.12992 (Simulation time: 0 hr 15 min 15 sec) 
Heartbeat CPU 0 instructions: 24000000 cycles: 11299884 heartbeat IPC: 1.99461 cumulative IPC: 2.12392 (Simulation time: 0 hr 16 min 1 sec) 
Heartbeat CPU 0 instructions: 25000002 cycles: 11840949 heartbeat IPC: 1.84821 cumulative IPC: 2.11132 (Simulation time: 0 hr 16 min 46 sec) 
Heartbeat CPU 0 instructions: 26000002 cycles: 12480501 heartbeat IPC: 1.56359 cumulative IPC: 2.08325 (Simulation time: 0 hr 17 min 41 sec) 
Heartbeat CPU 0 instructions: 27000003 cycles: 13067303 heartbeat IPC: 1.70415 cumulative IPC: 2.06623 (Simulation time: 0 hr 18 min 24 sec) 
Heartbeat CPU 0 instructions: 28000000 cycles: 13837329 heartbeat IPC: 1.29865 cumulative IPC: 2.02351 (Simulation time: 0 hr 19 min 19 sec) 
Heartbeat CPU 0 instructions: 29000002 cycles: 14419121 heartbeat IPC: 1.71883 cumulative IPC: 2.01122 (Simulation time: 0 hr 19 min 59 sec) 
Heartbeat CPU 0 instructions: 30000003 cycles: 14839475 heartbeat IPC: 2.37895 cumulative IPC: 2.02164 (Simulation time: 0 hr 20 min 37 sec) 
Heartbeat CPU 0 instructions: 31000003 cycles: 15306023 heartbeat IPC: 2.1434 cumulative IPC: 2.02535 (Simulation time: 0 hr 21 min 20 sec) 
Heartbeat CPU 0 instructions: 32000000 cycles: 15813293 heartbeat IPC: 1.97133 cumulative IPC: 2.02361 (Simulation time: 0 hr 22 min 8 sec) 
Heartbeat CPU 0 instructions: 33000000 cycles: 16346558 heartbeat IPC: 1.87524 cumulative IPC: 2.01877 (Simulation time: 0 hr 22 min 54 sec) 
Heartbeat CPU 0 instructions: 34000003 cycles: 16845872 heartbeat IPC: 2.00275 cumulative IPC: 2.0183 (Simulation time: 0 hr 23 min 31 sec) 
Heartbeat CPU 0 instructions: 35000003 cycles: 17213787 heartbeat IPC: 2.71802 cumulative IPC: 2.03325 (Simulation time: 0 hr 24 min 5 sec) 
Heartbeat CPU 0 instructions: 36000000 cycles: 17655292 heartbeat IPC: 2.26497 cumulative IPC: 2.03905 (Simulation time: 0 hr 24 min 42 sec) 
Heartbeat CPU 0 instructions: 37000000 cycles: 18076426 heartbeat IPC: 2.37454 cumulative IPC: 2.04686 (Simulation time: 0 hr 25 min 25 sec) 
Heartbeat CPU 0 instructions: 38000003 cycles: 18460458 heartbeat IPC: 2.60396 cumulative IPC: 2.05845 (Simulation time: 0 hr 26 min 0 sec) 
Heartbeat CPU 0 instructions: 39000003 cycles: 18850950 heartbeat IPC: 2.56087 cumulative IPC: 2.06886 (Simulation time: 0 hr 26 min 30 sec) 
Heartbeat CPU 0 instructions: 40000000 cycles: 19374417 heartbeat IPC: 1.91033 cumulative IPC: 2.06458 (Simulation time: 0 hr 27 min 7 sec) 
Heartbeat CPU 0 instructions: 41000000 cycles: 19769989 heartbeat IPC: 2.52798 cumulative IPC: 2.07385 (Simulation time: 0 hr 27 min 46 sec) 
Heartbeat CPU 0 instructions: 42000001 cycles: 20188264 heartbeat IPC: 2.39077 cumulative IPC: 2.08042 (Simulation time: 0 hr 28 min 24 sec) 
Heartbeat CPU 0 instructions: 43000001 cycles: 20612979 heartbeat IPC: 2.35452 cumulative IPC: 2.08606 (Simulation time: 0 hr 29 min 6 sec) 
Heartbeat CPU 0 instructions: 44000000 cycles: 21012151 heartbeat IPC: 2.50518 cumulative IPC: 2.09403 (Simulation time: 0 hr 29 min 39 sec) 
Heartbeat CPU 0 instructions: 45000001 cycles: 21396851 heartbeat IPC: 2.59943 cumulative IPC: 2.10311 (Simulation time: 0 hr 30 min 12 sec) 
Heartbeat CPU 0 instructions: 46000000 cycles: 21882552 heartbeat IPC: 2.05888 cumulative IPC: 2.10213 (Simulation time: 0 hr 30 min 46 sec) 
Heartbeat CPU 0 instructions: 47000000 cycles: 22338455 heartbeat IPC: 2.19345 cumulative IPC: 2.104 (Simulation time: 0 hr 31 min 30 sec) 
Heartbeat CPU 0 instructions: 48000000 cycles: 22780233 heartbeat IPC: 2.26358 cumulative IPC: 2.10709 (Simulation time: 0 hr 32 min 9 sec) 
Heartbeat CPU 0 instructions: 49000001 cycles: 23195883 heartbeat IPC: 2.40587 cumulative IPC: 2.11244 (Simulation time: 0 hr 32 min 45 sec) 
Heartbeat CPU 0 instructions: 50000003 cycles: 23617144 heartbeat IPC: 2.37383 cumulative IPC: 2.11711 (Simulation time: 0 hr 33 min 24 sec) 

Warmup complete CPU 0 instructions: 50000003 cycles: 23617144 (Simulation time: 0 hr 33 min 24 sec) 

Heartbeat CPU 0 instructions: 51000003 cycles: 25873330 heartbeat IPC: 0.443226 cumulative IPC: 0.443226 (Simulation time: 0 hr 34 min 3 sec) 
Heartbeat CPU 0 instructions: 52000000 cycles: 26989635 heartbeat IPC: 0.89581 cumulative IPC: 0.593033 (Simulation time: 0 hr 34 min 35 sec) 
Heartbeat CPU 0 instructions: 53000003 cycles: 29816255 heartbeat IPC: 0.35378 cumulative IPC: 0.48394 (Simulation time: 0 hr 35 min 17 sec) 
Heartbeat CPU 0 instructions: 54000001 cycles: 33137918 heartbeat IPC: 0.301053 cumulative IPC: 0.420134 (Simulation time: 0 hr 36 min 13 sec) 
Heartbeat CPU 0 instructions: 55000001 cycles: 36341092 heartbeat IPC: 0.31219 cumulative IPC: 0.39296 (Simulation time: 0 hr 37 min 12 sec) 
Heartbeat CPU 0 instructions: 56000000 cycles: 38128663 heartbeat IPC: 0.559418 cumulative IPC: 0.413464 (Simulation time: 0 hr 37 min 54 sec) 
Heartbeat CPU 0 instructions: 57000000 cycles: 41423141 heartbeat IPC: 0.303538 cumulative IPC: 0.393126 (Simulation time: 0 hr 38 min 49 sec) 
Heartbeat CPU 0 instructions: 58000000 cycles: 43550489 heartbeat IPC: 0.470069 cumulative IPC: 0.401337 (Simulation time: 0 hr 39 min 26 sec) 
Heartbeat CPU 0 instructions: 59000001 cycles: 44654141 heartbeat IPC: 0.906084 cumulative IPC: 0.427818 (Simulation time: 0 hr 39 min 55 sec) 
Heartbeat CPU 0 instructions: 60000000 cycles: 47521141 heartbeat IPC: 0.348796 cumulative IPC: 0.41834 (Simulation time: 0 hr 40 min 40 sec) 
Heartbeat CPU 0 instructions: 61000003 cycles: 50867639 heartbeat IPC: 0.298821 cumulative IPC: 0.403662 (Simulation time: 0 hr 41 min 34 sec) 
Heartbeat CPU 0 instructions: 62000002 cycles: 54170219 heartbeat IPC: 0.302793 cumulative IPC: 0.392759 (Simulation time: 0 hr 42 min 24 sec) 
Heartbeat CPU 0 instructions: 63000001 cycles: 55729934 heartbeat IPC: 0.641142 cumulative IPC: 0.404823 (Simulation time: 0 hr 43 min 4 sec) 
Heartbeat CPU 0 instructions: 64000000 cycles: 59418788 heartbeat IPC: 0.271087 cumulative IPC: 0.391043 (Simulation time: 0 hr 44 min 1 sec) 
Heartbeat CPU 0 instructions: 65000001 cycles: 61193665 heartbeat IPC: 0.56342 cumulative IPC: 0.399185 (Simulation time: 0 hr 44 min 32 sec) 
Heartbeat CPU 0 instructions: 66000000 cycles: 62289333 heartbeat IPC: 0.912684 cumulative IPC: 0.413734 (Simulation time: 0 hr 45 min 0 sec) 
Heartbeat CPU 0 instructions: 67000003 cycles: 65269543 heartbeat IPC: 0.335548 cumulative IPC: 0.40814 (Simulation time: 0 hr 45 min 43 sec) 
Heartbeat CPU 0 instructions: 68000000 cycles: 68603466 heartbeat IPC: 0.299946 cumulative IPC: 0.400122 (Simulation time: 0 hr 46 min 35 sec) 
Heartbeat CPU 0 instructions: 69000001 cycles: 71503277 heartbeat IPC: 0.34485 cumulative IPC: 0.396775 (Simulation time: 0 hr 47 min 27 sec) 
Heartbeat CPU 0 instructions: 70000000 cycles: 73310404 heartbeat IPC: 0.553364 cumulative IPC: 0.402469 (Simulation time: 0 hr 48 min 7 sec) 
Heartbeat CPU 0 instructions: 71000001 cycles: 76647677 heartbeat IPC: 0.299646 cumulative IPC: 0.395998 (Simulation time: 0 hr 48 min 56 sec) 
Heartbeat CPU 0 instructions: 72000000 cycles: 78776897 heartbeat IPC: 0.469655 cumulative IPC: 0.398841 (Simulation time: 0 hr 49 min 30 sec) 
Heartbeat CPU 0 instructions: 73000000 cycles: 79886970 heartbeat IPC: 0.900842 cumulative IPC: 0.408745 (Simulation time: 0 hr 49 min 58 sec) 
Heartbeat CPU 0 instructions: 74000001 cycles: 82745368 heartbeat IPC: 0.349847 cumulative IPC: 0.405897 (Simulation time: 0 hr 50 min 41 sec) 
Heartbeat CPU 0 instructions: 75000003 cycles: 86071661 heartbeat IPC: 0.300636 cumulative IPC: 0.400291 (Simulation time: 0 hr 51 min 32 sec) 
Heartbeat CPU 0 instructions: 76000000 cycles: 89494025 heartbeat IPC: 0.292195 cumulative IPC: 0.394676 (Simulation time: 0 hr 52 min 24 sec) 
Heartbeat CPU 0 instructions: 77000000 cycles: 91018177 heartbeat IPC: 0.656103 cumulative IPC: 0.400587 (Simulation time: 0 hr 53 min 5 sec) 
Heartbeat CPU 0 instructions: 78000000 cycles: 94788449 heartbeat IPC: 0.265233 cumulative IPC: 0.393417 (Simulation time: 0 hr 53 min 59 sec) 
Heartbeat CPU 0 instructions: 79000002 cycles: 96471899 heartbeat IPC: 0.594019 cumulative IPC: 0.398052 (Simulation time: 0 hr 54 min 28 sec) 
Heartbeat CPU 0 instructions: 80000000 cycles: 97561252 heartbeat IPC: 0.917974 cumulative IPC: 0.405712 (Simulation time: 0 hr 54 min 57 sec) 
Heartbeat CPU 0 instructions: 81000000 cycles: 100556723 heartbeat IPC: 0.333837 cumulative IPC: 0.402914 (Simulation time: 0 hr 55 min 40 sec) 
Heartbeat CPU 0 instructions: 82000000 cycles: 103983801 heartbeat IPC: 0.291794 cumulative IPC: 0.398175 (Simulation time: 0 hr 56 min 34 sec) 
Heartbeat CPU 0 instructions: 83000000 cycles: 107377110 heartbeat IPC: 0.294698 cumulative IPC: 0.393983 (Simulation time: 0 hr 57 min 22 sec) 
Heartbeat CPU 0 instructions: 84000000 cycles: 109012870 heartbeat IPC: 0.611337 cumulative IPC: 0.398146 (Simulation time: 0 hr 58 min 3 sec) 
Heartbeat CPU 0 instructions: 85000000 cycles: 112837398 heartbeat IPC: 0.26147 cumulative IPC: 0.392288 (Simulation time: 0 hr 58 min 56 sec) 
Heartbeat CPU 0 instructions: 86000002 cycles: 114177639 heartbeat IPC: 0.746136 cumulative IPC: 0.397524 (Simulation time: 0 hr 59 min 24 sec) 
Heartbeat CPU 0 instructions: 87000002 cycles: 115264963 heartbeat IPC: 0.919689 cumulative IPC: 0.403719 (Simulation time: 0 hr 59 min 54 sec) 
Heartbeat CPU 0 instructions: 88000000 cycles: 118282499 heartbeat IPC: 0.331396 cumulative IPC: 0.401414 (Simulation time: 1 hr 0 min 38 sec) 
Heartbeat CPU 0 instructions: 89000001 cycles: 121988634 heartbeat IPC: 0.269823 cumulative IPC: 0.396456 (Simulation time: 1 hr 1 min 34 sec) 
Heartbeat CPU 0 instructions: 90000001 cycles: 125090191 heartbeat IPC: 0.322419 cumulative IPC: 0.394193 (Simulation time: 1 hr 2 min 21 sec) 
Heartbeat CPU 0 instructions: 91000002 cycles: 126877435 heartbeat IPC: 0.559521 cumulative IPC: 0.397055 (Simulation time: 1 hr 3 min 5 sec) 
Heartbeat CPU 0 instructions: 92000000 cycles: 130502161 heartbeat IPC: 0.275882 cumulative IPC: 0.392946 (Simulation time: 1 hr 3 min 57 sec) 
Heartbeat CPU 0 instructions: 93000000 cycles: 131690083 heartbeat IPC: 0.841806 cumulative IPC: 0.397879 (Simulation time: 1 hr 4 min 26 sec) 
Heartbeat CPU 0 instructions: 94000000 cycles: 132961936 heartbeat IPC: 0.786254 cumulative IPC: 0.402397 (Simulation time: 1 hr 4 min 57 sec) 
Heartbeat CPU 0 instructions: 95000002 cycles: 136058664 heartbeat IPC: 0.322922 cumulative IPC: 0.400208 (Simulation time: 1 hr 5 min 46 sec) 
Heartbeat CPU 0 instructions: 96000000 cycles: 139029188 heartbeat IPC: 0.33664 cumulative IPC: 0.398572 (Simulation time: 1 hr 6 min 40 sec) 
Heartbeat CPU 0 instructions: 97000003 cycles: 141804785 heartbeat IPC: 0.360284 cumulative IPC: 0.397673 (Simulation time: 1 hr 7 min 29 sec) 
Heartbeat CPU 0 instructions: 98000003 cycles: 144037748 heartbeat IPC: 0.447835 cumulative IPC: 0.398603 (Simulation time: 1 hr 8 min 19 sec) 
Heartbeat CPU 0 instructions: 99000000 cycles: 147275680 heartbeat IPC: 0.308838 cumulative IPC: 0.396252 (Simulation time: 1 hr 9 min 5 sec) 
Heartbeat CPU 0 instructions: 100000000 cycles: 148447743 heartbeat IPC: 0.853196 cumulative IPC: 0.400543 (Simulation time: 1 hr 9 min 35 sec) 
Heartbeat CPU 0 instructions: 101000003 cycles: 150286884 heartbeat IPC: 0.543734 cumulative IPC: 0.402622 (Simulation time: 1 hr 10 min 11 sec) 
Heartbeat CPU 0 instructions: 102000002 cycles: 153567190 heartbeat IPC: 0.304849 cumulative IPC: 0.400154 (Simulation time: 1 hr 10 min 58 sec) 
Heartbeat CPU 0 instructions: 103000000 cycles: 155663062 heartbeat IPC: 0.477127 cumulative IPC: 0.401376 (Simulation time: 1 hr 11 min 42 sec) 
Heartbeat CPU 0 instructions: 104000000 cycles: 164399686 heartbeat IPC: 0.114461 cumulative IPC: 0.38357 (Simulation time: 1 hr 12 min 44 sec) 
Heartbeat CPU 0 instructions: 105000000 cycles: 166435458 heartbeat IPC: 0.491214 cumulative IPC: 0.385105 (Simulation time: 1 hr 13 min 28 sec) 
Heartbeat CPU 0 instructions: 106000002 cycles: 170594015 heartbeat IPC: 0.240469 cumulative IPC: 0.381012 (Simulation time: 1 hr 14 min 14 sec) 
Heartbeat CPU 0 instructions: 107000003 cycles: 174886112 heartbeat IPC: 0.232987 cumulative IPC: 0.376812 (Simulation time: 1 hr 15 min 1 sec) 
Heartbeat CPU 0 instructions: 108000000 cycles: 178185159 heartbeat IPC: 0.303117 cumulative IPC: 0.375239 (Simulation time: 1 hr 15 min 42 sec) 
Heartbeat CPU 0 instructions: 109000000 cycles: 181589444 heartbeat IPC: 0.293747 cumulative IPC: 0.373483 (Simulation time: 1 hr 16 min 25 sec) 
Heartbeat CPU 0 instructions: 110000003 cycles: 185267513 heartbeat IPC: 0.271883 cumulative IPC: 0.371171 (Simulation time: 1 hr 16 min 59 sec) 
Heartbeat CPU 0 instructions: 111000002 cycles: 188844852 heartbeat IPC: 0.279537 cumulative IPC: 0.369187 (Simulation time: 1 hr 17 min 41 sec) 
Heartbeat CPU 0 instructions: 112000000 cycles: 191479948 heartbeat IPC: 0.379492 cumulative IPC: 0.369349 (Simulation time: 1 hr 18 min 18 sec) 
Heartbeat CPU 0 instructions: 113000001 cycles: 194815796 heartbeat IPC: 0.299774 cumulative IPC: 0.367994 (Simulation time: 1 hr 18 min 58 sec) 
Heartbeat CPU 0 instructions: 114000000 cycles: 196775986 heartbeat IPC: 0.510154 cumulative IPC: 0.369603 (Simulation time: 1 hr 19 min 39 sec) 
Heartbeat CPU 0 instructions: 115000002 cycles: 198071269 heartbeat IPC: 0.772034 cumulative IPC: 0.372591 (Simulation time: 1 hr 20 min 12 sec) 
Heartbeat CPU 0 instructions: 116000000 cycles: 199437743 heartbeat IPC: 0.731809 cumulative IPC: 0.375383 (Simulation time: 1 hr 20 min 41 sec) 
Heartbeat CPU 0 instructions: 117000001 cycles: 202090917 heartbeat IPC: 0.376907 cumulative IPC: 0.375405 (Simulation time: 1 hr 21 min 22 sec) 
Heartbeat CPU 0 instructions: 118000002 cycles: 204944235 heartbeat IPC: 0.35047 cumulative IPC: 0.375013 (Simulation time: 1 hr 22 min 3 sec) 
Heartbeat CPU 0 instructions: 119000001 cycles: 206899043 heartbeat IPC: 0.511559 cumulative IPC: 0.376469 (Simulation time: 1 hr 22 min 36 sec) 
Heartbeat CPU 0 instructions: 120000000 cycles: 209569997 heartbeat IPC: 0.374398 cumulative IPC: 0.376439 (Simulation time: 1 hr 23 min 7 sec) 
Heartbeat CPU 0 instructions: 121000000 cycles: 211299785 heartbeat IPC: 0.578106 cumulative IPC: 0.378298 (Simulation time: 1 hr 23 min 37 sec) 
Heartbeat CPU 0 instructions: 122000000 cycles: 215142468 heartbeat IPC: 0.260235 cumulative IPC: 0.375929 (Simulation time: 1 hr 24 min 12 sec) 
Heartbeat CPU 0 instructions: 123000001 cycles: 216366527 heartbeat IPC: 0.816955 cumulative IPC: 0.37873 (Simulation time: 1 hr 24 min 30 sec) 
Heartbeat CPU 0 instructions: 124000000 cycles: 217610715 heartbeat IPC: 0.803736 cumulative IPC: 0.381456 (Simulation time: 1 hr 24 min 47 sec) 
Heartbeat CPU 0 instructions: 125000000 cycles: 220591905 heartbeat IPC: 0.335437 cumulative IPC: 0.380759 (Simulation time: 1 hr 25 min 15 sec) 
Heartbeat CPU 0 instructions: 126000000 cycles: 224614875 heartbeat IPC: 0.248573 cumulative IPC: 0.378114 (Simulation time: 1 hr 25 min 49 sec) 
Heartbeat CPU 0 instructions: 127000003 cycles: 226997622 heartbeat IPC: 0.419685 cumulative IPC: 0.378601 (Simulation time: 1 hr 26 min 12 sec) 
Heartbeat CPU 0 instructions: 128000000 cycles: 229834536 heartbeat IPC: 0.352495 cumulative IPC: 0.378242 (Simulation time: 1 hr 26 min 39 sec) 
Heartbeat CPU 0 instructions: 129000000 cycles: 232518315 heartbeat IPC: 0.372609 cumulative IPC: 0.378169 (Simulation time: 1 hr 27 min 2 sec) 
Heartbeat CPU 0 instructions: 130000003 cycles: 233662790 heartbeat IPC: 0.873766 cumulative IPC: 0.38087 (Simulation time: 1 hr 27 min 20 sec) 
Heartbeat CPU 0 instructions: 131000001 cycles: 236151537 heartbeat IPC: 0.401808 cumulative IPC: 0.381115 (Simulation time: 1 hr 27 min 40 sec) 
Heartbeat CPU 0 instructions: 132000000 cycles: 239381210 heartbeat IPC: 0.309629 cumulative IPC: 0.380045 (Simulation time: 1 hr 28 min 8 sec) 
Heartbeat CPU 0 instructions: 133000000 cycles: 242251843 heartbeat IPC: 0.348355 cumulative IPC: 0.379629 (Simulation time: 1 hr 28 min 31 sec) 
Heartbeat CPU 0 instructions: 134000002 cycles: 243837726 heartbeat IPC: 0.630565 cumulative IPC: 0.381436 (Simulation time: 1 hr 28 min 52 sec) 
Heartbeat CPU 0 instructions: 135000002 cycles: 247655701 heartbeat IPC: 0.261919 cumulative IPC: 0.379399 (Simulation time: 1 hr 29 min 20 sec) 
Heartbeat CPU 0 instructions: 136000000 cycles: 249422129 heartbeat IPC: 0.566113 cumulative IPC: 0.38086 (Simulation time: 1 hr 29 min 35 sec) 
Heartbeat CPU 0 instructions: 137000000 cycles: 250525613 heartbeat IPC: 0.906221 cumulative IPC: 0.383415 (Simulation time: 1 hr 29 min 50 sec) 
Heartbeat CPU 0 instructions: 138000003 cycles: 253519402 heartbeat IPC: 0.334026 cumulative IPC: 0.382771 (Simulation time: 1 hr 30 min 11 sec) 
Heartbeat CPU 0 instructions: 139000000 cycles: 256733983 heartbeat IPC: 0.311082 cumulative IPC: 0.381783 (Simulation time: 1 hr 30 min 34 sec) 
Heartbeat CPU 0 instructions: 140000000 cycles: 258887046 heartbeat IPC: 0.464455 cumulative IPC: 0.382539 (Simulation time: 1 hr 30 min 52 sec) 
Heartbeat CPU 0 instructions: 141000002 cycles: 260600045 heartbeat IPC: 0.583773 cumulative IPC: 0.383994 (Simulation time: 1 hr 31 min 9 sec) 
Heartbeat CPU 0 instructions: 142000001 cycles: 264186534 heartbeat IPC: 0.278824 cumulative IPC: 0.382426 (Simulation time: 1 hr 31 min 32 sec) 
Heartbeat CPU 0 instructions: 143000003 cycles: 266174724 heartbeat IPC: 0.502971 cumulative IPC: 0.383414 (Simulation time: 1 hr 31 min 47 sec) 
Heartbeat CPU 0 instructions: 144000000 cycles: 267278815 heartbeat IPC: 0.90572 cumulative IPC: 0.385781 (Simulation time: 1 hr 31 min 59 sec) 
Heartbeat CPU 0 instructions: 145000000 cycles: 270221969 heartbeat IPC: 0.339772 cumulative IPC: 0.385232 (Simulation time: 1 hr 32 min 17 sec) 
Heartbeat CPU 0 instructions: 146000003 cycles: 273477465 heartbeat IPC: 0.307174 cumulative IPC: 0.384215 (Simulation time: 1 hr 32 min 37 sec) 
Heartbeat CPU 0 instructions: 147000000 cycles: 275538904 heartbeat IPC: 0.485097 cumulative IPC: 0.38504 (Simulation time: 1 hr 32 min 52 sec) 
Heartbeat CPU 0 instructions: 148000000 cycles: 277063363 heartbeat IPC: 0.65597 cumulative IPC: 0.38667 (Simulation time: 1 hr 33 min 6 sec) 
Heartbeat CPU 0 instructions: 149000001 cycles: 280928043 heartbeat IPC: 0.258754 cumulative IPC: 0.384749 (Simulation time: 1 hr 33 min 25 sec) 
Heartbeat CPU 0 instructions: 150000002 cycles: 282623719 heartbeat IPC: 0.589736 cumulative IPC: 0.386091 (Simulation time: 1 hr 33 min 36 sec) 
Finished CPU 0 instructions: 100000002 cycles: 259006577 cummulative IPC: 0.386091 (Simulation time: 1 hr 33 min 36 sec) 

ChampSim completed all CPUs

Region of Interest Statistics

CPU 0 cummulative IPC: 0.386091 instructions: 100000002 cycles: 259006577
LLC TOTAL     ACCESS:    8437783  HIT:    4580275  MISS:    3857508
LLC LOAD      ACCESS:    2159203  HIT:    1016756  MISS:    1142447
LLC RFO       ACCESS:     775964  HIT:     255391  MISS:     520573
LLC PREFETCH  ACCESS:    3416722  HIT:    1614896  MISS:    1801826
LLC WRITEBACK ACCESS:    2085894  HIT:    1693232  MISS:     392662
OPTgen accesses: 69933
OPTgen hits: 47344
OPTgen hit rate: 67.6991


