
*** ChampSim Multicore Out-of-Order Simulator ***

Warmup Instructions: 50000000
Simulation Instructions: 100000000
Configuration: 2
Number of CPUs: 1
LLC sets: 2048
LLC ways: 16
Off-chip DRAM Channels: 1 Width: 64-bit Data Rate: 1600 MT/s

CPU 0 runs /datasets/cs240c-wi22-a00-public/data/Assignment2-gz/perlbench_135B.trace.gz
CPU 0 L1D next line prefetcher
CPU 0 L2C IP-based stride prefetcher
Initialize Hawkeye state
Heartbeat CPU 0 instructions: 1000000 cycles: 600033 heartbeat IPC: 1.66657 cumulative IPC: 1.66657 (Simulation time: 0 hr 0 min 45 sec) 
Heartbeat CPU 0 instructions: 2000000 cycles: 1209301 heartbeat IPC: 1.64131 cumulative IPC: 1.65385 (Simulation time: 0 hr 1 min 28 sec) 
Heartbeat CPU 0 instructions: 3000000 cycles: 1832834 heartbeat IPC: 1.60376 cumulative IPC: 1.63681 (Simulation time: 0 hr 2 min 13 sec) 
Heartbeat CPU 0 instructions: 4000000 cycles: 2492639 heartbeat IPC: 1.5156 cumulative IPC: 1.60473 (Simulation time: 0 hr 2 min 57 sec) 
Heartbeat CPU 0 instructions: 5000001 cycles: 3079302 heartbeat IPC: 1.70456 cumulative IPC: 1.62374 (Simulation time: 0 hr 3 min 38 sec) 
Heartbeat CPU 0 instructions: 6000002 cycles: 3681731 heartbeat IPC: 1.65995 cumulative IPC: 1.62967 (Simulation time: 0 hr 4 min 20 sec) 
Heartbeat CPU 0 instructions: 7000001 cycles: 4282509 heartbeat IPC: 1.66451 cumulative IPC: 1.63456 (Simulation time: 0 hr 5 min 4 sec) 
Heartbeat CPU 0 instructions: 8000000 cycles: 4893000 heartbeat IPC: 1.63802 cumulative IPC: 1.63499 (Simulation time: 0 hr 5 min 46 sec) 
Heartbeat CPU 0 instructions: 9000001 cycles: 5534129 heartbeat IPC: 1.55975 cumulative IPC: 1.62627 (Simulation time: 0 hr 6 min 29 sec) 
Heartbeat CPU 0 instructions: 10000000 cycles: 6192840 heartbeat IPC: 1.51811 cumulative IPC: 1.61477 (Simulation time: 0 hr 7 min 16 sec) 
Heartbeat CPU 0 instructions: 11000003 cycles: 6888953 heartbeat IPC: 1.43655 cumulative IPC: 1.59676 (Simulation time: 0 hr 8 min 5 sec) 
Heartbeat CPU 0 instructions: 12000000 cycles: 7505167 heartbeat IPC: 1.62281 cumulative IPC: 1.5989 (Simulation time: 0 hr 8 min 46 sec) 
Heartbeat CPU 0 instructions: 13000000 cycles: 8134120 heartbeat IPC: 1.58994 cumulative IPC: 1.59821 (Simulation time: 0 hr 9 min 36 sec) 
Heartbeat CPU 0 instructions: 14000002 cycles: 8774601 heartbeat IPC: 1.56133 cumulative IPC: 1.59551 (Simulation time: 0 hr 10 min 22 sec) 
Heartbeat CPU 0 instructions: 15000003 cycles: 9413475 heartbeat IPC: 1.56526 cumulative IPC: 1.59346 (Simulation time: 0 hr 11 min 8 sec) 
Heartbeat CPU 0 instructions: 16000000 cycles: 10053311 heartbeat IPC: 1.5629 cumulative IPC: 1.59152 (Simulation time: 0 hr 11 min 53 sec) 
Heartbeat CPU 0 instructions: 17000000 cycles: 10694467 heartbeat IPC: 1.55968 cumulative IPC: 1.58961 (Simulation time: 0 hr 12 min 39 sec) 
Heartbeat CPU 0 instructions: 18000000 cycles: 11335137 heartbeat IPC: 1.56087 cumulative IPC: 1.58798 (Simulation time: 0 hr 13 min 23 sec) 
Heartbeat CPU 0 instructions: 19000003 cycles: 11972217 heartbeat IPC: 1.56967 cumulative IPC: 1.58701 (Simulation time: 0 hr 14 min 10 sec) 
Heartbeat CPU 0 instructions: 20000000 cycles: 12611056 heartbeat IPC: 1.56533 cumulative IPC: 1.58591 (Simulation time: 0 hr 14 min 54 sec) 
Heartbeat CPU 0 instructions: 21000000 cycles: 13246420 heartbeat IPC: 1.5739 cumulative IPC: 1.58533 (Simulation time: 0 hr 15 min 38 sec) 
Heartbeat CPU 0 instructions: 22000002 cycles: 13885165 heartbeat IPC: 1.56557 cumulative IPC: 1.58442 (Simulation time: 0 hr 16 min 22 sec) 
Heartbeat CPU 0 instructions: 23000003 cycles: 14552678 heartbeat IPC: 1.4981 cumulative IPC: 1.58047 (Simulation time: 0 hr 17 min 6 sec) 
Heartbeat CPU 0 instructions: 24000000 cycles: 15116446 heartbeat IPC: 1.77377 cumulative IPC: 1.58767 (Simulation time: 0 hr 17 min 46 sec) 
Heartbeat CPU 0 instructions: 25000000 cycles: 15773351 heartbeat IPC: 1.52229 cumulative IPC: 1.58495 (Simulation time: 0 hr 18 min 30 sec) 
Heartbeat CPU 0 instructions: 26000001 cycles: 16389265 heartbeat IPC: 1.6236 cumulative IPC: 1.5864 (Simulation time: 0 hr 19 min 13 sec) 
Heartbeat CPU 0 instructions: 27000000 cycles: 17029491 heartbeat IPC: 1.56195 cumulative IPC: 1.58548 (Simulation time: 0 hr 20 min 0 sec) 
Heartbeat CPU 0 instructions: 28000000 cycles: 17670199 heartbeat IPC: 1.56077 cumulative IPC: 1.58459 (Simulation time: 0 hr 20 min 47 sec) 
Heartbeat CPU 0 instructions: 29000000 cycles: 18307729 heartbeat IPC: 1.56855 cumulative IPC: 1.58403 (Simulation time: 0 hr 21 min 37 sec) 
Heartbeat CPU 0 instructions: 30000002 cycles: 18953365 heartbeat IPC: 1.54886 cumulative IPC: 1.58283 (Simulation time: 0 hr 22 min 20 sec) 
Heartbeat CPU 0 instructions: 31000001 cycles: 19589975 heartbeat IPC: 1.57082 cumulative IPC: 1.58244 (Simulation time: 0 hr 23 min 4 sec) 
Heartbeat CPU 0 instructions: 32000000 cycles: 20230145 heartbeat IPC: 1.56208 cumulative IPC: 1.5818 (Simulation time: 0 hr 23 min 47 sec) 
Heartbeat CPU 0 instructions: 33000000 cycles: 20865466 heartbeat IPC: 1.57401 cumulative IPC: 1.58156 (Simulation time: 0 hr 24 min 29 sec) 
Heartbeat CPU 0 instructions: 34000001 cycles: 21501799 heartbeat IPC: 1.57151 cumulative IPC: 1.58126 (Simulation time: 0 hr 25 min 15 sec) 
Heartbeat CPU 0 instructions: 35000003 cycles: 22157549 heartbeat IPC: 1.52497 cumulative IPC: 1.5796 (Simulation time: 0 hr 26 min 4 sec) 
Heartbeat CPU 0 instructions: 36000000 cycles: 22756610 heartbeat IPC: 1.66927 cumulative IPC: 1.58196 (Simulation time: 0 hr 26 min 47 sec) 
Heartbeat CPU 0 instructions: 37000000 cycles: 23371585 heartbeat IPC: 1.62608 cumulative IPC: 1.58312 (Simulation time: 0 hr 27 min 29 sec) 
Heartbeat CPU 0 instructions: 38000002 cycles: 23943835 heartbeat IPC: 1.74749 cumulative IPC: 1.58705 (Simulation time: 0 hr 28 min 11 sec) 
Heartbeat CPU 0 instructions: 39000000 cycles: 24547817 heartbeat IPC: 1.65568 cumulative IPC: 1.58874 (Simulation time: 0 hr 28 min 53 sec) 
Heartbeat CPU 0 instructions: 40000000 cycles: 25099328 heartbeat IPC: 1.8132 cumulative IPC: 1.59367 (Simulation time: 0 hr 29 min 34 sec) 
Heartbeat CPU 0 instructions: 41000001 cycles: 25665873 heartbeat IPC: 1.76509 cumulative IPC: 1.59745 (Simulation time: 0 hr 30 min 15 sec) 
Heartbeat CPU 0 instructions: 42000003 cycles: 26303470 heartbeat IPC: 1.56839 cumulative IPC: 1.59675 (Simulation time: 0 hr 30 min 59 sec) 
Heartbeat CPU 0 instructions: 43000001 cycles: 26969561 heartbeat IPC: 1.50129 cumulative IPC: 1.59439 (Simulation time: 0 hr 31 min 44 sec) 
Heartbeat CPU 0 instructions: 44000000 cycles: 27581740 heartbeat IPC: 1.63351 cumulative IPC: 1.59526 (Simulation time: 0 hr 32 min 28 sec) 
Heartbeat CPU 0 instructions: 45000003 cycles: 28227619 heartbeat IPC: 1.54828 cumulative IPC: 1.59418 (Simulation time: 0 hr 33 min 11 sec) 
Heartbeat CPU 0 instructions: 46000000 cycles: 28867239 heartbeat IPC: 1.56342 cumulative IPC: 1.5935 (Simulation time: 0 hr 33 min 55 sec) 
Heartbeat CPU 0 instructions: 47000000 cycles: 29506361 heartbeat IPC: 1.56465 cumulative IPC: 1.59288 (Simulation time: 0 hr 34 min 37 sec) 
Heartbeat CPU 0 instructions: 48000000 cycles: 30146516 heartbeat IPC: 1.56212 cumulative IPC: 1.59222 (Simulation time: 0 hr 35 min 19 sec) 
Heartbeat CPU 0 instructions: 49000003 cycles: 30788444 heartbeat IPC: 1.55781 cumulative IPC: 1.59151 (Simulation time: 0 hr 36 min 3 sec) 
Heartbeat CPU 0 instructions: 50000001 cycles: 31428050 heartbeat IPC: 1.56346 cumulative IPC: 1.59094 (Simulation time: 0 hr 36 min 47 sec) 

Warmup complete CPU 0 instructions: 50000001 cycles: 31428050 (Simulation time: 0 hr 36 min 47 sec) 

Heartbeat CPU 0 instructions: 51000000 cycles: 34046820 heartbeat IPC: 0.381858 cumulative IPC: 0.381858 (Simulation time: 0 hr 37 min 40 sec) 
Heartbeat CPU 0 instructions: 52000000 cycles: 36657458 heartbeat IPC: 0.383048 cumulative IPC: 0.382452 (Simulation time: 0 hr 38 min 31 sec) 
Heartbeat CPU 0 instructions: 53000000 cycles: 39241651 heartbeat IPC: 0.386968 cumulative IPC: 0.383946 (Simulation time: 0 hr 39 min 22 sec) 
Heartbeat CPU 0 instructions: 54000001 cycles: 41881313 heartbeat IPC: 0.378837 cumulative IPC: 0.382656 (Simulation time: 0 hr 40 min 11 sec) 
Heartbeat CPU 0 instructions: 55000001 cycles: 44328392 heartbeat IPC: 0.40865 cumulative IPC: 0.387587 (Simulation time: 0 hr 41 min 5 sec) 
Heartbeat CPU 0 instructions: 56000000 cycles: 46452024 heartbeat IPC: 0.470891 cumulative IPC: 0.399362 (Simulation time: 0 hr 41 min 53 sec) 
Heartbeat CPU 0 instructions: 57000000 cycles: 48653738 heartbeat IPC: 0.454192 cumulative IPC: 0.40637 (Simulation time: 0 hr 42 min 43 sec) 
Heartbeat CPU 0 instructions: 58000002 cycles: 50601527 heartbeat IPC: 0.513404 cumulative IPC: 0.417243 (Simulation time: 0 hr 43 min 26 sec) 
Heartbeat CPU 0 instructions: 59000003 cycles: 52719070 heartbeat IPC: 0.472246 cumulative IPC: 0.422714 (Simulation time: 0 hr 44 min 14 sec) 
Heartbeat CPU 0 instructions: 60000000 cycles: 55766103 heartbeat IPC: 0.328187 cumulative IPC: 0.410879 (Simulation time: 0 hr 45 min 4 sec) 
Heartbeat CPU 0 instructions: 61000000 cycles: 58188986 heartbeat IPC: 0.412731 cumulative IPC: 0.411047 (Simulation time: 0 hr 45 min 54 sec) 
Heartbeat CPU 0 instructions: 62000001 cycles: 61028293 heartbeat IPC: 0.352199 cumulative IPC: 0.405402 (Simulation time: 0 hr 46 min 43 sec) 
Heartbeat CPU 0 instructions: 63000000 cycles: 64027384 heartbeat IPC: 0.333434 cumulative IPC: 0.398781 (Simulation time: 0 hr 47 min 39 sec) 
Heartbeat CPU 0 instructions: 64000000 cycles: 67072227 heartbeat IPC: 0.328424 cumulative IPC: 0.392771 (Simulation time: 0 hr 48 min 27 sec) 
Heartbeat CPU 0 instructions: 65000001 cycles: 70020270 heartbeat IPC: 0.339208 cumulative IPC: 0.388679 (Simulation time: 0 hr 49 min 17 sec) 
Heartbeat CPU 0 instructions: 66000001 cycles: 72928195 heartbeat IPC: 0.343888 cumulative IPC: 0.385541 (Simulation time: 0 hr 50 min 4 sec) 
Heartbeat CPU 0 instructions: 67000001 cycles: 75672646 heartbeat IPC: 0.364372 cumulative IPC: 0.384228 (Simulation time: 0 hr 50 min 51 sec) 
Heartbeat CPU 0 instructions: 68000000 cycles: 78410535 heartbeat IPC: 0.365245 cumulative IPC: 0.383121 (Simulation time: 0 hr 51 min 41 sec) 
Heartbeat CPU 0 instructions: 69000002 cycles: 81380555 heartbeat IPC: 0.336699 cumulative IPC: 0.380361 (Simulation time: 0 hr 52 min 35 sec) 
Heartbeat CPU 0 instructions: 70000003 cycles: 83194731 heartbeat IPC: 0.551215 cumulative IPC: 0.386349 (Simulation time: 0 hr 53 min 16 sec) 
Heartbeat CPU 0 instructions: 71000000 cycles: 85114476 heartbeat IPC: 0.520901 cumulative IPC: 0.39116 (Simulation time: 0 hr 53 min 56 sec) 
Heartbeat CPU 0 instructions: 72000000 cycles: 87106453 heartbeat IPC: 0.502014 cumulative IPC: 0.395126 (Simulation time: 0 hr 54 min 38 sec) 
Heartbeat CPU 0 instructions: 73000000 cycles: 89377413 heartbeat IPC: 0.440342 cumulative IPC: 0.396898 (Simulation time: 0 hr 55 min 24 sec) 
Heartbeat CPU 0 instructions: 74000000 cycles: 91295959 heartbeat IPC: 0.521228 cumulative IPC: 0.400883 (Simulation time: 0 hr 56 min 5 sec) 
Heartbeat CPU 0 instructions: 75000003 cycles: 93542666 heartbeat IPC: 0.445097 cumulative IPC: 0.402482 (Simulation time: 0 hr 56 min 49 sec) 
Heartbeat CPU 0 instructions: 76000000 cycles: 96294429 heartbeat IPC: 0.363402 cumulative IPC: 0.400824 (Simulation time: 0 hr 57 min 36 sec) 
Heartbeat CPU 0 instructions: 77000000 cycles: 98993466 heartbeat IPC: 0.370503 cumulative IPC: 0.399613 (Simulation time: 0 hr 58 min 22 sec) 
Heartbeat CPU 0 instructions: 78000000 cycles: 101951085 heartbeat IPC: 0.33811 cumulative IPC: 0.397033 (Simulation time: 0 hr 59 min 15 sec) 
Heartbeat CPU 0 instructions: 79000000 cycles: 103811123 heartbeat IPC: 0.537623 cumulative IPC: 0.400646 (Simulation time: 1 hr 0 min 0 sec) 
Heartbeat CPU 0 instructions: 80000000 cycles: 105598277 heartbeat IPC: 0.559549 cumulative IPC: 0.404475 (Simulation time: 1 hr 0 min 41 sec) 
Heartbeat CPU 0 instructions: 81000000 cycles: 107519673 heartbeat IPC: 0.520455 cumulative IPC: 0.407404 (Simulation time: 1 hr 1 min 22 sec) 
Heartbeat CPU 0 instructions: 82000000 cycles: 109437212 heartbeat IPC: 0.521502 cumulative IPC: 0.410208 (Simulation time: 1 hr 2 min 5 sec) 
Heartbeat CPU 0 instructions: 83000000 cycles: 111769638 heartbeat IPC: 0.428738 cumulative IPC: 0.410746 (Simulation time: 1 hr 2 min 53 sec) 
Heartbeat CPU 0 instructions: 84000000 cycles: 113721423 heartbeat IPC: 0.512352 cumulative IPC: 0.413156 (Simulation time: 1 hr 3 min 36 sec) 
Heartbeat CPU 0 instructions: 85000000 cycles: 115642438 heartbeat IPC: 0.520558 cumulative IPC: 0.415606 (Simulation time: 1 hr 4 min 20 sec) 
Heartbeat CPU 0 instructions: 86000002 cycles: 117560967 heartbeat IPC: 0.521234 cumulative IPC: 0.417959 (Simulation time: 1 hr 5 min 2 sec) 
Heartbeat CPU 0 instructions: 87000003 cycles: 119732701 heartbeat IPC: 0.460462 cumulative IPC: 0.419004 (Simulation time: 1 hr 5 min 45 sec) 
Heartbeat CPU 0 instructions: 88000000 cycles: 122519773 heartbeat IPC: 0.358798 cumulative IPC: 0.417162 (Simulation time: 1 hr 6 min 36 sec) 
Heartbeat CPU 0 instructions: 89000003 cycles: 125090304 heartbeat IPC: 0.389026 cumulative IPC: 0.41639 (Simulation time: 1 hr 7 min 26 sec) 
Heartbeat CPU 0 instructions: 90000001 cycles: 127979711 heartbeat IPC: 0.346091 cumulative IPC: 0.414286 (Simulation time: 1 hr 8 min 20 sec) 
Heartbeat CPU 0 instructions: 91000000 cycles: 130466799 heartbeat IPC: 0.402076 cumulative IPC: 0.413979 (Simulation time: 1 hr 9 min 5 sec) 
Heartbeat CPU 0 instructions: 92000000 cycles: 132925434 heartbeat IPC: 0.40673 cumulative IPC: 0.413804 (Simulation time: 1 hr 9 min 50 sec) 
Heartbeat CPU 0 instructions: 93000000 cycles: 135635682 heartbeat IPC: 0.36897 cumulative IPC: 0.412638 (Simulation time: 1 hr 10 min 35 sec) 
Heartbeat CPU 0 instructions: 94000001 cycles: 138293855 heartbeat IPC: 0.376199 cumulative IPC: 0.411731 (Simulation time: 1 hr 11 min 22 sec) 
Heartbeat CPU 0 instructions: 95000000 cycles: 141147089 heartbeat IPC: 0.350479 cumulative IPC: 0.410138 (Simulation time: 1 hr 12 min 5 sec) 
Heartbeat CPU 0 instructions: 96000000 cycles: 144242228 heartbeat IPC: 0.323087 cumulative IPC: 0.40775 (Simulation time: 1 hr 12 min 50 sec) 
Heartbeat CPU 0 instructions: 97000001 cycles: 147260885 heartbeat IPC: 0.331273 cumulative IPC: 0.405757 (Simulation time: 1 hr 13 min 40 sec) 
Heartbeat CPU 0 instructions: 98000000 cycles: 149928782 heartbeat IPC: 0.374827 cumulative IPC: 0.405061 (Simulation time: 1 hr 14 min 20 sec) 
Heartbeat CPU 0 instructions: 99000000 cycles: 152529176 heartbeat IPC: 0.384557 cumulative IPC: 0.40462 (Simulation time: 1 hr 15 min 1 sec) 
Heartbeat CPU 0 instructions: 100000000 cycles: 155154792 heartbeat IPC: 0.380863 cumulative IPC: 0.404116 (Simulation time: 1 hr 15 min 44 sec) 
Heartbeat CPU 0 instructions: 101000001 cycles: 157757744 heartbeat IPC: 0.38418 cumulative IPC: 0.403706 (Simulation time: 1 hr 16 min 24 sec) 
Heartbeat CPU 0 instructions: 102000000 cycles: 160392367 heartbeat IPC: 0.379561 cumulative IPC: 0.403212 (Simulation time: 1 hr 17 min 1 sec) 
Heartbeat CPU 0 instructions: 103000000 cycles: 163051610 heartbeat IPC: 0.376047 cumulative IPC: 0.402663 (Simulation time: 1 hr 17 min 44 sec) 
Heartbeat CPU 0 instructions: 104000000 cycles: 165773417 heartbeat IPC: 0.367403 cumulative IPC: 0.401949 (Simulation time: 1 hr 18 min 27 sec) 
Heartbeat CPU 0 instructions: 105000001 cycles: 168378427 heartbeat IPC: 0.383876 cumulative IPC: 0.401605 (Simulation time: 1 hr 19 min 4 sec) 
Heartbeat CPU 0 instructions: 106000001 cycles: 170997298 heartbeat IPC: 0.381844 cumulative IPC: 0.401235 (Simulation time: 1 hr 19 min 40 sec) 
Heartbeat CPU 0 instructions: 107000000 cycles: 173612098 heartbeat IPC: 0.382438 cumulative IPC: 0.400889 (Simulation time: 1 hr 20 min 18 sec) 
Heartbeat CPU 0 instructions: 108000000 cycles: 176223660 heartbeat IPC: 0.382913 cumulative IPC: 0.400565 (Simulation time: 1 hr 20 min 56 sec) 
Heartbeat CPU 0 instructions: 109000001 cycles: 178796831 heartbeat IPC: 0.388626 cumulative IPC: 0.400356 (Simulation time: 1 hr 21 min 38 sec) 
Heartbeat CPU 0 instructions: 110000003 cycles: 180961514 heartbeat IPC: 0.461962 cumulative IPC: 0.401248 (Simulation time: 1 hr 22 min 10 sec) 
Heartbeat CPU 0 instructions: 111000000 cycles: 183378137 heartbeat IPC: 0.413799 cumulative IPC: 0.401448 (Simulation time: 1 hr 22 min 44 sec) 
Heartbeat CPU 0 instructions: 112000000 cycles: 186198249 heartbeat IPC: 0.354596 cumulative IPC: 0.400594 (Simulation time: 1 hr 23 min 21 sec) 
Heartbeat CPU 0 instructions: 113000000 cycles: 188874028 heartbeat IPC: 0.373723 cumulative IPC: 0.400137 (Simulation time: 1 hr 23 min 53 sec) 
Heartbeat CPU 0 instructions: 114000002 cycles: 191443562 heartbeat IPC: 0.389176 cumulative IPC: 0.399961 (Simulation time: 1 hr 24 min 26 sec) 
Heartbeat CPU 0 instructions: 115000001 cycles: 194058710 heartbeat IPC: 0.382387 cumulative IPC: 0.399679 (Simulation time: 1 hr 24 min 56 sec) 
Heartbeat CPU 0 instructions: 116000000 cycles: 196646495 heartbeat IPC: 0.38643 cumulative IPC: 0.399471 (Simulation time: 1 hr 25 min 26 sec) 
Heartbeat CPU 0 instructions: 117000002 cycles: 199222248 heartbeat IPC: 0.388237 cumulative IPC: 0.399299 (Simulation time: 1 hr 25 min 55 sec) 
Heartbeat CPU 0 instructions: 118000001 cycles: 201727703 heartbeat IPC: 0.399129 cumulative IPC: 0.399296 (Simulation time: 1 hr 26 min 24 sec) 
Heartbeat CPU 0 instructions: 119000000 cycles: 203723046 heartbeat IPC: 0.501166 cumulative IPC: 0.400476 (Simulation time: 1 hr 26 min 47 sec) 
Heartbeat CPU 0 instructions: 120000000 cycles: 206567593 heartbeat IPC: 0.35155 cumulative IPC: 0.399681 (Simulation time: 1 hr 27 min 13 sec) 
Heartbeat CPU 0 instructions: 121000001 cycles: 209220196 heartbeat IPC: 0.376989 cumulative IPC: 0.399343 (Simulation time: 1 hr 27 min 38 sec) 
Heartbeat CPU 0 instructions: 122000002 cycles: 212076049 heartbeat IPC: 0.350158 cumulative IPC: 0.398565 (Simulation time: 1 hr 28 min 3 sec) 
Heartbeat CPU 0 instructions: 123000001 cycles: 214869917 heartbeat IPC: 0.357926 cumulative IPC: 0.397946 (Simulation time: 1 hr 28 min 28 sec) 
Heartbeat CPU 0 instructions: 124000000 cycles: 217415768 heartbeat IPC: 0.392796 cumulative IPC: 0.397876 (Simulation time: 1 hr 28 min 51 sec) 
Heartbeat CPU 0 instructions: 125000003 cycles: 219381208 heartbeat IPC: 0.508793 cumulative IPC: 0.399036 (Simulation time: 1 hr 29 min 13 sec) 
Heartbeat CPU 0 instructions: 126000000 cycles: 221302946 heartbeat IPC: 0.520361 cumulative IPC: 0.400264 (Simulation time: 1 hr 29 min 34 sec) 
Heartbeat CPU 0 instructions: 127000001 cycles: 223703855 heartbeat IPC: 0.416509 cumulative IPC: 0.400466 (Simulation time: 1 hr 29 min 56 sec) 
Heartbeat CPU 0 instructions: 128000000 cycles: 225693646 heartbeat IPC: 0.502565 cumulative IPC: 0.401512 (Simulation time: 1 hr 30 min 16 sec) 
Heartbeat CPU 0 instructions: 129000000 cycles: 227616425 heartbeat IPC: 0.520081 cumulative IPC: 0.402674 (Simulation time: 1 hr 30 min 36 sec) 
Heartbeat CPU 0 instructions: 130000001 cycles: 230381733 heartbeat IPC: 0.361624 cumulative IPC: 0.402104 (Simulation time: 1 hr 30 min 58 sec) 
Heartbeat CPU 0 instructions: 131000003 cycles: 233052073 heartbeat IPC: 0.374485 cumulative IPC: 0.401738 (Simulation time: 1 hr 31 min 19 sec) 
Heartbeat CPU 0 instructions: 132000000 cycles: 235770052 heartbeat IPC: 0.367919 cumulative IPC: 0.401288 (Simulation time: 1 hr 31 min 40 sec) 
Heartbeat CPU 0 instructions: 133000002 cycles: 238703082 heartbeat IPC: 0.340945 cumulative IPC: 0.400434 (Simulation time: 1 hr 31 min 59 sec) 
Heartbeat CPU 0 instructions: 134000000 cycles: 241737198 heartbeat IPC: 0.329585 cumulative IPC: 0.399412 (Simulation time: 1 hr 32 min 20 sec) 
Heartbeat CPU 0 instructions: 135000002 cycles: 244295890 heartbeat IPC: 0.390825 cumulative IPC: 0.399309 (Simulation time: 1 hr 32 min 43 sec) 
Heartbeat CPU 0 instructions: 136000000 cycles: 247142173 heartbeat IPC: 0.351335 cumulative IPC: 0.398676 (Simulation time: 1 hr 33 min 1 sec) 
Heartbeat CPU 0 instructions: 137000003 cycles: 249913997 heartbeat IPC: 0.360774 cumulative IPC: 0.398195 (Simulation time: 1 hr 33 min 21 sec) 
Heartbeat CPU 0 instructions: 138000000 cycles: 252644412 heartbeat IPC: 0.366244 cumulative IPC: 0.397801 (Simulation time: 1 hr 33 min 39 sec) 
Heartbeat CPU 0 instructions: 139000001 cycles: 254915090 heartbeat IPC: 0.440398 cumulative IPC: 0.398233 (Simulation time: 1 hr 33 min 55 sec) 
Heartbeat CPU 0 instructions: 140000000 cycles: 257553169 heartbeat IPC: 0.379063 cumulative IPC: 0.39801 (Simulation time: 1 hr 34 min 11 sec) 
Heartbeat CPU 0 instructions: 141000000 cycles: 260309587 heartbeat IPC: 0.36279 cumulative IPC: 0.397586 (Simulation time: 1 hr 34 min 25 sec) 
Heartbeat CPU 0 instructions: 142000000 cycles: 263064385 heartbeat IPC: 0.363003 cumulative IPC: 0.397174 (Simulation time: 1 hr 34 min 40 sec) 
Heartbeat CPU 0 instructions: 143000000 cycles: 265707309 heartbeat IPC: 0.378369 cumulative IPC: 0.396962 (Simulation time: 1 hr 34 min 52 sec) 
Heartbeat CPU 0 instructions: 144000000 cycles: 267906327 heartbeat IPC: 0.454748 cumulative IPC: 0.3975 (Simulation time: 1 hr 35 min 4 sec) 
Heartbeat CPU 0 instructions: 145000002 cycles: 270124985 heartbeat IPC: 0.450724 cumulative IPC: 0.397994 (Simulation time: 1 hr 35 min 15 sec) 
Heartbeat CPU 0 instructions: 146000001 cycles: 272138158 heartbeat IPC: 0.496728 cumulative IPC: 0.39882 (Simulation time: 1 hr 35 min 24 sec) 
Heartbeat CPU 0 instructions: 147000001 cycles: 274865260 heartbeat IPC: 0.36669 cumulative IPC: 0.39846 (Simulation time: 1 hr 35 min 36 sec) 
Heartbeat CPU 0 instructions: 148000000 cycles: 277447291 heartbeat IPC: 0.387292 cumulative IPC: 0.398343 (Simulation time: 1 hr 35 min 49 sec) 
Heartbeat CPU 0 instructions: 149000000 cycles: 280089568 heartbeat IPC: 0.378461 cumulative IPC: 0.398132 (Simulation time: 1 hr 36 min 0 sec) 
Heartbeat CPU 0 instructions: 150000001 cycles: 282832780 heartbeat IPC: 0.364537 cumulative IPC: 0.397765 (Simulation time: 1 hr 36 min 11 sec) 
Finished CPU 0 instructions: 100000000 cycles: 251404730 cummulative IPC: 0.397765 (Simulation time: 1 hr 36 min 11 sec) 

ChampSim completed all CPUs

Region of Interest Statistics

CPU 0 cummulative IPC: 0.397765 instructions: 100000000 cycles: 251404730
LLC TOTAL     ACCESS:     694192  HIT:     637902  MISS:      56290
LLC LOAD      ACCESS:     325712  HIT:     303192  MISS:      22520
LLC RFO       ACCESS:      31881  HIT:      26413  MISS:       5468
LLC PREFETCH  ACCESS:     223579  HIT:     196893  MISS:      26686
LLC WRITEBACK ACCESS:     113020  HIT:     111404  MISS:       1616
OPTgen accesses: 8427
OPTgen hits: 9765
OPTgen hit rate: 115.878


