
*** ChampSim Multicore Out-of-Order Simulator ***

Warmup Instructions: 50000000
Simulation Instructions: 100000000
Configuration: 2
Number of CPUs: 1
LLC sets: 2048
LLC ways: 16
Off-chip DRAM Channels: 1 Width: 64-bit Data Rate: 1600 MT/s

CPU 0 runs /datasets/cs240c-wi22-a00-public/data/Assignment2-gz/astar_163B.trace.gz
CPU 0 L1D next line prefetcher
CPU 0 L2C IP-based stride prefetcher
Initialize Hawkeye state
Heartbeat CPU 0 instructions: 1000002 cycles: 531212 heartbeat IPC: 1.88249 cumulative IPC: 1.88249 (Simulation time: 0 hr 0 min 42 sec) 
Heartbeat CPU 0 instructions: 2000003 cycles: 1060827 heartbeat IPC: 1.88817 cumulative IPC: 1.88532 (Simulation time: 0 hr 1 min 22 sec) 
Heartbeat CPU 0 instructions: 3000003 cycles: 1590862 heartbeat IPC: 1.88667 cumulative IPC: 1.88577 (Simulation time: 0 hr 2 min 2 sec) 
Heartbeat CPU 0 instructions: 4000000 cycles: 2120964 heartbeat IPC: 1.88642 cumulative IPC: 1.88593 (Simulation time: 0 hr 2 min 42 sec) 
Heartbeat CPU 0 instructions: 5000000 cycles: 2652877 heartbeat IPC: 1.88001 cumulative IPC: 1.88475 (Simulation time: 0 hr 3 min 19 sec) 
Heartbeat CPU 0 instructions: 6000002 cycles: 3181392 heartbeat IPC: 1.8921 cumulative IPC: 1.88597 (Simulation time: 0 hr 4 min 3 sec) 
Heartbeat CPU 0 instructions: 7000003 cycles: 3710906 heartbeat IPC: 1.88853 cumulative IPC: 1.88633 (Simulation time: 0 hr 4 min 43 sec) 
Heartbeat CPU 0 instructions: 8000000 cycles: 4240188 heartbeat IPC: 1.88935 cumulative IPC: 1.88671 (Simulation time: 0 hr 5 min 23 sec) 
Heartbeat CPU 0 instructions: 9000000 cycles: 4771195 heartbeat IPC: 1.88321 cumulative IPC: 1.88632 (Simulation time: 0 hr 6 min 4 sec) 
Heartbeat CPU 0 instructions: 10000001 cycles: 5301295 heartbeat IPC: 1.88644 cumulative IPC: 1.88633 (Simulation time: 0 hr 6 min 46 sec) 
Heartbeat CPU 0 instructions: 11000003 cycles: 5830346 heartbeat IPC: 1.89018 cumulative IPC: 1.88668 (Simulation time: 0 hr 7 min 25 sec) 
Heartbeat CPU 0 instructions: 12000000 cycles: 6359113 heartbeat IPC: 1.89119 cumulative IPC: 1.88706 (Simulation time: 0 hr 8 min 7 sec) 
Heartbeat CPU 0 instructions: 13000002 cycles: 6888963 heartbeat IPC: 1.88733 cumulative IPC: 1.88708 (Simulation time: 0 hr 8 min 48 sec) 
Heartbeat CPU 0 instructions: 14000000 cycles: 7419092 heartbeat IPC: 1.88633 cumulative IPC: 1.88702 (Simulation time: 0 hr 9 min 28 sec) 
Heartbeat CPU 0 instructions: 15000000 cycles: 7949475 heartbeat IPC: 1.88543 cumulative IPC: 1.88692 (Simulation time: 0 hr 10 min 7 sec) 
Heartbeat CPU 0 instructions: 16000000 cycles: 8480330 heartbeat IPC: 1.88375 cumulative IPC: 1.88672 (Simulation time: 0 hr 10 min 47 sec) 
Heartbeat CPU 0 instructions: 17000002 cycles: 9009929 heartbeat IPC: 1.88822 cumulative IPC: 1.88681 (Simulation time: 0 hr 11 min 27 sec) 
Heartbeat CPU 0 instructions: 18000003 cycles: 9539352 heartbeat IPC: 1.88885 cumulative IPC: 1.88692 (Simulation time: 0 hr 12 min 7 sec) 
Heartbeat CPU 0 instructions: 19000003 cycles: 10069892 heartbeat IPC: 1.88487 cumulative IPC: 1.88681 (Simulation time: 0 hr 12 min 47 sec) 
Heartbeat CPU 0 instructions: 20000000 cycles: 10600196 heartbeat IPC: 1.88571 cumulative IPC: 1.88676 (Simulation time: 0 hr 13 min 28 sec) 
Heartbeat CPU 0 instructions: 21000003 cycles: 11130319 heartbeat IPC: 1.88636 cumulative IPC: 1.88674 (Simulation time: 0 hr 14 min 11 sec) 
Heartbeat CPU 0 instructions: 22000001 cycles: 11661915 heartbeat IPC: 1.88112 cumulative IPC: 1.88648 (Simulation time: 0 hr 14 min 52 sec) 
Heartbeat CPU 0 instructions: 23000001 cycles: 12192073 heartbeat IPC: 1.88623 cumulative IPC: 1.88647 (Simulation time: 0 hr 15 min 32 sec) 
Heartbeat CPU 0 instructions: 24000000 cycles: 12722918 heartbeat IPC: 1.88379 cumulative IPC: 1.88636 (Simulation time: 0 hr 16 min 13 sec) 
Heartbeat CPU 0 instructions: 25000003 cycles: 13223728 heartbeat IPC: 1.99677 cumulative IPC: 1.89054 (Simulation time: 0 hr 16 min 49 sec) 
Heartbeat CPU 0 instructions: 26000002 cycles: 13728017 heartbeat IPC: 1.98299 cumulative IPC: 1.89394 (Simulation time: 0 hr 17 min 27 sec) 
Heartbeat CPU 0 instructions: 27000000 cycles: 14240012 heartbeat IPC: 1.95314 cumulative IPC: 1.89607 (Simulation time: 0 hr 18 min 5 sec) 
Heartbeat CPU 0 instructions: 28000000 cycles: 14763522 heartbeat IPC: 1.91018 cumulative IPC: 1.89657 (Simulation time: 0 hr 18 min 42 sec) 
Heartbeat CPU 0 instructions: 29000003 cycles: 15291419 heartbeat IPC: 1.89431 cumulative IPC: 1.89649 (Simulation time: 0 hr 19 min 19 sec) 
Heartbeat CPU 0 instructions: 30000000 cycles: 15814794 heartbeat IPC: 1.91067 cumulative IPC: 1.89696 (Simulation time: 0 hr 19 min 56 sec) 
Heartbeat CPU 0 instructions: 31000001 cycles: 16335436 heartbeat IPC: 1.92071 cumulative IPC: 1.89771 (Simulation time: 0 hr 20 min 35 sec) 
Heartbeat CPU 0 instructions: 32000000 cycles: 16862719 heartbeat IPC: 1.89651 cumulative IPC: 1.89768 (Simulation time: 0 hr 21 min 15 sec) 
Heartbeat CPU 0 instructions: 33000001 cycles: 17383173 heartbeat IPC: 1.9214 cumulative IPC: 1.89839 (Simulation time: 0 hr 21 min 54 sec) 
Heartbeat CPU 0 instructions: 34000001 cycles: 17906020 heartbeat IPC: 1.91261 cumulative IPC: 1.8988 (Simulation time: 0 hr 22 min 34 sec) 
Heartbeat CPU 0 instructions: 35000000 cycles: 18431478 heartbeat IPC: 1.9031 cumulative IPC: 1.89893 (Simulation time: 0 hr 23 min 12 sec) 
Heartbeat CPU 0 instructions: 36000000 cycles: 18958401 heartbeat IPC: 1.89781 cumulative IPC: 1.89889 (Simulation time: 0 hr 23 min 52 sec) 
Heartbeat CPU 0 instructions: 37000002 cycles: 19475842 heartbeat IPC: 1.93259 cumulative IPC: 1.89979 (Simulation time: 0 hr 24 min 32 sec) 
Heartbeat CPU 0 instructions: 38000002 cycles: 19995785 heartbeat IPC: 1.92329 cumulative IPC: 1.9004 (Simulation time: 0 hr 25 min 13 sec) 
Heartbeat CPU 0 instructions: 39000001 cycles: 20516122 heartbeat IPC: 1.92183 cumulative IPC: 1.90094 (Simulation time: 0 hr 25 min 52 sec) 
Heartbeat CPU 0 instructions: 40000000 cycles: 21035021 heartbeat IPC: 1.92716 cumulative IPC: 1.90159 (Simulation time: 0 hr 26 min 31 sec) 
Heartbeat CPU 0 instructions: 41000001 cycles: 21556373 heartbeat IPC: 1.91809 cumulative IPC: 1.90199 (Simulation time: 0 hr 27 min 8 sec) 
Heartbeat CPU 0 instructions: 42000002 cycles: 22070296 heartbeat IPC: 1.94582 cumulative IPC: 1.90301 (Simulation time: 0 hr 27 min 47 sec) 
Heartbeat CPU 0 instructions: 43000001 cycles: 22583847 heartbeat IPC: 1.94722 cumulative IPC: 1.90402 (Simulation time: 0 hr 28 min 25 sec) 
Heartbeat CPU 0 instructions: 44000000 cycles: 23103834 heartbeat IPC: 1.92312 cumulative IPC: 1.90445 (Simulation time: 0 hr 29 min 4 sec) 
Heartbeat CPU 0 instructions: 45000001 cycles: 23620119 heartbeat IPC: 1.93692 cumulative IPC: 1.90516 (Simulation time: 0 hr 29 min 43 sec) 
Heartbeat CPU 0 instructions: 46000003 cycles: 24144473 heartbeat IPC: 1.90711 cumulative IPC: 1.9052 (Simulation time: 0 hr 30 min 22 sec) 
Heartbeat CPU 0 instructions: 47000000 cycles: 24668087 heartbeat IPC: 1.9098 cumulative IPC: 1.9053 (Simulation time: 0 hr 30 min 59 sec) 
Heartbeat CPU 0 instructions: 48000000 cycles: 25188431 heartbeat IPC: 1.92181 cumulative IPC: 1.90564 (Simulation time: 0 hr 31 min 35 sec) 
Heartbeat CPU 0 instructions: 49000003 cycles: 25714332 heartbeat IPC: 1.9015 cumulative IPC: 1.90555 (Simulation time: 0 hr 32 min 15 sec) 
Heartbeat CPU 0 instructions: 50000001 cycles: 26240958 heartbeat IPC: 1.89888 cumulative IPC: 1.90542 (Simulation time: 0 hr 32 min 53 sec) 

Warmup complete CPU 0 instructions: 50000001 cycles: 26240958 (Simulation time: 0 hr 32 min 53 sec) 

Heartbeat CPU 0 instructions: 51000003 cycles: 28173223 heartbeat IPC: 0.517528 cumulative IPC: 0.517528 (Simulation time: 0 hr 33 min 37 sec) 
Heartbeat CPU 0 instructions: 52000000 cycles: 30191673 heartbeat IPC: 0.495428 cumulative IPC: 0.506237 (Simulation time: 0 hr 34 min 18 sec) 
Heartbeat CPU 0 instructions: 53000001 cycles: 32155065 heartbeat IPC: 0.509323 cumulative IPC: 0.507262 (Simulation time: 0 hr 35 min 5 sec) 
Heartbeat CPU 0 instructions: 54000003 cycles: 34052305 heartbeat IPC: 0.527083 cumulative IPC: 0.512076 (Simulation time: 0 hr 35 min 50 sec) 
Heartbeat CPU 0 instructions: 55000000 cycles: 35922638 heartbeat IPC: 0.534663 cumulative IPC: 0.516439 (Simulation time: 0 hr 36 min 36 sec) 
Heartbeat CPU 0 instructions: 56000000 cycles: 37810500 heartbeat IPC: 0.5297 cumulative IPC: 0.518603 (Simulation time: 0 hr 37 min 21 sec) 
Heartbeat CPU 0 instructions: 57000000 cycles: 39670315 heartbeat IPC: 0.537688 cumulative IPC: 0.521246 (Simulation time: 0 hr 38 min 6 sec) 
Heartbeat CPU 0 instructions: 58000001 cycles: 41585628 heartbeat IPC: 0.522108 cumulative IPC: 0.521354 (Simulation time: 0 hr 38 min 52 sec) 
Heartbeat CPU 0 instructions: 59000003 cycles: 43473131 heartbeat IPC: 0.529802 cumulative IPC: 0.522279 (Simulation time: 0 hr 39 min 37 sec) 
Heartbeat CPU 0 instructions: 60000000 cycles: 45357430 heartbeat IPC: 0.5307 cumulative IPC: 0.523109 (Simulation time: 0 hr 40 min 25 sec) 
Heartbeat CPU 0 instructions: 61000002 cycles: 47246869 heartbeat IPC: 0.529259 cumulative IPC: 0.523662 (Simulation time: 0 hr 41 min 12 sec) 
Heartbeat CPU 0 instructions: 62000001 cycles: 49146899 heartbeat IPC: 0.526307 cumulative IPC: 0.523882 (Simulation time: 0 hr 41 min 57 sec) 
Heartbeat CPU 0 instructions: 63000001 cycles: 51193376 heartbeat IPC: 0.488645 cumulative IPC: 0.520992 (Simulation time: 0 hr 42 min 37 sec) 
Heartbeat CPU 0 instructions: 64000000 cycles: 53145199 heartbeat IPC: 0.512341 cumulative IPC: 0.520364 (Simulation time: 0 hr 43 min 21 sec) 
Heartbeat CPU 0 instructions: 65000000 cycles: 55084986 heartbeat IPC: 0.515521 cumulative IPC: 0.520038 (Simulation time: 0 hr 44 min 6 sec) 
Heartbeat CPU 0 instructions: 66000000 cycles: 57039301 heartbeat IPC: 0.511688 cumulative IPC: 0.519508 (Simulation time: 0 hr 44 min 47 sec) 
Heartbeat CPU 0 instructions: 67000003 cycles: 58979517 heartbeat IPC: 0.515408 cumulative IPC: 0.519265 (Simulation time: 0 hr 45 min 28 sec) 
Heartbeat CPU 0 instructions: 68000000 cycles: 60905031 heartbeat IPC: 0.51934 cumulative IPC: 0.51927 (Simulation time: 0 hr 46 min 12 sec) 
Heartbeat CPU 0 instructions: 69000000 cycles: 62836436 heartbeat IPC: 0.517758 cumulative IPC: 0.51919 (Simulation time: 0 hr 46 min 55 sec) 
Heartbeat CPU 0 instructions: 70000003 cycles: 64785583 heartbeat IPC: 0.513047 cumulative IPC: 0.518879 (Simulation time: 0 hr 47 min 39 sec) 
Heartbeat CPU 0 instructions: 71000001 cycles: 66736605 heartbeat IPC: 0.512551 cumulative IPC: 0.518574 (Simulation time: 0 hr 48 min 20 sec) 
Heartbeat CPU 0 instructions: 72000000 cycles: 68683540 heartbeat IPC: 0.513627 cumulative IPC: 0.518347 (Simulation time: 0 hr 49 min 3 sec) 
Heartbeat CPU 0 instructions: 73000000 cycles: 70633000 heartbeat IPC: 0.512963 cumulative IPC: 0.518111 (Simulation time: 0 hr 49 min 44 sec) 
Heartbeat CPU 0 instructions: 74000000 cycles: 72580929 heartbeat IPC: 0.513366 cumulative IPC: 0.517911 (Simulation time: 0 hr 50 min 25 sec) 
Heartbeat CPU 0 instructions: 75000001 cycles: 74491352 heartbeat IPC: 0.523445 cumulative IPC: 0.51813 (Simulation time: 0 hr 51 min 7 sec) 
Heartbeat CPU 0 instructions: 76000000 cycles: 76420949 heartbeat IPC: 0.518242 cumulative IPC: 0.518135 (Simulation time: 0 hr 51 min 50 sec) 
Heartbeat CPU 0 instructions: 77000001 cycles: 78448967 heartbeat IPC: 0.493093 cumulative IPC: 0.517162 (Simulation time: 0 hr 52 min 29 sec) 
Heartbeat CPU 0 instructions: 78000000 cycles: 80404221 heartbeat IPC: 0.511442 cumulative IPC: 0.516956 (Simulation time: 0 hr 53 min 10 sec) 
Heartbeat CPU 0 instructions: 79000003 cycles: 82439573 heartbeat IPC: 0.491317 cumulative IPC: 0.516027 (Simulation time: 0 hr 53 min 50 sec) 
Heartbeat CPU 0 instructions: 80000000 cycles: 84537855 heartbeat IPC: 0.476579 cumulative IPC: 0.514607 (Simulation time: 0 hr 54 min 27 sec) 
Heartbeat CPU 0 instructions: 81000003 cycles: 86634459 heartbeat IPC: 0.476963 cumulative IPC: 0.5133 (Simulation time: 0 hr 55 min 6 sec) 
Heartbeat CPU 0 instructions: 82000000 cycles: 88687119 heartbeat IPC: 0.487171 cumulative IPC: 0.512441 (Simulation time: 0 hr 55 min 44 sec) 
Heartbeat CPU 0 instructions: 83000000 cycles: 90666025 heartbeat IPC: 0.50533 cumulative IPC: 0.512223 (Simulation time: 0 hr 56 min 26 sec) 
Heartbeat CPU 0 instructions: 84000000 cycles: 92642031 heartbeat IPC: 0.506071 cumulative IPC: 0.51204 (Simulation time: 0 hr 57 min 7 sec) 
Heartbeat CPU 0 instructions: 85000001 cycles: 94606486 heartbeat IPC: 0.509048 cumulative IPC: 0.511954 (Simulation time: 0 hr 57 min 46 sec) 
Heartbeat CPU 0 instructions: 86000002 cycles: 96566440 heartbeat IPC: 0.510217 cumulative IPC: 0.511905 (Simulation time: 0 hr 58 min 27 sec) 
Heartbeat CPU 0 instructions: 87000000 cycles: 98549238 heartbeat IPC: 0.504337 cumulative IPC: 0.511698 (Simulation time: 0 hr 59 min 6 sec) 
Heartbeat CPU 0 instructions: 88000000 cycles: 100585891 heartbeat IPC: 0.491002 cumulative IPC: 0.511131 (Simulation time: 0 hr 59 min 45 sec) 
Heartbeat CPU 0 instructions: 89000003 cycles: 102568981 heartbeat IPC: 0.504265 cumulative IPC: 0.510953 (Simulation time: 1 hr 0 min 27 sec) 
Heartbeat CPU 0 instructions: 90000000 cycles: 104537031 heartbeat IPC: 0.508116 cumulative IPC: 0.510881 (Simulation time: 1 hr 1 min 8 sec) 
Heartbeat CPU 0 instructions: 91000000 cycles: 106518874 heartbeat IPC: 0.504581 cumulative IPC: 0.510726 (Simulation time: 1 hr 1 min 51 sec) 
Heartbeat CPU 0 instructions: 92000000 cycles: 108507504 heartbeat IPC: 0.502859 cumulative IPC: 0.510536 (Simulation time: 1 hr 2 min 32 sec) 
Heartbeat CPU 0 instructions: 93000003 cycles: 110459737 heartbeat IPC: 0.512235 cumulative IPC: 0.510575 (Simulation time: 1 hr 3 min 14 sec) 
Heartbeat CPU 0 instructions: 94000000 cycles: 112398256 heartbeat IPC: 0.515856 cumulative IPC: 0.510694 (Simulation time: 1 hr 3 min 57 sec) 
Heartbeat CPU 0 instructions: 95000000 cycles: 114372118 heartbeat IPC: 0.506621 cumulative IPC: 0.510603 (Simulation time: 1 hr 4 min 43 sec) 
Heartbeat CPU 0 instructions: 96000000 cycles: 116380453 heartbeat IPC: 0.497925 cumulative IPC: 0.51032 (Simulation time: 1 hr 5 min 24 sec) 
Heartbeat CPU 0 instructions: 97000000 cycles: 118394095 heartbeat IPC: 0.496613 cumulative IPC: 0.510021 (Simulation time: 1 hr 6 min 2 sec) 
Heartbeat CPU 0 instructions: 98000000 cycles: 120389676 heartbeat IPC: 0.501107 cumulative IPC: 0.509832 (Simulation time: 1 hr 6 min 44 sec) 
Heartbeat CPU 0 instructions: 99000000 cycles: 122482081 heartbeat IPC: 0.477919 cumulative IPC: 0.509138 (Simulation time: 1 hr 7 min 27 sec) 
Heartbeat CPU 0 instructions: 100000000 cycles: 124491881 heartbeat IPC: 0.497562 cumulative IPC: 0.508901 (Simulation time: 1 hr 8 min 12 sec) 
Heartbeat CPU 0 instructions: 101000000 cycles: 126521469 heartbeat IPC: 0.492711 cumulative IPC: 0.508573 (Simulation time: 1 hr 8 min 52 sec) 
Heartbeat CPU 0 instructions: 102000003 cycles: 128524000 heartbeat IPC: 0.49937 cumulative IPC: 0.508393 (Simulation time: 1 hr 9 min 33 sec) 
Heartbeat CPU 0 instructions: 103000000 cycles: 130473311 heartbeat IPC: 0.513 cumulative IPC: 0.508479 (Simulation time: 1 hr 10 min 17 sec) 
Heartbeat CPU 0 instructions: 104000000 cycles: 132410028 heartbeat IPC: 0.516338 cumulative IPC: 0.508623 (Simulation time: 1 hr 11 min 4 sec) 
Heartbeat CPU 0 instructions: 105000002 cycles: 134355880 heartbeat IPC: 0.513915 cumulative IPC: 0.508718 (Simulation time: 1 hr 11 min 49 sec) 
Heartbeat CPU 0 instructions: 106000003 cycles: 136282954 heartbeat IPC: 0.518922 cumulative IPC: 0.508897 (Simulation time: 1 hr 12 min 29 sec) 
Heartbeat CPU 0 instructions: 107000000 cycles: 138230312 heartbeat IPC: 0.513515 cumulative IPC: 0.508977 (Simulation time: 1 hr 13 min 4 sec) 
Heartbeat CPU 0 instructions: 108000000 cycles: 140308045 heartbeat IPC: 0.481294 cumulative IPC: 0.508473 (Simulation time: 1 hr 13 min 38 sec) 
Heartbeat CPU 0 instructions: 109000003 cycles: 142350667 heartbeat IPC: 0.489568 cumulative IPC: 0.50814 (Simulation time: 1 hr 14 min 13 sec) 
Heartbeat CPU 0 instructions: 110000002 cycles: 144340841 heartbeat IPC: 0.502468 cumulative IPC: 0.508045 (Simulation time: 1 hr 14 min 52 sec) 
Heartbeat CPU 0 instructions: 111000002 cycles: 146322343 heartbeat IPC: 0.504668 cumulative IPC: 0.507989 (Simulation time: 1 hr 15 min 27 sec) 
Heartbeat CPU 0 instructions: 112000000 cycles: 148312488 heartbeat IPC: 0.502475 cumulative IPC: 0.507899 (Simulation time: 1 hr 16 min 4 sec) 
Heartbeat CPU 0 instructions: 113000000 cycles: 150298058 heartbeat IPC: 0.503634 cumulative IPC: 0.507831 (Simulation time: 1 hr 16 min 40 sec) 
Heartbeat CPU 0 instructions: 114000001 cycles: 152292615 heartbeat IPC: 0.501365 cumulative IPC: 0.507728 (Simulation time: 1 hr 17 min 14 sec) 
Heartbeat CPU 0 instructions: 115000000 cycles: 154300221 heartbeat IPC: 0.498105 cumulative IPC: 0.507577 (Simulation time: 1 hr 17 min 52 sec) 
Heartbeat CPU 0 instructions: 116000000 cycles: 156346460 heartbeat IPC: 0.488701 cumulative IPC: 0.507281 (Simulation time: 1 hr 18 min 27 sec) 
Heartbeat CPU 0 instructions: 117000000 cycles: 158429329 heartbeat IPC: 0.480107 cumulative IPC: 0.506852 (Simulation time: 1 hr 19 min 0 sec) 
Heartbeat CPU 0 instructions: 118000002 cycles: 160543172 heartbeat IPC: 0.473073 cumulative IPC: 0.506321 (Simulation time: 1 hr 19 min 30 sec) 
Heartbeat CPU 0 instructions: 119000001 cycles: 162619776 heartbeat IPC: 0.481555 cumulative IPC: 0.505944 (Simulation time: 1 hr 20 min 0 sec) 
Heartbeat CPU 0 instructions: 120000000 cycles: 164651245 heartbeat IPC: 0.492254 cumulative IPC: 0.505743 (Simulation time: 1 hr 20 min 30 sec) 
Heartbeat CPU 0 instructions: 121000000 cycles: 166736241 heartbeat IPC: 0.479617 cumulative IPC: 0.505355 (Simulation time: 1 hr 21 min 3 sec) 
Heartbeat CPU 0 instructions: 122000001 cycles: 168878681 heartbeat IPC: 0.466758 cumulative IPC: 0.504775 (Simulation time: 1 hr 21 min 36 sec) 
Heartbeat CPU 0 instructions: 123000000 cycles: 170945748 heartbeat IPC: 0.483777 cumulative IPC: 0.504475 (Simulation time: 1 hr 22 min 8 sec) 
Heartbeat CPU 0 instructions: 124000000 cycles: 172947665 heartbeat IPC: 0.499521 cumulative IPC: 0.504408 (Simulation time: 1 hr 22 min 37 sec) 
Heartbeat CPU 0 instructions: 125000001 cycles: 174932179 heartbeat IPC: 0.503902 cumulative IPC: 0.504401 (Simulation time: 1 hr 23 min 6 sec) 
Heartbeat CPU 0 instructions: 126000000 cycles: 176941158 heartbeat IPC: 0.497765 cumulative IPC: 0.504313 (Simulation time: 1 hr 23 min 35 sec) 
Heartbeat CPU 0 instructions: 127000001 cycles: 178934085 heartbeat IPC: 0.501775 cumulative IPC: 0.504279 (Simulation time: 1 hr 24 min 3 sec) 
Heartbeat CPU 0 instructions: 128000000 cycles: 180973408 heartbeat IPC: 0.490358 cumulative IPC: 0.504096 (Simulation time: 1 hr 24 min 33 sec) 
Heartbeat CPU 0 instructions: 129000000 cycles: 183032227 heartbeat IPC: 0.485715 cumulative IPC: 0.503855 (Simulation time: 1 hr 25 min 1 sec) 
Heartbeat CPU 0 instructions: 130000002 cycles: 185060794 heartbeat IPC: 0.49296 cumulative IPC: 0.503715 (Simulation time: 1 hr 25 min 28 sec) 
Heartbeat CPU 0 instructions: 131000001 cycles: 187060026 heartbeat IPC: 0.500192 cumulative IPC: 0.503672 (Simulation time: 1 hr 25 min 58 sec) 
Heartbeat CPU 0 instructions: 132000000 cycles: 189069235 heartbeat IPC: 0.497708 cumulative IPC: 0.503598 (Simulation time: 1 hr 26 min 23 sec) 
Heartbeat CPU 0 instructions: 133000001 cycles: 191068202 heartbeat IPC: 0.500259 cumulative IPC: 0.503558 (Simulation time: 1 hr 26 min 49 sec) 
Heartbeat CPU 0 instructions: 134000002 cycles: 193065985 heartbeat IPC: 0.500555 cumulative IPC: 0.503522 (Simulation time: 1 hr 27 min 15 sec) 
Heartbeat CPU 0 instructions: 135000003 cycles: 195076949 heartbeat IPC: 0.497274 cumulative IPC: 0.503447 (Simulation time: 1 hr 27 min 41 sec) 
Heartbeat CPU 0 instructions: 136000000 cycles: 197061744 heartbeat IPC: 0.503829 cumulative IPC: 0.503452 (Simulation time: 1 hr 28 min 4 sec) 
Heartbeat CPU 0 instructions: 137000000 cycles: 199046354 heartbeat IPC: 0.503877 cumulative IPC: 0.503456 (Simulation time: 1 hr 28 min 26 sec) 
Heartbeat CPU 0 instructions: 138000003 cycles: 201044532 heartbeat IPC: 0.500457 cumulative IPC: 0.503422 (Simulation time: 1 hr 28 min 48 sec) 
Heartbeat CPU 0 instructions: 139000000 cycles: 203072090 heartbeat IPC: 0.493203 cumulative IPC: 0.503305 (Simulation time: 1 hr 29 min 11 sec) 
Heartbeat CPU 0 instructions: 140000000 cycles: 205111779 heartbeat IPC: 0.490271 cumulative IPC: 0.503156 (Simulation time: 1 hr 29 min 33 sec) 
Heartbeat CPU 0 instructions: 141000002 cycles: 207113910 heartbeat IPC: 0.499469 cumulative IPC: 0.503116 (Simulation time: 1 hr 29 min 57 sec) 
Heartbeat CPU 0 instructions: 142000002 cycles: 209105922 heartbeat IPC: 0.502005 cumulative IPC: 0.503103 (Simulation time: 1 hr 30 min 18 sec) 
Heartbeat CPU 0 instructions: 143000002 cycles: 211114985 heartbeat IPC: 0.497744 cumulative IPC: 0.503045 (Simulation time: 1 hr 30 min 39 sec) 
Heartbeat CPU 0 instructions: 144000000 cycles: 213127266 heartbeat IPC: 0.496947 cumulative IPC: 0.50298 (Simulation time: 1 hr 30 min 59 sec) 
Heartbeat CPU 0 instructions: 145000001 cycles: 215227735 heartbeat IPC: 0.476085 cumulative IPC: 0.502681 (Simulation time: 1 hr 31 min 20 sec) 
Heartbeat CPU 0 instructions: 146000000 cycles: 217420575 heartbeat IPC: 0.456029 cumulative IPC: 0.502146 (Simulation time: 1 hr 31 min 37 sec) 
Heartbeat CPU 0 instructions: 147000000 cycles: 219545880 heartbeat IPC: 0.470521 cumulative IPC: 0.501798 (Simulation time: 1 hr 31 min 56 sec) 
Heartbeat CPU 0 instructions: 148000000 cycles: 221700236 heartbeat IPC: 0.464176 cumulative IPC: 0.501383 (Simulation time: 1 hr 32 min 12 sec) 
Heartbeat CPU 0 instructions: 149000000 cycles: 223818655 heartbeat IPC: 0.47205 cumulative IPC: 0.501069 (Simulation time: 1 hr 32 min 30 sec) 
Heartbeat CPU 0 instructions: 150000000 cycles: 225965709 heartbeat IPC: 0.465754 cumulative IPC: 0.500689 (Simulation time: 1 hr 32 min 48 sec) 
Finished CPU 0 instructions: 100000003 cycles: 199724752 cummulative IPC: 0.500689 (Simulation time: 1 hr 32 min 48 sec) 

ChampSim completed all CPUs

Region of Interest Statistics

CPU 0 cummulative IPC: 0.500689 instructions: 100000003 cycles: 199724752
LLC TOTAL     ACCESS:     477014  HIT:     314504  MISS:     162510
LLC LOAD      ACCESS:     104808  HIT:      62807  MISS:      42001
LLC RFO       ACCESS:      70517  HIT:      30813  MISS:      39704
LLC PREFETCH  ACCESS:     138032  HIT:      76232  MISS:      61800
LLC WRITEBACK ACCESS:     163657  HIT:     144652  MISS:      19005
OPTgen accesses: 4411
OPTgen hits: 3702
OPTgen hit rate: 83.9265


