
*** ChampSim Multicore Out-of-Order Simulator ***

Warmup Instructions: 50000000
Simulation Instructions: 100000000
Configuration: 2
Number of CPUs: 1
LLC sets: 2048
LLC ways: 16
Off-chip DRAM Channels: 1 Width: 64-bit Data Rate: 1600 MT/s

CPU 0 runs /datasets/cs240c-wi22-a00-public/data/Assignment2-gz/bzip2_281B.trace.gz
CPU 0 L1D next line prefetcher
CPU 0 L2C IP-based stride prefetcher
Initialize Hawkeye state
Heartbeat CPU 0 instructions: 1000000 cycles: 445877 heartbeat IPC: 2.24277 cumulative IPC: 2.24277 (Simulation time: 0 hr 0 min 40 sec) 
Heartbeat CPU 0 instructions: 2000003 cycles: 900175 heartbeat IPC: 2.20121 cumulative IPC: 2.22179 (Simulation time: 0 hr 1 min 17 sec) 
Heartbeat CPU 0 instructions: 3000002 cycles: 1315067 heartbeat IPC: 2.41026 cumulative IPC: 2.28125 (Simulation time: 0 hr 1 min 57 sec) 
Heartbeat CPU 0 instructions: 4000000 cycles: 1753556 heartbeat IPC: 2.28055 cumulative IPC: 2.28108 (Simulation time: 0 hr 2 min 34 sec) 
Heartbeat CPU 0 instructions: 5000002 cycles: 2175545 heartbeat IPC: 2.36973 cumulative IPC: 2.29828 (Simulation time: 0 hr 3 min 12 sec) 
Heartbeat CPU 0 instructions: 6000000 cycles: 2666194 heartbeat IPC: 2.03811 cumulative IPC: 2.2504 (Simulation time: 0 hr 3 min 53 sec) 
Heartbeat CPU 0 instructions: 7000001 cycles: 3193462 heartbeat IPC: 1.89657 cumulative IPC: 2.19198 (Simulation time: 0 hr 4 min 36 sec) 
Heartbeat CPU 0 instructions: 8000000 cycles: 3726055 heartbeat IPC: 1.8776 cumulative IPC: 2.14704 (Simulation time: 0 hr 5 min 16 sec) 
Heartbeat CPU 0 instructions: 9000000 cycles: 4232472 heartbeat IPC: 1.97466 cumulative IPC: 2.12642 (Simulation time: 0 hr 5 min 57 sec) 
Heartbeat CPU 0 instructions: 10000002 cycles: 4685414 heartbeat IPC: 2.20779 cumulative IPC: 2.13428 (Simulation time: 0 hr 6 min 36 sec) 
Heartbeat CPU 0 instructions: 11000000 cycles: 5132849 heartbeat IPC: 2.23496 cumulative IPC: 2.14306 (Simulation time: 0 hr 7 min 14 sec) 
Heartbeat CPU 0 instructions: 12000000 cycles: 5613913 heartbeat IPC: 2.07873 cumulative IPC: 2.13755 (Simulation time: 0 hr 7 min 53 sec) 
Heartbeat CPU 0 instructions: 13000001 cycles: 6025312 heartbeat IPC: 2.43073 cumulative IPC: 2.15756 (Simulation time: 0 hr 8 min 28 sec) 
Heartbeat CPU 0 instructions: 14000003 cycles: 6483705 heartbeat IPC: 2.18154 cumulative IPC: 2.15926 (Simulation time: 0 hr 9 min 3 sec) 
Heartbeat CPU 0 instructions: 15000003 cycles: 6944048 heartbeat IPC: 2.17229 cumulative IPC: 2.16012 (Simulation time: 0 hr 9 min 42 sec) 
Heartbeat CPU 0 instructions: 16000000 cycles: 7339842 heartbeat IPC: 2.52656 cumulative IPC: 2.17988 (Simulation time: 0 hr 10 min 16 sec) 
Heartbeat CPU 0 instructions: 17000000 cycles: 7729021 heartbeat IPC: 2.56951 cumulative IPC: 2.1995 (Simulation time: 0 hr 10 min 52 sec) 
Heartbeat CPU 0 instructions: 18000002 cycles: 8185142 heartbeat IPC: 2.1924 cumulative IPC: 2.19911 (Simulation time: 0 hr 11 min 30 sec) 
Heartbeat CPU 0 instructions: 19000000 cycles: 8631076 heartbeat IPC: 2.24248 cumulative IPC: 2.20135 (Simulation time: 0 hr 12 min 5 sec) 
Heartbeat CPU 0 instructions: 20000000 cycles: 9076076 heartbeat IPC: 2.24719 cumulative IPC: 2.2036 (Simulation time: 0 hr 12 min 43 sec) 
Heartbeat CPU 0 instructions: 21000000 cycles: 9463154 heartbeat IPC: 2.58346 cumulative IPC: 2.21913 (Simulation time: 0 hr 13 min 17 sec) 
Heartbeat CPU 0 instructions: 22000003 cycles: 9838856 heartbeat IPC: 2.66169 cumulative IPC: 2.23603 (Simulation time: 0 hr 13 min 51 sec) 
Heartbeat CPU 0 instructions: 23000001 cycles: 10291829 heartbeat IPC: 2.20763 cumulative IPC: 2.23478 (Simulation time: 0 hr 14 min 30 sec) 
Heartbeat CPU 0 instructions: 24000000 cycles: 10746449 heartbeat IPC: 2.19964 cumulative IPC: 2.2333 (Simulation time: 0 hr 15 min 5 sec) 
Heartbeat CPU 0 instructions: 25000001 cycles: 11089974 heartbeat IPC: 2.911 cumulative IPC: 2.25429 (Simulation time: 0 hr 15 min 40 sec) 
Heartbeat CPU 0 instructions: 26000003 cycles: 11527626 heartbeat IPC: 2.28492 cumulative IPC: 2.25545 (Simulation time: 0 hr 16 min 20 sec) 
Heartbeat CPU 0 instructions: 27000003 cycles: 12000307 heartbeat IPC: 2.11559 cumulative IPC: 2.24994 (Simulation time: 0 hr 16 min 55 sec) 
Heartbeat CPU 0 instructions: 28000000 cycles: 12326808 heartbeat IPC: 3.06277 cumulative IPC: 2.27147 (Simulation time: 0 hr 17 min 23 sec) 
Heartbeat CPU 0 instructions: 29000001 cycles: 12623685 heartbeat IPC: 3.3684 cumulative IPC: 2.29727 (Simulation time: 0 hr 17 min 51 sec) 
Heartbeat CPU 0 instructions: 30000000 cycles: 12920559 heartbeat IPC: 3.36843 cumulative IPC: 2.32188 (Simulation time: 0 hr 18 min 18 sec) 
Heartbeat CPU 0 instructions: 31000000 cycles: 13262955 heartbeat IPC: 2.92059 cumulative IPC: 2.33734 (Simulation time: 0 hr 18 min 48 sec) 
Heartbeat CPU 0 instructions: 32000000 cycles: 13609498 heartbeat IPC: 2.88564 cumulative IPC: 2.3513 (Simulation time: 0 hr 19 min 18 sec) 
Heartbeat CPU 0 instructions: 33000001 cycles: 13968012 heartbeat IPC: 2.78929 cumulative IPC: 2.36254 (Simulation time: 0 hr 19 min 50 sec) 
Heartbeat CPU 0 instructions: 34000001 cycles: 14311610 heartbeat IPC: 2.91038 cumulative IPC: 2.37569 (Simulation time: 0 hr 20 min 19 sec) 
Heartbeat CPU 0 instructions: 35000003 cycles: 14652695 heartbeat IPC: 2.93183 cumulative IPC: 2.38864 (Simulation time: 0 hr 20 min 47 sec) 
Heartbeat CPU 0 instructions: 36000000 cycles: 14991059 heartbeat IPC: 2.95539 cumulative IPC: 2.40143 (Simulation time: 0 hr 21 min 14 sec) 
Heartbeat CPU 0 instructions: 37000000 cycles: 15330175 heartbeat IPC: 2.94884 cumulative IPC: 2.41354 (Simulation time: 0 hr 21 min 42 sec) 
Heartbeat CPU 0 instructions: 38000002 cycles: 15672232 heartbeat IPC: 2.9235 cumulative IPC: 2.42467 (Simulation time: 0 hr 22 min 9 sec) 
Heartbeat CPU 0 instructions: 39000001 cycles: 16011941 heartbeat IPC: 2.94369 cumulative IPC: 2.43568 (Simulation time: 0 hr 22 min 38 sec) 
Heartbeat CPU 0 instructions: 40000000 cycles: 16368272 heartbeat IPC: 2.80638 cumulative IPC: 2.44375 (Simulation time: 0 hr 23 min 7 sec) 
Heartbeat CPU 0 instructions: 41000000 cycles: 16711746 heartbeat IPC: 2.91143 cumulative IPC: 2.45336 (Simulation time: 0 hr 23 min 38 sec) 
Heartbeat CPU 0 instructions: 42000002 cycles: 17053370 heartbeat IPC: 2.9272 cumulative IPC: 2.46286 (Simulation time: 0 hr 24 min 6 sec) 
Heartbeat CPU 0 instructions: 43000000 cycles: 17389405 heartbeat IPC: 2.97587 cumulative IPC: 2.47277 (Simulation time: 0 hr 24 min 34 sec) 
Heartbeat CPU 0 instructions: 44000000 cycles: 17730168 heartbeat IPC: 2.93459 cumulative IPC: 2.48165 (Simulation time: 0 hr 25 min 5 sec) 
Heartbeat CPU 0 instructions: 45000001 cycles: 18066774 heartbeat IPC: 2.97084 cumulative IPC: 2.49076 (Simulation time: 0 hr 25 min 37 sec) 
Heartbeat CPU 0 instructions: 46000000 cycles: 18420215 heartbeat IPC: 2.82932 cumulative IPC: 2.49726 (Simulation time: 0 hr 26 min 7 sec) 
Heartbeat CPU 0 instructions: 47000003 cycles: 18769885 heartbeat IPC: 2.85985 cumulative IPC: 2.50401 (Simulation time: 0 hr 26 min 37 sec) 
Heartbeat CPU 0 instructions: 48000000 cycles: 19119808 heartbeat IPC: 2.85776 cumulative IPC: 2.51049 (Simulation time: 0 hr 27 min 6 sec) 
Heartbeat CPU 0 instructions: 49000003 cycles: 19475217 heartbeat IPC: 2.81367 cumulative IPC: 2.51602 (Simulation time: 0 hr 27 min 33 sec) 
Heartbeat CPU 0 instructions: 50000003 cycles: 19823489 heartbeat IPC: 2.87132 cumulative IPC: 2.52226 (Simulation time: 0 hr 28 min 2 sec) 

Warmup complete CPU 0 instructions: 50000003 cycles: 19823489 (Simulation time: 0 hr 28 min 2 sec) 

Heartbeat CPU 0 instructions: 51000002 cycles: 20780603 heartbeat IPC: 1.04481 cumulative IPC: 1.04481 (Simulation time: 0 hr 28 min 36 sec) 
Heartbeat CPU 0 instructions: 52000000 cycles: 21746073 heartbeat IPC: 1.03576 cumulative IPC: 1.04027 (Simulation time: 0 hr 29 min 14 sec) 
Heartbeat CPU 0 instructions: 53000001 cycles: 22724067 heartbeat IPC: 1.0225 cumulative IPC: 1.03428 (Simulation time: 0 hr 29 min 49 sec) 
Heartbeat CPU 0 instructions: 54000003 cycles: 23704488 heartbeat IPC: 1.01997 cumulative IPC: 1.03066 (Simulation time: 0 hr 30 min 25 sec) 
Heartbeat CPU 0 instructions: 55000000 cycles: 24668260 heartbeat IPC: 1.03759 cumulative IPC: 1.03204 (Simulation time: 0 hr 31 min 0 sec) 
Heartbeat CPU 0 instructions: 56000000 cycles: 25644350 heartbeat IPC: 1.0245 cumulative IPC: 1.03077 (Simulation time: 0 hr 31 min 35 sec) 
Heartbeat CPU 0 instructions: 57000002 cycles: 26611727 heartbeat IPC: 1.03373 cumulative IPC: 1.0312 (Simulation time: 0 hr 32 min 8 sec) 
Heartbeat CPU 0 instructions: 58000003 cycles: 27584523 heartbeat IPC: 1.02797 cumulative IPC: 1.03079 (Simulation time: 0 hr 32 min 42 sec) 
Heartbeat CPU 0 instructions: 59000003 cycles: 28613286 heartbeat IPC: 0.972041 cumulative IPC: 1.02391 (Simulation time: 0 hr 33 min 16 sec) 
Heartbeat CPU 0 instructions: 60000000 cycles: 29822001 heartbeat IPC: 0.827322 cumulative IPC: 1.00015 (Simulation time: 0 hr 33 min 58 sec) 
Heartbeat CPU 0 instructions: 61000000 cycles: 31029339 heartbeat IPC: 0.828268 cumulative IPC: 0.98163 (Simulation time: 0 hr 34 min 37 sec) 
Heartbeat CPU 0 instructions: 62000003 cycles: 32253540 heartbeat IPC: 0.816862 cumulative IPC: 0.965402 (Simulation time: 0 hr 35 min 15 sec) 
Heartbeat CPU 0 instructions: 63000001 cycles: 33485268 heartbeat IPC: 0.811866 cumulative IPC: 0.95156 (Simulation time: 0 hr 35 min 52 sec) 
Heartbeat CPU 0 instructions: 64000000 cycles: 34805865 heartbeat IPC: 0.757233 cumulative IPC: 0.934431 (Simulation time: 0 hr 36 min 30 sec) 
Heartbeat CPU 0 instructions: 65000001 cycles: 36009919 heartbeat IPC: 0.830528 cumulative IPC: 0.926702 (Simulation time: 0 hr 37 min 12 sec) 
Heartbeat CPU 0 instructions: 66000003 cycles: 37211666 heartbeat IPC: 0.832124 cumulative IPC: 0.920165 (Simulation time: 0 hr 37 min 56 sec) 
Heartbeat CPU 0 instructions: 67000000 cycles: 38422833 heartbeat IPC: 0.825647 cumulative IPC: 0.914011 (Simulation time: 0 hr 38 min 38 sec) 
Heartbeat CPU 0 instructions: 68000000 cycles: 39736475 heartbeat IPC: 0.761242 cumulative IPC: 0.903933 (Simulation time: 0 hr 39 min 17 sec) 
Heartbeat CPU 0 instructions: 69000000 cycles: 40932932 heartbeat IPC: 0.835801 cumulative IPC: 0.900071 (Simulation time: 0 hr 39 min 55 sec) 
Heartbeat CPU 0 instructions: 70000002 cycles: 42135146 heartbeat IPC: 0.8318 cumulative IPC: 0.896392 (Simulation time: 0 hr 40 min 33 sec) 
Heartbeat CPU 0 instructions: 71000003 cycles: 43341776 heartbeat IPC: 0.828755 cumulative IPC: 0.892922 (Simulation time: 0 hr 41 min 13 sec) 
Heartbeat CPU 0 instructions: 72000000 cycles: 44549777 heartbeat IPC: 0.827811 cumulative IPC: 0.889741 (Simulation time: 0 hr 41 min 50 sec) 
Heartbeat CPU 0 instructions: 73000002 cycles: 45853172 heartbeat IPC: 0.767229 cumulative IPC: 0.883607 (Simulation time: 0 hr 42 min 28 sec) 
Heartbeat CPU 0 instructions: 74000000 cycles: 47052661 heartbeat IPC: 0.833687 cumulative IPC: 0.881407 (Simulation time: 0 hr 43 min 8 sec) 
Heartbeat CPU 0 instructions: 75000001 cycles: 48254050 heartbeat IPC: 0.832371 cumulative IPC: 0.879335 (Simulation time: 0 hr 43 min 47 sec) 
Heartbeat CPU 0 instructions: 76000000 cycles: 49463347 heartbeat IPC: 0.826926 cumulative IPC: 0.877197 (Simulation time: 0 hr 44 min 25 sec) 
Heartbeat CPU 0 instructions: 77000001 cycles: 50720451 heartbeat IPC: 0.79548 cumulative IPC: 0.873872 (Simulation time: 0 hr 45 min 2 sec) 
Heartbeat CPU 0 instructions: 78000003 cycles: 51886938 heartbeat IPC: 0.857277 cumulative IPC: 0.873268 (Simulation time: 0 hr 45 min 29 sec) 
Heartbeat CPU 0 instructions: 79000000 cycles: 52805963 heartbeat IPC: 1.08811 cumulative IPC: 0.879255 (Simulation time: 0 hr 45 min 59 sec) 
Heartbeat CPU 0 instructions: 80000000 cycles: 53709596 heartbeat IPC: 1.10664 cumulative IPC: 0.885318 (Simulation time: 0 hr 46 min 28 sec) 
Heartbeat CPU 0 instructions: 81000000 cycles: 54555410 heartbeat IPC: 1.18229 cumulative IPC: 0.892551 (Simulation time: 0 hr 46 min 58 sec) 
Heartbeat CPU 0 instructions: 82000001 cycles: 55447397 heartbeat IPC: 1.12109 cumulative IPC: 0.898273 (Simulation time: 0 hr 47 min 25 sec) 
Heartbeat CPU 0 instructions: 83000000 cycles: 56371285 heartbeat IPC: 1.08238 cumulative IPC: 0.902927 (Simulation time: 0 hr 47 min 54 sec) 
Heartbeat CPU 0 instructions: 84000000 cycles: 57288152 heartbeat IPC: 1.09067 cumulative IPC: 0.907522 (Simulation time: 0 hr 48 min 23 sec) 
Heartbeat CPU 0 instructions: 85000002 cycles: 58223481 heartbeat IPC: 1.06914 cumulative IPC: 0.911458 (Simulation time: 0 hr 49 min 0 sec) 
Heartbeat CPU 0 instructions: 86000002 cycles: 59152509 heartbeat IPC: 1.07639 cumulative IPC: 0.915355 (Simulation time: 0 hr 49 min 38 sec) 
Heartbeat CPU 0 instructions: 87000002 cycles: 60081525 heartbeat IPC: 1.07641 cumulative IPC: 0.919071 (Simulation time: 0 hr 50 min 17 sec) 
Heartbeat CPU 0 instructions: 88000000 cycles: 61135591 heartbeat IPC: 0.948705 cumulative IPC: 0.919827 (Simulation time: 0 hr 50 min 54 sec) 
Heartbeat CPU 0 instructions: 89000002 cycles: 62232414 heartbeat IPC: 0.911726 cumulative IPC: 0.919618 (Simulation time: 0 hr 51 min 31 sec) 
Heartbeat CPU 0 instructions: 90000001 cycles: 63327761 heartbeat IPC: 0.912952 cumulative IPC: 0.91945 (Simulation time: 0 hr 52 min 10 sec) 
Heartbeat CPU 0 instructions: 91000001 cycles: 64430987 heartbeat IPC: 0.906433 cumulative IPC: 0.919128 (Simulation time: 0 hr 52 min 48 sec) 
Heartbeat CPU 0 instructions: 92000000 cycles: 65520819 heartbeat IPC: 0.917572 cumulative IPC: 0.919091 (Simulation time: 0 hr 53 min 29 sec) 
Heartbeat CPU 0 instructions: 93000001 cycles: 66605015 heartbeat IPC: 0.922343 cumulative IPC: 0.919166 (Simulation time: 0 hr 54 min 5 sec) 
Heartbeat CPU 0 instructions: 94000001 cycles: 67690726 heartbeat IPC: 0.921055 cumulative IPC: 0.919209 (Simulation time: 0 hr 54 min 42 sec) 
Heartbeat CPU 0 instructions: 95000000 cycles: 68781967 heartbeat IPC: 0.916387 cumulative IPC: 0.919146 (Simulation time: 0 hr 55 min 21 sec) 
Heartbeat CPU 0 instructions: 96000000 cycles: 69871598 heartbeat IPC: 0.917742 cumulative IPC: 0.919116 (Simulation time: 0 hr 55 min 59 sec) 
Heartbeat CPU 0 instructions: 97000002 cycles: 70960155 heartbeat IPC: 0.918649 cumulative IPC: 0.919106 (Simulation time: 0 hr 56 min 37 sec) 
Heartbeat CPU 0 instructions: 98000002 cycles: 72051557 heartbeat IPC: 0.916253 cumulative IPC: 0.919046 (Simulation time: 0 hr 57 min 13 sec) 
Heartbeat CPU 0 instructions: 99000000 cycles: 73141483 heartbeat IPC: 0.917492 cumulative IPC: 0.919014 (Simulation time: 0 hr 57 min 52 sec) 
Heartbeat CPU 0 instructions: 100000000 cycles: 74230645 heartbeat IPC: 0.918137 cumulative IPC: 0.918997 (Simulation time: 0 hr 58 min 30 sec) 
Heartbeat CPU 0 instructions: 101000000 cycles: 75323743 heartbeat IPC: 0.914831 cumulative IPC: 0.918915 (Simulation time: 0 hr 59 min 9 sec) 
Heartbeat CPU 0 instructions: 102000000 cycles: 76421470 heartbeat IPC: 0.910973 cumulative IPC: 0.918761 (Simulation time: 0 hr 59 min 47 sec) 
Heartbeat CPU 0 instructions: 103000002 cycles: 77517245 heartbeat IPC: 0.912598 cumulative IPC: 0.918644 (Simulation time: 1 hr 0 min 25 sec) 
Heartbeat CPU 0 instructions: 104000000 cycles: 78610565 heartbeat IPC: 0.914643 cumulative IPC: 0.918569 (Simulation time: 1 hr 1 min 2 sec) 
Heartbeat CPU 0 instructions: 105000003 cycles: 79706183 heartbeat IPC: 0.91273 cumulative IPC: 0.918462 (Simulation time: 1 hr 1 min 41 sec) 
Heartbeat CPU 0 instructions: 106000002 cycles: 80806222 heartbeat IPC: 0.909058 cumulative IPC: 0.918293 (Simulation time: 1 hr 2 min 17 sec) 
Heartbeat CPU 0 instructions: 107000001 cycles: 81894279 heartbeat IPC: 0.919069 cumulative IPC: 0.918306 (Simulation time: 1 hr 2 min 57 sec) 
Heartbeat CPU 0 instructions: 108000000 cycles: 82989222 heartbeat IPC: 0.913289 cumulative IPC: 0.918219 (Simulation time: 1 hr 3 min 35 sec) 
Heartbeat CPU 0 instructions: 109000001 cycles: 84084073 heartbeat IPC: 0.913367 cumulative IPC: 0.918137 (Simulation time: 1 hr 4 min 9 sec) 
Heartbeat CPU 0 instructions: 110000002 cycles: 85185434 heartbeat IPC: 0.907968 cumulative IPC: 0.917965 (Simulation time: 1 hr 4 min 48 sec) 
Heartbeat CPU 0 instructions: 111000000 cycles: 86276744 heartbeat IPC: 0.916328 cumulative IPC: 0.917938 (Simulation time: 1 hr 5 min 27 sec) 
Heartbeat CPU 0 instructions: 112000000 cycles: 87367962 heartbeat IPC: 0.916407 cumulative IPC: 0.917914 (Simulation time: 1 hr 6 min 5 sec) 
Heartbeat CPU 0 instructions: 113000002 cycles: 88458944 heartbeat IPC: 0.916607 cumulative IPC: 0.917893 (Simulation time: 1 hr 6 min 44 sec) 
Heartbeat CPU 0 instructions: 114000001 cycles: 89552366 heartbeat IPC: 0.914559 cumulative IPC: 0.917841 (Simulation time: 1 hr 7 min 23 sec) 
Heartbeat CPU 0 instructions: 115000001 cycles: 90641729 heartbeat IPC: 0.917968 cumulative IPC: 0.917843 (Simulation time: 1 hr 8 min 4 sec) 
Heartbeat CPU 0 instructions: 116000000 cycles: 91729604 heartbeat IPC: 0.919222 cumulative IPC: 0.917863 (Simulation time: 1 hr 8 min 41 sec) 
Heartbeat CPU 0 instructions: 117000001 cycles: 92818778 heartbeat IPC: 0.918128 cumulative IPC: 0.917867 (Simulation time: 1 hr 9 min 18 sec) 
Heartbeat CPU 0 instructions: 118000000 cycles: 93906757 heartbeat IPC: 0.919134 cumulative IPC: 0.917886 (Simulation time: 1 hr 9 min 59 sec) 
Heartbeat CPU 0 instructions: 119000000 cycles: 94996246 heartbeat IPC: 0.917862 cumulative IPC: 0.917886 (Simulation time: 1 hr 10 min 37 sec) 
Heartbeat CPU 0 instructions: 120000000 cycles: 96085812 heartbeat IPC: 0.917797 cumulative IPC: 0.917884 (Simulation time: 1 hr 11 min 15 sec) 
Heartbeat CPU 0 instructions: 121000000 cycles: 97175644 heartbeat IPC: 0.917573 cumulative IPC: 0.91788 (Simulation time: 1 hr 11 min 51 sec) 
Heartbeat CPU 0 instructions: 122000000 cycles: 98268450 heartbeat IPC: 0.915075 cumulative IPC: 0.917841 (Simulation time: 1 hr 12 min 24 sec) 
Heartbeat CPU 0 instructions: 123000001 cycles: 99363255 heartbeat IPC: 0.913406 cumulative IPC: 0.91778 (Simulation time: 1 hr 12 min 58 sec) 
Heartbeat CPU 0 instructions: 124000000 cycles: 100462295 heartbeat IPC: 0.909884 cumulative IPC: 0.917672 (Simulation time: 1 hr 13 min 31 sec) 
Heartbeat CPU 0 instructions: 125000002 cycles: 101555566 heartbeat IPC: 0.914688 cumulative IPC: 0.917632 (Simulation time: 1 hr 14 min 4 sec) 
Heartbeat CPU 0 instructions: 126000002 cycles: 102646494 heartbeat IPC: 0.916651 cumulative IPC: 0.917619 (Simulation time: 1 hr 14 min 35 sec) 
Heartbeat CPU 0 instructions: 127000003 cycles: 103735841 heartbeat IPC: 0.917982 cumulative IPC: 0.917624 (Simulation time: 1 hr 15 min 9 sec) 
Heartbeat CPU 0 instructions: 128000000 cycles: 104826697 heartbeat IPC: 0.916709 cumulative IPC: 0.917612 (Simulation time: 1 hr 15 min 42 sec) 
Heartbeat CPU 0 instructions: 129000001 cycles: 105916462 heartbeat IPC: 0.91763 cumulative IPC: 0.917613 (Simulation time: 1 hr 16 min 14 sec) 
Heartbeat CPU 0 instructions: 130000001 cycles: 107004362 heartbeat IPC: 0.919202 cumulative IPC: 0.917632 (Simulation time: 1 hr 16 min 45 sec) 
Heartbeat CPU 0 instructions: 131000001 cycles: 108097609 heartbeat IPC: 0.914706 cumulative IPC: 0.917596 (Simulation time: 1 hr 17 min 16 sec) 
Heartbeat CPU 0 instructions: 132000000 cycles: 109191485 heartbeat IPC: 0.91418 cumulative IPC: 0.917554 (Simulation time: 1 hr 17 min 50 sec) 
Heartbeat CPU 0 instructions: 133000002 cycles: 110297566 heartbeat IPC: 0.904095 cumulative IPC: 0.91739 (Simulation time: 1 hr 18 min 21 sec) 
Heartbeat CPU 0 instructions: 134000000 cycles: 111393308 heartbeat IPC: 0.912622 cumulative IPC: 0.917333 (Simulation time: 1 hr 18 min 52 sec) 
Heartbeat CPU 0 instructions: 135000003 cycles: 112496114 heartbeat IPC: 0.906781 cumulative IPC: 0.917207 (Simulation time: 1 hr 19 min 22 sec) 
Heartbeat CPU 0 instructions: 136000000 cycles: 113596381 heartbeat IPC: 0.908868 cumulative IPC: 0.917109 (Simulation time: 1 hr 19 min 51 sec) 
Heartbeat CPU 0 instructions: 137000001 cycles: 114693684 heartbeat IPC: 0.911326 cumulative IPC: 0.917042 (Simulation time: 1 hr 20 min 22 sec) 
Heartbeat CPU 0 instructions: 138000000 cycles: 115815265 heartbeat IPC: 0.891598 cumulative IPC: 0.916745 (Simulation time: 1 hr 20 min 52 sec) 
Heartbeat CPU 0 instructions: 139000002 cycles: 116450323 heartbeat IPC: 1.57466 cumulative IPC: 0.921069 (Simulation time: 1 hr 21 min 22 sec) 
Heartbeat CPU 0 instructions: 140000000 cycles: 117082858 heartbeat IPC: 1.58094 cumulative IPC: 0.925361 (Simulation time: 1 hr 21 min 53 sec) 
Heartbeat CPU 0 instructions: 141000000 cycles: 117715012 heartbeat IPC: 1.58189 cumulative IPC: 0.9296 (Simulation time: 1 hr 22 min 22 sec) 
Heartbeat CPU 0 instructions: 142000002 cycles: 118346817 heartbeat IPC: 1.58277 cumulative IPC: 0.933789 (Simulation time: 1 hr 22 min 49 sec) 
Heartbeat CPU 0 instructions: 143000002 cycles: 118984588 heartbeat IPC: 1.56796 cumulative IPC: 0.937868 (Simulation time: 1 hr 23 min 16 sec) 
Heartbeat CPU 0 instructions: 144000000 cycles: 119624325 heartbeat IPC: 1.56314 cumulative IPC: 0.941876 (Simulation time: 1 hr 23 min 43 sec) 
Heartbeat CPU 0 instructions: 145000001 cycles: 120264771 heartbeat IPC: 1.56141 cumulative IPC: 0.945826 (Simulation time: 1 hr 24 min 8 sec) 
Heartbeat CPU 0 instructions: 146000002 cycles: 120904024 heartbeat IPC: 1.56433 cumulative IPC: 0.949738 (Simulation time: 1 hr 24 min 33 sec) 
Heartbeat CPU 0 instructions: 147000002 cycles: 122241949 heartbeat IPC: 0.747426 cumulative IPC: 0.947095 (Simulation time: 1 hr 25 min 1 sec) 
Heartbeat CPU 0 instructions: 148000000 cycles: 122760722 heartbeat IPC: 1.92762 cumulative IPC: 0.952036 (Simulation time: 1 hr 25 min 22 sec) 
Heartbeat CPU 0 instructions: 149000000 cycles: 123268353 heartbeat IPC: 1.96993 cumulative IPC: 0.957032 (Simulation time: 1 hr 25 min 46 sec) 
Heartbeat CPU 0 instructions: 150000003 cycles: 123776974 heartbeat IPC: 1.96611 cumulative IPC: 0.961969 (Simulation time: 1 hr 26 min 8 sec) 
Finished CPU 0 instructions: 100000000 cycles: 103953485 cummulative IPC: 0.961969 (Simulation time: 1 hr 26 min 8 sec) 

ChampSim completed all CPUs

Region of Interest Statistics

CPU 0 cummulative IPC: 0.961969 instructions: 100000000 cycles: 103953485
LLC TOTAL     ACCESS:     678834  HIT:     551072  MISS:     127762
LLC LOAD      ACCESS:     201692  HIT:     200288  MISS:       1404
LLC RFO       ACCESS:      77432  HIT:      16839  MISS:      60593
LLC PREFETCH  ACCESS:     319041  HIT:     269029  MISS:      50012
LLC WRITEBACK ACCESS:      80669  HIT:      64916  MISS:      15753
OPTgen accesses: 19490
OPTgen hits: 21997
OPTgen hit rate: 112.863


