
*** ChampSim Multicore Out-of-Order Simulator ***

Warmup Instructions: 50000000
Simulation Instructions: 100000000
Configuration: 2
Number of CPUs: 1
LLC sets: 2048
LLC ways: 16
Off-chip DRAM Channels: 1 Width: 64-bit Data Rate: 1600 MT/s

CPU 0 runs /datasets/cs240c-wi22-a00-public/data/Assignment2-gz/calculix_2655B.trace.gz
CPU 0 L1D next line prefetcher
CPU 0 L2C IP-based stride prefetcher
Initialize Hawkeye state
Heartbeat CPU 0 instructions: 1000003 cycles: 392383 heartbeat IPC: 2.54854 cumulative IPC: 2.54854 (Simulation time: 0 hr 0 min 29 sec) 
Heartbeat CPU 0 instructions: 2000001 cycles: 785148 heartbeat IPC: 2.54605 cumulative IPC: 2.54729 (Simulation time: 0 hr 1 min 4 sec) 
Heartbeat CPU 0 instructions: 3000002 cycles: 1177684 heartbeat IPC: 2.54754 cumulative IPC: 2.54737 (Simulation time: 0 hr 1 min 33 sec) 
Heartbeat CPU 0 instructions: 4000000 cycles: 1569447 heartbeat IPC: 2.55256 cumulative IPC: 2.54867 (Simulation time: 0 hr 2 min 4 sec) 
Heartbeat CPU 0 instructions: 5000003 cycles: 1961684 heartbeat IPC: 2.54949 cumulative IPC: 2.54883 (Simulation time: 0 hr 2 min 36 sec) 
Heartbeat CPU 0 instructions: 6000003 cycles: 2353797 heartbeat IPC: 2.55029 cumulative IPC: 2.54907 (Simulation time: 0 hr 3 min 7 sec) 
Heartbeat CPU 0 instructions: 7000002 cycles: 2745952 heartbeat IPC: 2.55001 cumulative IPC: 2.54921 (Simulation time: 0 hr 3 min 36 sec) 
Heartbeat CPU 0 instructions: 8000000 cycles: 3137922 heartbeat IPC: 2.55121 cumulative IPC: 2.54946 (Simulation time: 0 hr 4 min 11 sec) 
Heartbeat CPU 0 instructions: 9000001 cycles: 3530092 heartbeat IPC: 2.54992 cumulative IPC: 2.54951 (Simulation time: 0 hr 4 min 42 sec) 
Heartbeat CPU 0 instructions: 10000000 cycles: 3921558 heartbeat IPC: 2.5545 cumulative IPC: 2.55001 (Simulation time: 0 hr 5 min 12 sec) 
Heartbeat CPU 0 instructions: 11000001 cycles: 4313698 heartbeat IPC: 2.55011 cumulative IPC: 2.55002 (Simulation time: 0 hr 5 min 42 sec) 
Heartbeat CPU 0 instructions: 12000000 cycles: 4705815 heartbeat IPC: 2.55026 cumulative IPC: 2.55004 (Simulation time: 0 hr 6 min 12 sec) 
Heartbeat CPU 0 instructions: 13000001 cycles: 5097794 heartbeat IPC: 2.55116 cumulative IPC: 2.55012 (Simulation time: 0 hr 6 min 43 sec) 
Heartbeat CPU 0 instructions: 14000000 cycles: 5489937 heartbeat IPC: 2.55009 cumulative IPC: 2.55012 (Simulation time: 0 hr 7 min 16 sec) 
Heartbeat CPU 0 instructions: 15000000 cycles: 5882119 heartbeat IPC: 2.54984 cumulative IPC: 2.5501 (Simulation time: 0 hr 7 min 49 sec) 
Heartbeat CPU 0 instructions: 16000000 cycles: 6273564 heartbeat IPC: 2.55464 cumulative IPC: 2.55038 (Simulation time: 0 hr 8 min 24 sec) 
Heartbeat CPU 0 instructions: 17000001 cycles: 6665713 heartbeat IPC: 2.55005 cumulative IPC: 2.55036 (Simulation time: 0 hr 8 min 56 sec) 
Heartbeat CPU 0 instructions: 18000000 cycles: 7057686 heartbeat IPC: 2.55119 cumulative IPC: 2.55041 (Simulation time: 0 hr 9 min 30 sec) 
Heartbeat CPU 0 instructions: 19000001 cycles: 7449723 heartbeat IPC: 2.55078 cumulative IPC: 2.55043 (Simulation time: 0 hr 10 min 0 sec) 
Heartbeat CPU 0 instructions: 20000000 cycles: 7841801 heartbeat IPC: 2.55051 cumulative IPC: 2.55043 (Simulation time: 0 hr 10 min 34 sec) 
Heartbeat CPU 0 instructions: 21000000 cycles: 8233873 heartbeat IPC: 2.55055 cumulative IPC: 2.55044 (Simulation time: 0 hr 11 min 7 sec) 
Heartbeat CPU 0 instructions: 22000003 cycles: 8625361 heartbeat IPC: 2.55436 cumulative IPC: 2.55062 (Simulation time: 0 hr 11 min 42 sec) 
Heartbeat CPU 0 instructions: 23000001 cycles: 9017267 heartbeat IPC: 2.55163 cumulative IPC: 2.55066 (Simulation time: 0 hr 12 min 10 sec) 
Heartbeat CPU 0 instructions: 24000000 cycles: 9409396 heartbeat IPC: 2.55018 cumulative IPC: 2.55064 (Simulation time: 0 hr 12 min 43 sec) 
Heartbeat CPU 0 instructions: 25000000 cycles: 9801560 heartbeat IPC: 2.54995 cumulative IPC: 2.55061 (Simulation time: 0 hr 13 min 15 sec) 
Heartbeat CPU 0 instructions: 26000003 cycles: 10193690 heartbeat IPC: 2.55018 cumulative IPC: 2.5506 (Simulation time: 0 hr 13 min 48 sec) 
Heartbeat CPU 0 instructions: 27000002 cycles: 10584895 heartbeat IPC: 2.5562 cumulative IPC: 2.5508 (Simulation time: 0 hr 14 min 21 sec) 
Heartbeat CPU 0 instructions: 28000000 cycles: 10976916 heartbeat IPC: 2.55088 cumulative IPC: 2.55081 (Simulation time: 0 hr 14 min 54 sec) 
Heartbeat CPU 0 instructions: 29000001 cycles: 11368996 heartbeat IPC: 2.5505 cumulative IPC: 2.5508 (Simulation time: 0 hr 15 min 24 sec) 
Heartbeat CPU 0 instructions: 30000002 cycles: 11761165 heartbeat IPC: 2.54992 cumulative IPC: 2.55077 (Simulation time: 0 hr 16 min 0 sec) 
Heartbeat CPU 0 instructions: 31000001 cycles: 12153347 heartbeat IPC: 2.54983 cumulative IPC: 2.55074 (Simulation time: 0 hr 16 min 35 sec) 
Heartbeat CPU 0 instructions: 32000000 cycles: 12545302 heartbeat IPC: 2.55131 cumulative IPC: 2.55076 (Simulation time: 0 hr 17 min 7 sec) 
Heartbeat CPU 0 instructions: 33000003 cycles: 12936585 heartbeat IPC: 2.5557 cumulative IPC: 2.55091 (Simulation time: 0 hr 17 min 40 sec) 
Heartbeat CPU 0 instructions: 34000003 cycles: 13328592 heartbeat IPC: 2.55097 cumulative IPC: 2.55091 (Simulation time: 0 hr 18 min 12 sec) 
Heartbeat CPU 0 instructions: 35000003 cycles: 13720663 heartbeat IPC: 2.55056 cumulative IPC: 2.5509 (Simulation time: 0 hr 18 min 47 sec) 
Heartbeat CPU 0 instructions: 36000000 cycles: 14112691 heartbeat IPC: 2.55083 cumulative IPC: 2.5509 (Simulation time: 0 hr 19 min 19 sec) 
Heartbeat CPU 0 instructions: 37000003 cycles: 14504671 heartbeat IPC: 2.55116 cumulative IPC: 2.5509 (Simulation time: 0 hr 19 min 51 sec) 
Heartbeat CPU 0 instructions: 38000002 cycles: 14896782 heartbeat IPC: 2.5503 cumulative IPC: 2.55089 (Simulation time: 0 hr 20 min 25 sec) 
Heartbeat CPU 0 instructions: 39000001 cycles: 15298309 heartbeat IPC: 2.49049 cumulative IPC: 2.5493 (Simulation time: 0 hr 21 min 2 sec) 
Heartbeat CPU 0 instructions: 40000000 cycles: 15690483 heartbeat IPC: 2.54989 cumulative IPC: 2.54932 (Simulation time: 0 hr 21 min 36 sec) 
Heartbeat CPU 0 instructions: 41000000 cycles: 16081601 heartbeat IPC: 2.55677 cumulative IPC: 2.5495 (Simulation time: 0 hr 22 min 11 sec) 
Heartbeat CPU 0 instructions: 42000000 cycles: 16472712 heartbeat IPC: 2.55682 cumulative IPC: 2.54967 (Simulation time: 0 hr 22 min 47 sec) 
Heartbeat CPU 0 instructions: 43000002 cycles: 16864003 heartbeat IPC: 2.55565 cumulative IPC: 2.54981 (Simulation time: 0 hr 23 min 22 sec) 
Heartbeat CPU 0 instructions: 44000000 cycles: 17260591 heartbeat IPC: 2.5215 cumulative IPC: 2.54916 (Simulation time: 0 hr 24 min 4 sec) 
Heartbeat CPU 0 instructions: 45000001 cycles: 17652359 heartbeat IPC: 2.55253 cumulative IPC: 2.54923 (Simulation time: 0 hr 24 min 37 sec) 
Heartbeat CPU 0 instructions: 46000003 cycles: 18046884 heartbeat IPC: 2.5347 cumulative IPC: 2.54892 (Simulation time: 0 hr 25 min 11 sec) 
Heartbeat CPU 0 instructions: 47000000 cycles: 18441267 heartbeat IPC: 2.5356 cumulative IPC: 2.54863 (Simulation time: 0 hr 25 min 47 sec) 
Heartbeat CPU 0 instructions: 48000000 cycles: 18834478 heartbeat IPC: 2.54316 cumulative IPC: 2.54852 (Simulation time: 0 hr 26 min 25 sec) 
Heartbeat CPU 0 instructions: 49000001 cycles: 19227973 heartbeat IPC: 2.54133 cumulative IPC: 2.54837 (Simulation time: 0 hr 27 min 0 sec) 
Heartbeat CPU 0 instructions: 50000003 cycles: 19618191 heartbeat IPC: 2.56268 cumulative IPC: 2.54866 (Simulation time: 0 hr 27 min 33 sec) 

Warmup complete CPU 0 instructions: 50000003 cycles: 19618191 (Simulation time: 0 hr 27 min 33 sec) 

Heartbeat CPU 0 instructions: 51000001 cycles: 20095079 heartbeat IPC: 2.09692 cumulative IPC: 2.09692 (Simulation time: 0 hr 28 min 11 sec) 
Heartbeat CPU 0 instructions: 52000000 cycles: 20527118 heartbeat IPC: 2.3146 cumulative IPC: 2.20039 (Simulation time: 0 hr 28 min 51 sec) 
Heartbeat CPU 0 instructions: 53000002 cycles: 21056967 heartbeat IPC: 1.88733 cumulative IPC: 2.0851 (Simulation time: 0 hr 29 min 30 sec) 
Heartbeat CPU 0 instructions: 54000002 cycles: 21847634 heartbeat IPC: 1.26475 cumulative IPC: 1.79417 (Simulation time: 0 hr 30 min 12 sec) 
Heartbeat CPU 0 instructions: 55000002 cycles: 22376723 heartbeat IPC: 1.89004 cumulative IPC: 1.81256 (Simulation time: 0 hr 30 min 52 sec) 
Heartbeat CPU 0 instructions: 56000000 cycles: 22857566 heartbeat IPC: 2.07968 cumulative IPC: 1.85221 (Simulation time: 0 hr 31 min 31 sec) 
Heartbeat CPU 0 instructions: 57000000 cycles: 23382566 heartbeat IPC: 1.90476 cumulative IPC: 1.85954 (Simulation time: 0 hr 32 min 14 sec) 
Heartbeat CPU 0 instructions: 58000003 cycles: 23824510 heartbeat IPC: 2.26274 cumulative IPC: 1.9019 (Simulation time: 0 hr 32 min 53 sec) 
Heartbeat CPU 0 instructions: 59000001 cycles: 24334929 heartbeat IPC: 1.95917 cumulative IPC: 1.9081 (Simulation time: 0 hr 33 min 37 sec) 
Heartbeat CPU 0 instructions: 60000000 cycles: 24781591 heartbeat IPC: 2.23883 cumulative IPC: 1.93671 (Simulation time: 0 hr 34 min 15 sec) 
Heartbeat CPU 0 instructions: 61000002 cycles: 25253913 heartbeat IPC: 2.1172 cumulative IPC: 1.95183 (Simulation time: 0 hr 34 min 53 sec) 
Heartbeat CPU 0 instructions: 62000003 cycles: 25769775 heartbeat IPC: 1.9385 cumulative IPC: 1.95072 (Simulation time: 0 hr 35 min 33 sec) 
Heartbeat CPU 0 instructions: 63000003 cycles: 26443418 heartbeat IPC: 1.48447 cumulative IPC: 1.9047 (Simulation time: 0 hr 36 min 14 sec) 
Heartbeat CPU 0 instructions: 64000000 cycles: 26931058 heartbeat IPC: 2.05069 cumulative IPC: 1.91443 (Simulation time: 0 hr 36 min 53 sec) 
Heartbeat CPU 0 instructions: 65000001 cycles: 27458794 heartbeat IPC: 1.89489 cumulative IPC: 1.91312 (Simulation time: 0 hr 37 min 37 sec) 
Heartbeat CPU 0 instructions: 66000001 cycles: 28108969 heartbeat IPC: 1.53805 cumulative IPC: 1.8844 (Simulation time: 0 hr 38 min 14 sec) 
Heartbeat CPU 0 instructions: 67000001 cycles: 28687460 heartbeat IPC: 1.72864 cumulative IPC: 1.87446 (Simulation time: 0 hr 38 min 54 sec) 
Heartbeat CPU 0 instructions: 68000000 cycles: 29227292 heartbeat IPC: 1.85243 cumulative IPC: 1.87322 (Simulation time: 0 hr 39 min 34 sec) 
Heartbeat CPU 0 instructions: 69000002 cycles: 29674421 heartbeat IPC: 2.2365 cumulative IPC: 1.88938 (Simulation time: 0 hr 40 min 15 sec) 
Heartbeat CPU 0 instructions: 70000002 cycles: 30125343 heartbeat IPC: 2.21768 cumulative IPC: 1.90347 (Simulation time: 0 hr 40 min 57 sec) 
Heartbeat CPU 0 instructions: 71000003 cycles: 30579727 heartbeat IPC: 2.20078 cumulative IPC: 1.91579 (Simulation time: 0 hr 41 min 38 sec) 
Heartbeat CPU 0 instructions: 72000000 cycles: 31029999 heartbeat IPC: 2.22087 cumulative IPC: 1.92783 (Simulation time: 0 hr 42 min 21 sec) 
Heartbeat CPU 0 instructions: 73000000 cycles: 31481294 heartbeat IPC: 2.21585 cumulative IPC: 1.93878 (Simulation time: 0 hr 43 min 2 sec) 
Heartbeat CPU 0 instructions: 74000000 cycles: 31931275 heartbeat IPC: 2.22232 cumulative IPC: 1.94915 (Simulation time: 0 hr 43 min 44 sec) 
Heartbeat CPU 0 instructions: 75000000 cycles: 32500822 heartbeat IPC: 1.75578 cumulative IPC: 1.9406 (Simulation time: 0 hr 44 min 29 sec) 
Heartbeat CPU 0 instructions: 76000000 cycles: 32962507 heartbeat IPC: 2.16598 cumulative IPC: 1.94839 (Simulation time: 0 hr 45 min 10 sec) 
Heartbeat CPU 0 instructions: 77000003 cycles: 33408671 heartbeat IPC: 2.24133 cumulative IPC: 1.95787 (Simulation time: 0 hr 45 min 50 sec) 
Heartbeat CPU 0 instructions: 78000002 cycles: 33855753 heartbeat IPC: 2.23672 cumulative IPC: 1.96663 (Simulation time: 0 hr 46 min 32 sec) 
Heartbeat CPU 0 instructions: 79000003 cycles: 34300129 heartbeat IPC: 2.25035 cumulative IPC: 1.97522 (Simulation time: 0 hr 47 min 9 sec) 
Heartbeat CPU 0 instructions: 80000000 cycles: 34744588 heartbeat IPC: 2.24992 cumulative IPC: 1.98329 (Simulation time: 0 hr 47 min 46 sec) 
Heartbeat CPU 0 instructions: 81000001 cycles: 35189583 heartbeat IPC: 2.24722 cumulative IPC: 1.99083 (Simulation time: 0 hr 48 min 29 sec) 
Heartbeat CPU 0 instructions: 82000001 cycles: 35634361 heartbeat IPC: 2.24831 cumulative IPC: 1.99798 (Simulation time: 0 hr 49 min 11 sec) 
Heartbeat CPU 0 instructions: 83000000 cycles: 36077465 heartbeat IPC: 2.2568 cumulative IPC: 2.00495 (Simulation time: 0 hr 49 min 50 sec) 
Heartbeat CPU 0 instructions: 84000000 cycles: 36590700 heartbeat IPC: 1.94843 cumulative IPC: 2.00324 (Simulation time: 0 hr 50 min 31 sec) 
Heartbeat CPU 0 instructions: 85000002 cycles: 37113479 heartbeat IPC: 1.91286 cumulative IPC: 2.00054 (Simulation time: 0 hr 51 min 15 sec) 
Heartbeat CPU 0 instructions: 86000001 cycles: 37808096 heartbeat IPC: 1.43964 cumulative IPC: 1.97912 (Simulation time: 0 hr 52 min 2 sec) 
Heartbeat CPU 0 instructions: 87000001 cycles: 38367144 heartbeat IPC: 1.78876 cumulative IPC: 1.97344 (Simulation time: 0 hr 52 min 51 sec) 
Heartbeat CPU 0 instructions: 88000000 cycles: 38806061 heartbeat IPC: 2.27833 cumulative IPC: 1.98042 (Simulation time: 0 hr 53 min 36 sec) 
Heartbeat CPU 0 instructions: 89000000 cycles: 39242173 heartbeat IPC: 2.29299 cumulative IPC: 1.98736 (Simulation time: 0 hr 54 min 17 sec) 
Heartbeat CPU 0 instructions: 90000001 cycles: 39678798 heartbeat IPC: 2.2903 cumulative IPC: 1.99396 (Simulation time: 0 hr 55 min 2 sec) 
Heartbeat CPU 0 instructions: 91000002 cycles: 40205646 heartbeat IPC: 1.89808 cumulative IPC: 1.9915 (Simulation time: 0 hr 55 min 46 sec) 
Heartbeat CPU 0 instructions: 92000000 cycles: 40666657 heartbeat IPC: 2.16914 cumulative IPC: 1.99539 (Simulation time: 0 hr 56 min 28 sec) 
Heartbeat CPU 0 instructions: 93000000 cycles: 41101502 heartbeat IPC: 2.29967 cumulative IPC: 2.00155 (Simulation time: 0 hr 57 min 11 sec) 
Heartbeat CPU 0 instructions: 94000001 cycles: 41533837 heartbeat IPC: 2.31302 cumulative IPC: 2.0077 (Simulation time: 0 hr 57 min 52 sec) 
Heartbeat CPU 0 instructions: 95000003 cycles: 42034854 heartbeat IPC: 1.99594 cumulative IPC: 2.00744 (Simulation time: 0 hr 58 min 30 sec) 
Heartbeat CPU 0 instructions: 96000000 cycles: 42463743 heartbeat IPC: 2.3316 cumulative IPC: 2.01352 (Simulation time: 0 hr 59 min 15 sec) 
Heartbeat CPU 0 instructions: 97000002 cycles: 42894194 heartbeat IPC: 2.32315 cumulative IPC: 2.01925 (Simulation time: 1 hr 0 min 1 sec) 
Heartbeat CPU 0 instructions: 98000000 cycles: 43322404 heartbeat IPC: 2.3353 cumulative IPC: 2.02496 (Simulation time: 1 hr 0 min 46 sec) 
Heartbeat CPU 0 instructions: 99000001 cycles: 43830556 heartbeat IPC: 1.96792 cumulative IPC: 2.02376 (Simulation time: 1 hr 1 min 27 sec) 
Heartbeat CPU 0 instructions: 100000000 cycles: 44260349 heartbeat IPC: 2.3267 cumulative IPC: 2.02904 (Simulation time: 1 hr 2 min 9 sec) 
Heartbeat CPU 0 instructions: 101000001 cycles: 44688337 heartbeat IPC: 2.33652 cumulative IPC: 2.03429 (Simulation time: 1 hr 2 min 48 sec) 
Heartbeat CPU 0 instructions: 102000003 cycles: 45116023 heartbeat IPC: 2.33817 cumulative IPC: 2.03939 (Simulation time: 1 hr 3 min 30 sec) 
Heartbeat CPU 0 instructions: 103000003 cycles: 45612063 heartbeat IPC: 2.01597 cumulative IPC: 2.03894 (Simulation time: 1 hr 4 min 12 sec) 
Heartbeat CPU 0 instructions: 104000000 cycles: 46158623 heartbeat IPC: 1.82962 cumulative IPC: 2.03463 (Simulation time: 1 hr 4 min 52 sec) 
Heartbeat CPU 0 instructions: 105000001 cycles: 46577622 heartbeat IPC: 2.38664 cumulative IPC: 2.0401 (Simulation time: 1 hr 5 min 31 sec) 
Heartbeat CPU 0 instructions: 106000002 cycles: 47024779 heartbeat IPC: 2.23635 cumulative IPC: 2.0433 (Simulation time: 1 hr 6 min 13 sec) 
Heartbeat CPU 0 instructions: 107000001 cycles: 47476321 heartbeat IPC: 2.21463 cumulative IPC: 2.04608 (Simulation time: 1 hr 6 min 59 sec) 
Heartbeat CPU 0 instructions: 108000000 cycles: 47895138 heartbeat IPC: 2.38768 cumulative IPC: 2.05114 (Simulation time: 1 hr 7 min 43 sec) 
Heartbeat CPU 0 instructions: 109000000 cycles: 48372860 heartbeat IPC: 2.09327 cumulative IPC: 2.05184 (Simulation time: 1 hr 8 min 23 sec) 
Heartbeat CPU 0 instructions: 110000000 cycles: 48791571 heartbeat IPC: 2.38828 cumulative IPC: 2.05667 (Simulation time: 1 hr 9 min 8 sec) 
Heartbeat CPU 0 instructions: 111000001 cycles: 49210597 heartbeat IPC: 2.38649 cumulative IPC: 2.06134 (Simulation time: 1 hr 9 min 52 sec) 
Heartbeat CPU 0 instructions: 112000000 cycles: 49709136 heartbeat IPC: 2.00586 cumulative IPC: 2.06042 (Simulation time: 1 hr 10 min 40 sec) 
Heartbeat CPU 0 instructions: 113000003 cycles: 50150166 heartbeat IPC: 2.26743 cumulative IPC: 2.06341 (Simulation time: 1 hr 11 min 23 sec) 
Heartbeat CPU 0 instructions: 114000002 cycles: 50597678 heartbeat IPC: 2.23457 cumulative IPC: 2.06588 (Simulation time: 1 hr 12 min 2 sec) 
Heartbeat CPU 0 instructions: 115000000 cycles: 51051192 heartbeat IPC: 2.205 cumulative IPC: 2.06789 (Simulation time: 1 hr 12 min 47 sec) 
Heartbeat CPU 0 instructions: 116000000 cycles: 51679778 heartbeat IPC: 1.59087 cumulative IPC: 2.05854 (Simulation time: 1 hr 13 min 29 sec) 
Heartbeat CPU 0 instructions: 117000001 cycles: 52235220 heartbeat IPC: 1.80037 cumulative IPC: 2.05414 (Simulation time: 1 hr 14 min 13 sec) 
Heartbeat CPU 0 instructions: 118000000 cycles: 52851033 heartbeat IPC: 1.62387 cumulative IPC: 2.04617 (Simulation time: 1 hr 14 min 52 sec) 
Heartbeat CPU 0 instructions: 119000000 cycles: 53781924 heartbeat IPC: 1.07424 cumulative IPC: 2.01969 (Simulation time: 1 hr 15 min 37 sec) 
Heartbeat CPU 0 instructions: 120000000 cycles: 54515078 heartbeat IPC: 1.36397 cumulative IPC: 2.00591 (Simulation time: 1 hr 16 min 20 sec) 
Heartbeat CPU 0 instructions: 121000000 cycles: 55245492 heartbeat IPC: 1.36909 cumulative IPC: 1.99285 (Simulation time: 1 hr 17 min 9 sec) 
Heartbeat CPU 0 instructions: 122000000 cycles: 55983591 heartbeat IPC: 1.35483 cumulative IPC: 1.9799 (Simulation time: 1 hr 17 min 55 sec) 
Heartbeat CPU 0 instructions: 123000000 cycles: 56720030 heartbeat IPC: 1.35789 cumulative IPC: 1.96756 (Simulation time: 1 hr 18 min 44 sec) 
Heartbeat CPU 0 instructions: 124000000 cycles: 57452786 heartbeat IPC: 1.36471 cumulative IPC: 1.95588 (Simulation time: 1 hr 19 min 29 sec) 
Heartbeat CPU 0 instructions: 125000001 cycles: 58189533 heartbeat IPC: 1.35732 cumulative IPC: 1.94445 (Simulation time: 1 hr 20 min 13 sec) 
Heartbeat CPU 0 instructions: 126000000 cycles: 58920586 heartbeat IPC: 1.36789 cumulative IPC: 1.93372 (Simulation time: 1 hr 20 min 54 sec) 
Heartbeat CPU 0 instructions: 127000000 cycles: 59659349 heartbeat IPC: 1.35361 cumulative IPC: 1.92302 (Simulation time: 1 hr 21 min 45 sec) 
Heartbeat CPU 0 instructions: 128000000 cycles: 60393529 heartbeat IPC: 1.36206 cumulative IPC: 1.91292 (Simulation time: 1 hr 22 min 31 sec) 
Heartbeat CPU 0 instructions: 129000002 cycles: 61118631 heartbeat IPC: 1.37912 cumulative IPC: 1.90359 (Simulation time: 1 hr 23 min 11 sec) 
Heartbeat CPU 0 instructions: 130000001 cycles: 61843275 heartbeat IPC: 1.37999 cumulative IPC: 1.89461 (Simulation time: 1 hr 23 min 53 sec) 
Heartbeat CPU 0 instructions: 131000003 cycles: 62562292 heartbeat IPC: 1.39079 cumulative IPC: 1.88617 (Simulation time: 1 hr 24 min 25 sec) 
Heartbeat CPU 0 instructions: 132000000 cycles: 63271769 heartbeat IPC: 1.40948 cumulative IPC: 1.87843 (Simulation time: 1 hr 24 min 57 sec) 
Heartbeat CPU 0 instructions: 133000002 cycles: 63959245 heartbeat IPC: 1.4546 cumulative IPC: 1.87185 (Simulation time: 1 hr 25 min 30 sec) 
Heartbeat CPU 0 instructions: 134000001 cycles: 64599593 heartbeat IPC: 1.56165 cumulative IPC: 1.86744 (Simulation time: 1 hr 26 min 1 sec) 
Heartbeat CPU 0 instructions: 135000001 cycles: 65405608 heartbeat IPC: 1.24067 cumulative IPC: 1.85641 (Simulation time: 1 hr 26 min 30 sec) 
Heartbeat CPU 0 instructions: 136000000 cycles: 66101837 heartbeat IPC: 1.43631 cumulative IPC: 1.85011 (Simulation time: 1 hr 26 min 51 sec) 
Heartbeat CPU 0 instructions: 137000000 cycles: 66554307 heartbeat IPC: 2.21009 cumulative IPC: 1.85358 (Simulation time: 1 hr 27 min 13 sec) 
Heartbeat CPU 0 instructions: 138000000 cycles: 67016215 heartbeat IPC: 2.16493 cumulative IPC: 1.85662 (Simulation time: 1 hr 27 min 40 sec) 
Heartbeat CPU 0 instructions: 139000000 cycles: 67488448 heartbeat IPC: 2.1176 cumulative IPC: 1.85919 (Simulation time: 1 hr 28 min 4 sec) 
Heartbeat CPU 0 instructions: 140000000 cycles: 67919271 heartbeat IPC: 2.32114 cumulative IPC: 1.86331 (Simulation time: 1 hr 28 min 23 sec) 
Heartbeat CPU 0 instructions: 141000002 cycles: 68350705 heartbeat IPC: 2.31786 cumulative IPC: 1.86734 (Simulation time: 1 hr 28 min 44 sec) 
Heartbeat CPU 0 instructions: 142000002 cycles: 68780743 heartbeat IPC: 2.32538 cumulative IPC: 1.87134 (Simulation time: 1 hr 29 min 2 sec) 
Heartbeat CPU 0 instructions: 143000003 cycles: 69210867 heartbeat IPC: 2.32491 cumulative IPC: 1.87528 (Simulation time: 1 hr 29 min 21 sec) 
Heartbeat CPU 0 instructions: 144000000 cycles: 69641421 heartbeat IPC: 2.32258 cumulative IPC: 1.87913 (Simulation time: 1 hr 29 min 40 sec) 
Heartbeat CPU 0 instructions: 145000003 cycles: 70071687 heartbeat IPC: 2.32415 cumulative IPC: 1.88292 (Simulation time: 1 hr 29 min 59 sec) 
Heartbeat CPU 0 instructions: 146000002 cycles: 70501369 heartbeat IPC: 2.3273 cumulative IPC: 1.88667 (Simulation time: 1 hr 30 min 14 sec) 
Heartbeat CPU 0 instructions: 147000002 cycles: 70933252 heartbeat IPC: 2.31544 cumulative IPC: 1.89028 (Simulation time: 1 hr 30 min 30 sec) 
Heartbeat CPU 0 instructions: 148000000 cycles: 71364596 heartbeat IPC: 2.31833 cumulative IPC: 1.89385 (Simulation time: 1 hr 30 min 49 sec) 
Heartbeat CPU 0 instructions: 149000001 cycles: 71794940 heartbeat IPC: 2.32372 cumulative IPC: 1.8974 (Simulation time: 1 hr 31 min 7 sec) 
Heartbeat CPU 0 instructions: 150000000 cycles: 72226935 heartbeat IPC: 2.31484 cumulative IPC: 1.90082 (Simulation time: 1 hr 31 min 25 sec) 
Finished CPU 0 instructions: 100000001 cycles: 52608745 cummulative IPC: 1.90082 (Simulation time: 1 hr 31 min 25 sec) 

ChampSim completed all CPUs

Region of Interest Statistics

CPU 0 cummulative IPC: 1.90082 instructions: 100000001 cycles: 52608745
LLC TOTAL     ACCESS:    1290606  HIT:    1161693  MISS:     128913
LLC LOAD      ACCESS:     168238  HIT:     151804  MISS:      16434
LLC RFO       ACCESS:      32331  HIT:      20789  MISS:      11542
LLC PREFETCH  ACCESS:     713677  HIT:     613269  MISS:     100408
LLC WRITEBACK ACCESS:     376360  HIT:     375831  MISS:        529
OPTgen accesses: 4719
OPTgen hits: 11484
OPTgen hit rate: 243.357


