
*** ChampSim Multicore Out-of-Order Simulator ***

Warmup Instructions: 50000000
Simulation Instructions: 100000000
Configuration: 2
Number of CPUs: 1
LLC sets: 2048
LLC ways: 16
Off-chip DRAM Channels: 1 Width: 64-bit Data Rate: 1600 MT/s

CPU 0 runs /datasets/cs240c-wi22-a00-public/data/Assignment2-gz/bzip2_183B.trace.gz
CPU 0 L1D next line prefetcher
CPU 0 L2C IP-based stride prefetcher
Initialize Hawkeye state
Heartbeat CPU 0 instructions: 1000000 cycles: 447972 heartbeat IPC: 2.23228 cumulative IPC: 2.23228 (Simulation time: 0 hr 0 min 38 sec) 
Heartbeat CPU 0 instructions: 2000001 cycles: 951246 heartbeat IPC: 1.98699 cumulative IPC: 2.10251 (Simulation time: 0 hr 1 min 15 sec) 
Heartbeat CPU 0 instructions: 3000001 cycles: 1457934 heartbeat IPC: 1.9736 cumulative IPC: 2.05771 (Simulation time: 0 hr 1 min 55 sec) 
Heartbeat CPU 0 instructions: 4000000 cycles: 1928638 heartbeat IPC: 2.12448 cumulative IPC: 2.074 (Simulation time: 0 hr 2 min 33 sec) 
Heartbeat CPU 0 instructions: 5000000 cycles: 2425967 heartbeat IPC: 2.01074 cumulative IPC: 2.06103 (Simulation time: 0 hr 3 min 11 sec) 
Heartbeat CPU 0 instructions: 6000001 cycles: 2887581 heartbeat IPC: 2.16631 cumulative IPC: 2.07786 (Simulation time: 0 hr 3 min 50 sec) 
Heartbeat CPU 0 instructions: 7000002 cycles: 3343462 heartbeat IPC: 2.19356 cumulative IPC: 2.09364 (Simulation time: 0 hr 4 min 27 sec) 
Heartbeat CPU 0 instructions: 8000000 cycles: 3813053 heartbeat IPC: 2.12951 cumulative IPC: 2.09806 (Simulation time: 0 hr 5 min 5 sec) 
Heartbeat CPU 0 instructions: 9000003 cycles: 4278336 heartbeat IPC: 2.14924 cumulative IPC: 2.10362 (Simulation time: 0 hr 5 min 41 sec) 
Heartbeat CPU 0 instructions: 10000000 cycles: 4746844 heartbeat IPC: 2.13443 cumulative IPC: 2.10666 (Simulation time: 0 hr 6 min 17 sec) 
Heartbeat CPU 0 instructions: 11000000 cycles: 5209584 heartbeat IPC: 2.16104 cumulative IPC: 2.11149 (Simulation time: 0 hr 6 min 54 sec) 
Heartbeat CPU 0 instructions: 12000000 cycles: 5685202 heartbeat IPC: 2.10253 cumulative IPC: 2.11074 (Simulation time: 0 hr 7 min 32 sec) 
Heartbeat CPU 0 instructions: 13000003 cycles: 6152355 heartbeat IPC: 2.14063 cumulative IPC: 2.11301 (Simulation time: 0 hr 8 min 9 sec) 
Heartbeat CPU 0 instructions: 14000003 cycles: 6651724 heartbeat IPC: 2.00253 cumulative IPC: 2.10472 (Simulation time: 0 hr 8 min 45 sec) 
Heartbeat CPU 0 instructions: 15000002 cycles: 7120881 heartbeat IPC: 2.13148 cumulative IPC: 2.10648 (Simulation time: 0 hr 9 min 23 sec) 
Heartbeat CPU 0 instructions: 16000000 cycles: 7634955 heartbeat IPC: 1.94524 cumulative IPC: 2.09562 (Simulation time: 0 hr 10 min 2 sec) 
Heartbeat CPU 0 instructions: 17000000 cycles: 8128973 heartbeat IPC: 2.02422 cumulative IPC: 2.09128 (Simulation time: 0 hr 10 min 39 sec) 
Heartbeat CPU 0 instructions: 18000001 cycles: 8693182 heartbeat IPC: 1.77239 cumulative IPC: 2.07059 (Simulation time: 0 hr 11 min 20 sec) 
Heartbeat CPU 0 instructions: 19000000 cycles: 9204804 heartbeat IPC: 1.95457 cumulative IPC: 2.06414 (Simulation time: 0 hr 11 min 59 sec) 
Heartbeat CPU 0 instructions: 20000000 cycles: 9694803 heartbeat IPC: 2.04082 cumulative IPC: 2.06296 (Simulation time: 0 hr 12 min 35 sec) 
Heartbeat CPU 0 instructions: 21000003 cycles: 10143634 heartbeat IPC: 2.22802 cumulative IPC: 2.07026 (Simulation time: 0 hr 13 min 12 sec) 
Heartbeat CPU 0 instructions: 22000003 cycles: 10608592 heartbeat IPC: 2.15073 cumulative IPC: 2.07379 (Simulation time: 0 hr 13 min 50 sec) 
Heartbeat CPU 0 instructions: 23000002 cycles: 11089848 heartbeat IPC: 2.07789 cumulative IPC: 2.07397 (Simulation time: 0 hr 14 min 30 sec) 
Heartbeat CPU 0 instructions: 24000000 cycles: 11586233 heartbeat IPC: 2.01456 cumulative IPC: 2.07142 (Simulation time: 0 hr 15 min 11 sec) 
Heartbeat CPU 0 instructions: 25000001 cycles: 12038873 heartbeat IPC: 2.20926 cumulative IPC: 2.07661 (Simulation time: 0 hr 15 min 48 sec) 
Heartbeat CPU 0 instructions: 26000003 cycles: 12531334 heartbeat IPC: 2.03062 cumulative IPC: 2.0748 (Simulation time: 0 hr 16 min 25 sec) 
Heartbeat CPU 0 instructions: 27000000 cycles: 13048445 heartbeat IPC: 1.93382 cumulative IPC: 2.06921 (Simulation time: 0 hr 17 min 5 sec) 
Heartbeat CPU 0 instructions: 28000000 cycles: 13507983 heartbeat IPC: 2.1761 cumulative IPC: 2.07285 (Simulation time: 0 hr 17 min 41 sec) 
Heartbeat CPU 0 instructions: 29000000 cycles: 13996813 heartbeat IPC: 2.0457 cumulative IPC: 2.0719 (Simulation time: 0 hr 18 min 18 sec) 
Heartbeat CPU 0 instructions: 30000000 cycles: 14450150 heartbeat IPC: 2.20586 cumulative IPC: 2.0761 (Simulation time: 0 hr 18 min 54 sec) 
Heartbeat CPU 0 instructions: 31000002 cycles: 14909204 heartbeat IPC: 2.1784 cumulative IPC: 2.07925 (Simulation time: 0 hr 19 min 32 sec) 
Heartbeat CPU 0 instructions: 32000000 cycles: 15367924 heartbeat IPC: 2.17997 cumulative IPC: 2.08226 (Simulation time: 0 hr 20 min 8 sec) 
Heartbeat CPU 0 instructions: 33000001 cycles: 15838759 heartbeat IPC: 2.12389 cumulative IPC: 2.0835 (Simulation time: 0 hr 20 min 45 sec) 
Heartbeat CPU 0 instructions: 34000001 cycles: 16348667 heartbeat IPC: 1.96114 cumulative IPC: 2.07968 (Simulation time: 0 hr 21 min 28 sec) 
Heartbeat CPU 0 instructions: 35000002 cycles: 16857531 heartbeat IPC: 1.96516 cumulative IPC: 2.07622 (Simulation time: 0 hr 22 min 7 sec) 
Heartbeat CPU 0 instructions: 36000000 cycles: 17330174 heartbeat IPC: 2.11576 cumulative IPC: 2.0773 (Simulation time: 0 hr 22 min 46 sec) 
Heartbeat CPU 0 instructions: 37000002 cycles: 17806483 heartbeat IPC: 2.09948 cumulative IPC: 2.07789 (Simulation time: 0 hr 23 min 25 sec) 
Heartbeat CPU 0 instructions: 38000001 cycles: 18249496 heartbeat IPC: 2.25727 cumulative IPC: 2.08225 (Simulation time: 0 hr 24 min 0 sec) 
Heartbeat CPU 0 instructions: 39000001 cycles: 18714278 heartbeat IPC: 2.15155 cumulative IPC: 2.08397 (Simulation time: 0 hr 24 min 35 sec) 
Heartbeat CPU 0 instructions: 40000000 cycles: 19224257 heartbeat IPC: 1.96086 cumulative IPC: 2.0807 (Simulation time: 0 hr 25 min 13 sec) 
Heartbeat CPU 0 instructions: 41000000 cycles: 19683544 heartbeat IPC: 2.17729 cumulative IPC: 2.08296 (Simulation time: 0 hr 25 min 51 sec) 
Heartbeat CPU 0 instructions: 42000000 cycles: 20163647 heartbeat IPC: 2.08289 cumulative IPC: 2.08296 (Simulation time: 0 hr 26 min 28 sec) 
Heartbeat CPU 0 instructions: 43000001 cycles: 20623140 heartbeat IPC: 2.17631 cumulative IPC: 2.08504 (Simulation time: 0 hr 27 min 4 sec) 
Heartbeat CPU 0 instructions: 44000000 cycles: 21114183 heartbeat IPC: 2.03648 cumulative IPC: 2.08391 (Simulation time: 0 hr 27 min 41 sec) 
Heartbeat CPU 0 instructions: 45000000 cycles: 21573000 heartbeat IPC: 2.17952 cumulative IPC: 2.08594 (Simulation time: 0 hr 28 min 16 sec) 
Heartbeat CPU 0 instructions: 46000000 cycles: 22064851 heartbeat IPC: 2.03314 cumulative IPC: 2.08476 (Simulation time: 0 hr 28 min 53 sec) 
Heartbeat CPU 0 instructions: 47000002 cycles: 22566822 heartbeat IPC: 1.99215 cumulative IPC: 2.0827 (Simulation time: 0 hr 29 min 31 sec) 
Heartbeat CPU 0 instructions: 48000000 cycles: 22999392 heartbeat IPC: 2.31176 cumulative IPC: 2.08701 (Simulation time: 0 hr 30 min 6 sec) 
Heartbeat CPU 0 instructions: 49000003 cycles: 23457714 heartbeat IPC: 2.18188 cumulative IPC: 2.08887 (Simulation time: 0 hr 30 min 44 sec) 
Heartbeat CPU 0 instructions: 50000001 cycles: 23889466 heartbeat IPC: 2.31614 cumulative IPC: 2.09297 (Simulation time: 0 hr 31 min 18 sec) 

Warmup complete CPU 0 instructions: 50000001 cycles: 23889466 (Simulation time: 0 hr 31 min 18 sec) 

Heartbeat CPU 0 instructions: 51000000 cycles: 24919399 heartbeat IPC: 0.970936 cumulative IPC: 0.970936 (Simulation time: 0 hr 31 min 52 sec) 
Heartbeat CPU 0 instructions: 52000000 cycles: 25937496 heartbeat IPC: 0.982225 cumulative IPC: 0.976548 (Simulation time: 0 hr 32 min 23 sec) 
Heartbeat CPU 0 instructions: 53000001 cycles: 26904707 heartbeat IPC: 1.0339 cumulative IPC: 0.994945 (Simulation time: 0 hr 32 min 56 sec) 
Heartbeat CPU 0 instructions: 54000001 cycles: 27911626 heartbeat IPC: 0.993129 cumulative IPC: 0.994491 (Simulation time: 0 hr 33 min 27 sec) 
Heartbeat CPU 0 instructions: 55000001 cycles: 29129730 heartbeat IPC: 0.820948 cumulative IPC: 0.95415 (Simulation time: 0 hr 33 min 59 sec) 
Heartbeat CPU 0 instructions: 56000000 cycles: 30313293 heartbeat IPC: 0.844906 cumulative IPC: 0.934022 (Simulation time: 0 hr 34 min 33 sec) 
Heartbeat CPU 0 instructions: 57000003 cycles: 31684110 heartbeat IPC: 0.729494 cumulative IPC: 0.898053 (Simulation time: 0 hr 35 min 5 sec) 
Heartbeat CPU 0 instructions: 58000001 cycles: 33262864 heartbeat IPC: 0.63341 cumulative IPC: 0.853479 (Simulation time: 0 hr 35 min 38 sec) 
Heartbeat CPU 0 instructions: 59000003 cycles: 34569849 heartbeat IPC: 0.765121 cumulative IPC: 0.842667 (Simulation time: 0 hr 36 min 11 sec) 
Heartbeat CPU 0 instructions: 60000000 cycles: 36144647 heartbeat IPC: 0.635 cumulative IPC: 0.815981 (Simulation time: 0 hr 36 min 47 sec) 
Heartbeat CPU 0 instructions: 61000003 cycles: 37860108 heartbeat IPC: 0.582935 cumulative IPC: 0.787366 (Simulation time: 0 hr 37 min 18 sec) 
Heartbeat CPU 0 instructions: 62000002 cycles: 39405495 heartbeat IPC: 0.647086 cumulative IPC: 0.773394 (Simulation time: 0 hr 37 min 50 sec) 
Heartbeat CPU 0 instructions: 63000003 cycles: 40782849 heartbeat IPC: 0.72603 cumulative IPC: 0.769532 (Simulation time: 0 hr 38 min 26 sec) 
Heartbeat CPU 0 instructions: 64000000 cycles: 42349473 heartbeat IPC: 0.638313 cumulative IPC: 0.758396 (Simulation time: 0 hr 39 min 1 sec) 
Heartbeat CPU 0 instructions: 65000003 cycles: 43609009 heartbeat IPC: 0.793946 cumulative IPC: 0.760667 (Simulation time: 0 hr 39 min 32 sec) 
Heartbeat CPU 0 instructions: 66000000 cycles: 44927915 heartbeat IPC: 0.758202 cumulative IPC: 0.760512 (Simulation time: 0 hr 40 min 7 sec) 
Heartbeat CPU 0 instructions: 67000000 cycles: 45863740 heartbeat IPC: 1.06858 cumulative IPC: 0.773632 (Simulation time: 0 hr 40 min 41 sec) 
Heartbeat CPU 0 instructions: 68000000 cycles: 47264186 heartbeat IPC: 0.714058 cumulative IPC: 0.770063 (Simulation time: 0 hr 41 min 16 sec) 
Heartbeat CPU 0 instructions: 69000000 cycles: 48838584 heartbeat IPC: 0.635163 cumulative IPC: 0.76155 (Simulation time: 0 hr 41 min 51 sec) 
Heartbeat CPU 0 instructions: 70000002 cycles: 50301945 heartbeat IPC: 0.68336 cumulative IPC: 0.757218 (Simulation time: 0 hr 42 min 27 sec) 
Heartbeat CPU 0 instructions: 71000000 cycles: 51862527 heartbeat IPC: 0.640785 cumulative IPC: 0.750722 (Simulation time: 0 hr 43 min 3 sec) 
Heartbeat CPU 0 instructions: 72000000 cycles: 53235022 heartbeat IPC: 0.7286 cumulative IPC: 0.749688 (Simulation time: 0 hr 43 min 37 sec) 
Heartbeat CPU 0 instructions: 73000001 cycles: 54520887 heartbeat IPC: 0.777687 cumulative IPC: 0.750863 (Simulation time: 0 hr 44 min 12 sec) 
Heartbeat CPU 0 instructions: 74000000 cycles: 55665347 heartbeat IPC: 0.873774 cumulative IPC: 0.75529 (Simulation time: 0 hr 44 min 49 sec) 
Heartbeat CPU 0 instructions: 75000001 cycles: 57078295 heartbeat IPC: 0.707741 cumulative IPC: 0.753266 (Simulation time: 0 hr 45 min 20 sec) 
Heartbeat CPU 0 instructions: 76000000 cycles: 58213468 heartbeat IPC: 0.880922 cumulative IPC: 0.757487 (Simulation time: 0 hr 45 min 51 sec) 
Heartbeat CPU 0 instructions: 77000003 cycles: 59389266 heartbeat IPC: 0.850489 cumulative IPC: 0.760568 (Simulation time: 0 hr 46 min 24 sec) 
Heartbeat CPU 0 instructions: 78000000 cycles: 60721357 heartbeat IPC: 0.750697 cumulative IPC: 0.760211 (Simulation time: 0 hr 46 min 57 sec) 
Heartbeat CPU 0 instructions: 79000000 cycles: 62067073 heartbeat IPC: 0.743099 cumulative IPC: 0.759608 (Simulation time: 0 hr 47 min 32 sec) 
Heartbeat CPU 0 instructions: 80000000 cycles: 63452361 heartbeat IPC: 0.721872 cumulative IPC: 0.758286 (Simulation time: 0 hr 48 min 8 sec) 
Heartbeat CPU 0 instructions: 81000000 cycles: 65142004 heartbeat IPC: 0.591841 cumulative IPC: 0.751469 (Simulation time: 0 hr 48 min 46 sec) 
Heartbeat CPU 0 instructions: 82000002 cycles: 66685595 heartbeat IPC: 0.647841 cumulative IPC: 0.747731 (Simulation time: 0 hr 49 min 25 sec) 
Heartbeat CPU 0 instructions: 83000000 cycles: 67833659 heartbeat IPC: 0.87103 cumulative IPC: 0.750952 (Simulation time: 0 hr 50 min 13 sec) 
Heartbeat CPU 0 instructions: 84000000 cycles: 68788799 heartbeat IPC: 1.04697 cumulative IPC: 0.75725 (Simulation time: 0 hr 50 min 59 sec) 
Heartbeat CPU 0 instructions: 85000002 cycles: 69833641 heartbeat IPC: 0.957084 cumulative IPC: 0.761794 (Simulation time: 0 hr 51 min 43 sec) 
Heartbeat CPU 0 instructions: 86000002 cycles: 70809642 heartbeat IPC: 1.02459 cumulative IPC: 0.767261 (Simulation time: 0 hr 52 min 32 sec) 
Heartbeat CPU 0 instructions: 87000001 cycles: 71810363 heartbeat IPC: 0.999279 cumulative IPC: 0.772106 (Simulation time: 0 hr 53 min 22 sec) 
Heartbeat CPU 0 instructions: 88000000 cycles: 73106735 heartbeat IPC: 0.771383 cumulative IPC: 0.772087 (Simulation time: 0 hr 54 min 8 sec) 
Heartbeat CPU 0 instructions: 89000000 cycles: 74636933 heartbeat IPC: 0.65351 cumulative IPC: 0.768511 (Simulation time: 0 hr 55 min 1 sec) 
Heartbeat CPU 0 instructions: 90000002 cycles: 76124360 heartbeat IPC: 0.672303 cumulative IPC: 0.765772 (Simulation time: 0 hr 55 min 43 sec) 
Heartbeat CPU 0 instructions: 91000000 cycles: 77823705 heartbeat IPC: 0.588461 cumulative IPC: 0.760185 (Simulation time: 0 hr 56 min 28 sec) 
Heartbeat CPU 0 instructions: 92000000 cycles: 79315857 heartbeat IPC: 0.670173 cumulative IPC: 0.757762 (Simulation time: 0 hr 57 min 11 sec) 
Heartbeat CPU 0 instructions: 93000001 cycles: 80584865 heartbeat IPC: 0.788018 cumulative IPC: 0.758439 (Simulation time: 0 hr 58 min 8 sec) 
Heartbeat CPU 0 instructions: 94000000 cycles: 82319287 heartbeat IPC: 0.57656 cumulative IPC: 0.75304 (Simulation time: 0 hr 58 min 55 sec) 
Heartbeat CPU 0 instructions: 95000002 cycles: 83924449 heartbeat IPC: 0.622991 cumulative IPC: 0.749563 (Simulation time: 0 hr 59 min 40 sec) 
Heartbeat CPU 0 instructions: 96000000 cycles: 85528871 heartbeat IPC: 0.623276 cumulative IPC: 0.746276 (Simulation time: 1 hr 0 min 26 sec) 
Heartbeat CPU 0 instructions: 97000000 cycles: 86927700 heartbeat IPC: 0.714884 cumulative IPC: 0.745579 (Simulation time: 1 hr 1 min 15 sec) 
Heartbeat CPU 0 instructions: 98000000 cycles: 88209958 heartbeat IPC: 0.779874 cumulative IPC: 0.746263 (Simulation time: 1 hr 2 min 1 sec) 
Heartbeat CPU 0 instructions: 99000003 cycles: 89336542 heartbeat IPC: 0.887642 cumulative IPC: 0.748697 (Simulation time: 1 hr 2 min 52 sec) 
Heartbeat CPU 0 instructions: 100000000 cycles: 90805404 heartbeat IPC: 0.680797 cumulative IPC: 0.747206 (Simulation time: 1 hr 3 min 39 sec) 
Heartbeat CPU 0 instructions: 101000000 cycles: 92311945 heartbeat IPC: 0.663772 cumulative IPC: 0.745369 (Simulation time: 1 hr 4 min 24 sec) 
Heartbeat CPU 0 instructions: 102000001 cycles: 94006303 heartbeat IPC: 0.590195 cumulative IPC: 0.741619 (Simulation time: 1 hr 5 min 13 sec) 
Heartbeat CPU 0 instructions: 103000002 cycles: 95336063 heartbeat IPC: 0.752016 cumulative IPC: 0.741813 (Simulation time: 1 hr 6 min 6 sec) 
Heartbeat CPU 0 instructions: 104000000 cycles: 97037938 heartbeat IPC: 0.587586 cumulative IPC: 0.738225 (Simulation time: 1 hr 6 min 53 sec) 
Heartbeat CPU 0 instructions: 105000002 cycles: 98018487 heartbeat IPC: 1.01984 cumulative IPC: 0.74195 (Simulation time: 1 hr 7 min 44 sec) 
Heartbeat CPU 0 instructions: 106000000 cycles: 99554172 heartbeat IPC: 0.651174 cumulative IPC: 0.740107 (Simulation time: 1 hr 8 min 39 sec) 
Heartbeat CPU 0 instructions: 107000002 cycles: 101116927 heartbeat IPC: 0.639897 cumulative IPC: 0.738079 (Simulation time: 1 hr 9 min 30 sec) 
Heartbeat CPU 0 instructions: 108000000 cycles: 102444465 heartbeat IPC: 0.753273 cumulative IPC: 0.738336 (Simulation time: 1 hr 10 min 24 sec) 
Heartbeat CPU 0 instructions: 109000002 cycles: 104144743 heartbeat IPC: 0.58814 cumulative IPC: 0.735154 (Simulation time: 1 hr 11 min 13 sec) 
Heartbeat CPU 0 instructions: 110000000 cycles: 105376842 heartbeat IPC: 0.811621 cumulative IPC: 0.73631 (Simulation time: 1 hr 11 min 57 sec) 
Heartbeat CPU 0 instructions: 111000001 cycles: 106834231 heartbeat IPC: 0.686159 cumulative IPC: 0.735429 (Simulation time: 1 hr 12 min 46 sec) 
Heartbeat CPU 0 instructions: 112000000 cycles: 107939703 heartbeat IPC: 0.90459 cumulative IPC: 0.737654 (Simulation time: 1 hr 13 min 31 sec) 
Heartbeat CPU 0 instructions: 113000001 cycles: 108943244 heartbeat IPC: 0.996472 cumulative IPC: 0.740708 (Simulation time: 1 hr 14 min 14 sec) 
Heartbeat CPU 0 instructions: 114000001 cycles: 109838996 heartbeat IPC: 1.11638 cumulative IPC: 0.744623 (Simulation time: 1 hr 14 min 52 sec) 
Heartbeat CPU 0 instructions: 115000002 cycles: 110765669 heartbeat IPC: 1.07913 cumulative IPC: 0.748191 (Simulation time: 1 hr 15 min 26 sec) 
Heartbeat CPU 0 instructions: 116000000 cycles: 111872484 heartbeat IPC: 0.903492 cumulative IPC: 0.750145 (Simulation time: 1 hr 16 min 14 sec) 
Heartbeat CPU 0 instructions: 117000003 cycles: 113467503 heartbeat IPC: 0.626954 cumulative IPC: 0.747951 (Simulation time: 1 hr 16 min 58 sec) 
Heartbeat CPU 0 instructions: 118000003 cycles: 114801848 heartbeat IPC: 0.749431 cumulative IPC: 0.747973 (Simulation time: 1 hr 17 min 32 sec) 
Heartbeat CPU 0 instructions: 119000000 cycles: 115794996 heartbeat IPC: 1.0069 cumulative IPC: 0.750771 (Simulation time: 1 hr 18 min 4 sec) 
Heartbeat CPU 0 instructions: 120000000 cycles: 116858756 heartbeat IPC: 0.940062 cumulative IPC: 0.752937 (Simulation time: 1 hr 18 min 32 sec) 
Heartbeat CPU 0 instructions: 121000001 cycles: 118417196 heartbeat IPC: 0.641668 cumulative IPC: 0.751102 (Simulation time: 1 hr 18 min 59 sec) 
Heartbeat CPU 0 instructions: 122000002 cycles: 119669044 heartbeat IPC: 0.79882 cumulative IPC: 0.751726 (Simulation time: 1 hr 19 min 31 sec) 
Heartbeat CPU 0 instructions: 123000000 cycles: 121308064 heartbeat IPC: 0.610119 cumulative IPC: 0.749344 (Simulation time: 1 hr 19 min 56 sec) 
Heartbeat CPU 0 instructions: 124000000 cycles: 122723517 heartbeat IPC: 0.706488 cumulative IPC: 0.74873 (Simulation time: 1 hr 20 min 21 sec) 
Heartbeat CPU 0 instructions: 125000003 cycles: 124066633 heartbeat IPC: 0.74454 cumulative IPC: 0.748674 (Simulation time: 1 hr 20 min 45 sec) 
Heartbeat CPU 0 instructions: 126000000 cycles: 125082531 heartbeat IPC: 0.984348 cumulative IPC: 0.75104 (Simulation time: 1 hr 21 min 17 sec) 
Heartbeat CPU 0 instructions: 127000001 cycles: 126694610 heartbeat IPC: 0.620318 cumulative IPC: 0.74899 (Simulation time: 1 hr 21 min 45 sec) 
Heartbeat CPU 0 instructions: 128000000 cycles: 128323827 heartbeat IPC: 0.613791 cumulative IPC: 0.746881 (Simulation time: 1 hr 22 min 11 sec) 
Heartbeat CPU 0 instructions: 129000000 cycles: 130001193 heartbeat IPC: 0.596173 cumulative IPC: 0.744498 (Simulation time: 1 hr 22 min 38 sec) 
Heartbeat CPU 0 instructions: 130000002 cycles: 131248952 heartbeat IPC: 0.801438 cumulative IPC: 0.74516 (Simulation time: 1 hr 23 min 10 sec) 
Heartbeat CPU 0 instructions: 131000000 cycles: 132282403 heartbeat IPC: 0.96763 cumulative IPC: 0.747281 (Simulation time: 1 hr 23 min 37 sec) 
Heartbeat CPU 0 instructions: 132000000 cycles: 133485375 heartbeat IPC: 0.831275 cumulative IPC: 0.748203 (Simulation time: 1 hr 24 min 4 sec) 
Heartbeat CPU 0 instructions: 133000001 cycles: 134427414 heartbeat IPC: 1.06153 cumulative IPC: 0.750873 (Simulation time: 1 hr 24 min 26 sec) 
Heartbeat CPU 0 instructions: 134000000 cycles: 135491714 heartbeat IPC: 0.939584 cumulative IPC: 0.752673 (Simulation time: 1 hr 24 min 48 sec) 
Heartbeat CPU 0 instructions: 135000002 cycles: 136403360 heartbeat IPC: 1.09692 cumulative IPC: 0.755462 (Simulation time: 1 hr 25 min 10 sec) 
Heartbeat CPU 0 instructions: 136000000 cycles: 137310305 heartbeat IPC: 1.1026 cumulative IPC: 0.758238 (Simulation time: 1 hr 25 min 30 sec) 
Heartbeat CPU 0 instructions: 137000000 cycles: 138217442 heartbeat IPC: 1.10237 cumulative IPC: 0.760969 (Simulation time: 1 hr 25 min 49 sec) 
Heartbeat CPU 0 instructions: 138000000 cycles: 139036201 heartbeat IPC: 1.22136 cumulative IPC: 0.764242 (Simulation time: 1 hr 26 min 7 sec) 
Heartbeat CPU 0 instructions: 139000002 cycles: 139814999 heartbeat IPC: 1.28403 cumulative IPC: 0.767734 (Simulation time: 1 hr 26 min 24 sec) 
Heartbeat CPU 0 instructions: 140000000 cycles: 140569138 heartbeat IPC: 1.32601 cumulative IPC: 0.771343 (Simulation time: 1 hr 26 min 39 sec) 
Heartbeat CPU 0 instructions: 141000003 cycles: 141364260 heartbeat IPC: 1.25767 cumulative IPC: 0.774634 (Simulation time: 1 hr 26 min 55 sec) 
Heartbeat CPU 0 instructions: 142000003 cycles: 142158775 heartbeat IPC: 1.25863 cumulative IPC: 0.777886 (Simulation time: 1 hr 27 min 12 sec) 
Heartbeat CPU 0 instructions: 143000002 cycles: 142948500 heartbeat IPC: 1.26626 cumulative IPC: 0.781125 (Simulation time: 1 hr 27 min 27 sec) 
Heartbeat CPU 0 instructions: 144000000 cycles: 143715901 heartbeat IPC: 1.3031 cumulative IPC: 0.784468 (Simulation time: 1 hr 27 min 42 sec) 
Heartbeat CPU 0 instructions: 145000002 cycles: 144435822 heartbeat IPC: 1.38904 cumulative IPC: 0.788079 (Simulation time: 1 hr 27 min 58 sec) 
Heartbeat CPU 0 instructions: 146000002 cycles: 145161578 heartbeat IPC: 1.37787 cumulative IPC: 0.791608 (Simulation time: 1 hr 28 min 12 sec) 
Heartbeat CPU 0 instructions: 147000003 cycles: 145887360 heartbeat IPC: 1.37783 cumulative IPC: 0.795096 (Simulation time: 1 hr 28 min 26 sec) 
Heartbeat CPU 0 instructions: 148000000 cycles: 146622069 heartbeat IPC: 1.36108 cumulative IPC: 0.798484 (Simulation time: 1 hr 28 min 39 sec) 
Heartbeat CPU 0 instructions: 149000003 cycles: 147376450 heartbeat IPC: 1.32559 cumulative IPC: 0.801704 (Simulation time: 1 hr 28 min 53 sec) 
Heartbeat CPU 0 instructions: 150000000 cycles: 148206951 heartbeat IPC: 1.20409 cumulative IPC: 0.804392 (Simulation time: 1 hr 29 min 8 sec) 
Finished CPU 0 instructions: 100000003 cycles: 124317487 cummulative IPC: 0.804392 (Simulation time: 1 hr 29 min 8 sec) 

ChampSim completed all CPUs

Region of Interest Statistics

CPU 0 cummulative IPC: 0.804392 instructions: 100000003 cycles: 124317487
LLC TOTAL     ACCESS:    1933510  HIT:    1763784  MISS:     169726
LLC LOAD      ACCESS:     554454  HIT:     534531  MISS:      19923
LLC RFO       ACCESS:     322481  HIT:     259613  MISS:      62868
LLC PREFETCH  ACCESS:     708258  HIT:     625913  MISS:      82345
LLC WRITEBACK ACCESS:     348317  HIT:     343727  MISS:       4590
OPTgen accesses: 18293
OPTgen hits: 20787
OPTgen hit rate: 113.634


