
*** ChampSim Multicore Out-of-Order Simulator ***

Warmup Instructions: 50000000
Simulation Instructions: 100000000
Configuration: 2
Number of CPUs: 1
LLC sets: 2048
LLC ways: 16
Off-chip DRAM Channels: 1 Width: 64-bit Data Rate: 1600 MT/s

CPU 0 runs /datasets/cs240c-wi22-a00-public/data/Assignment2-gz/cactusADM_1495B.trace.gz
CPU 0 L1D next line prefetcher
CPU 0 L2C IP-based stride prefetcher
Initialize Hawkeye state
Heartbeat CPU 0 instructions: 1000003 cycles: 593383 heartbeat IPC: 1.68526 cumulative IPC: 1.68526 (Simulation time: 0 hr 0 min 44 sec) 
Heartbeat CPU 0 instructions: 2000000 cycles: 1186345 heartbeat IPC: 1.68644 cumulative IPC: 1.68585 (Simulation time: 0 hr 1 min 29 sec) 
Heartbeat CPU 0 instructions: 3000003 cycles: 1779703 heartbeat IPC: 1.68533 cumulative IPC: 1.68568 (Simulation time: 0 hr 2 min 15 sec) 
Heartbeat CPU 0 instructions: 4000000 cycles: 2372522 heartbeat IPC: 1.68685 cumulative IPC: 1.68597 (Simulation time: 0 hr 2 min 59 sec) 
Heartbeat CPU 0 instructions: 5000000 cycles: 2965579 heartbeat IPC: 1.68618 cumulative IPC: 1.68601 (Simulation time: 0 hr 3 min 49 sec) 
Heartbeat CPU 0 instructions: 6000001 cycles: 3558796 heartbeat IPC: 1.68573 cumulative IPC: 1.68596 (Simulation time: 0 hr 4 min 35 sec) 
Heartbeat CPU 0 instructions: 7000000 cycles: 4151738 heartbeat IPC: 1.6865 cumulative IPC: 1.68604 (Simulation time: 0 hr 5 min 18 sec) 
Heartbeat CPU 0 instructions: 8000000 cycles: 4906753 heartbeat IPC: 1.32448 cumulative IPC: 1.63041 (Simulation time: 0 hr 6 min 10 sec) 
Heartbeat CPU 0 instructions: 9000002 cycles: 5499948 heartbeat IPC: 1.68579 cumulative IPC: 1.63638 (Simulation time: 0 hr 6 min 55 sec) 
Heartbeat CPU 0 instructions: 10000002 cycles: 6092872 heartbeat IPC: 1.68656 cumulative IPC: 1.64126 (Simulation time: 0 hr 7 min 40 sec) 
Heartbeat CPU 0 instructions: 11000001 cycles: 6686000 heartbeat IPC: 1.68598 cumulative IPC: 1.64523 (Simulation time: 0 hr 8 min 25 sec) 
Heartbeat CPU 0 instructions: 12000000 cycles: 7279157 heartbeat IPC: 1.68589 cumulative IPC: 1.64854 (Simulation time: 0 hr 9 min 11 sec) 
Heartbeat CPU 0 instructions: 13000001 cycles: 7872063 heartbeat IPC: 1.68661 cumulative IPC: 1.65141 (Simulation time: 0 hr 9 min 58 sec) 
Heartbeat CPU 0 instructions: 14000003 cycles: 8465330 heartbeat IPC: 1.68559 cumulative IPC: 1.6538 (Simulation time: 0 hr 10 min 45 sec) 
Heartbeat CPU 0 instructions: 15000001 cycles: 9058420 heartbeat IPC: 1.68608 cumulative IPC: 1.65592 (Simulation time: 0 hr 11 min 30 sec) 
Heartbeat CPU 0 instructions: 16000000 cycles: 9651689 heartbeat IPC: 1.68557 cumulative IPC: 1.65774 (Simulation time: 0 hr 12 min 13 sec) 
Heartbeat CPU 0 instructions: 17000002 cycles: 10244675 heartbeat IPC: 1.68638 cumulative IPC: 1.6594 (Simulation time: 0 hr 12 min 58 sec) 
Heartbeat CPU 0 instructions: 18000000 cycles: 10837658 heartbeat IPC: 1.68639 cumulative IPC: 1.66088 (Simulation time: 0 hr 13 min 42 sec) 
Heartbeat CPU 0 instructions: 19000002 cycles: 11430670 heartbeat IPC: 1.68631 cumulative IPC: 1.66219 (Simulation time: 0 hr 14 min 27 sec) 
Heartbeat CPU 0 instructions: 20000000 cycles: 12024037 heartbeat IPC: 1.68529 cumulative IPC: 1.66333 (Simulation time: 0 hr 15 min 12 sec) 
Heartbeat CPU 0 instructions: 21000002 cycles: 12765397 heartbeat IPC: 1.34888 cumulative IPC: 1.64507 (Simulation time: 0 hr 16 min 5 sec) 
Heartbeat CPU 0 instructions: 22000003 cycles: 13370379 heartbeat IPC: 1.65294 cumulative IPC: 1.64543 (Simulation time: 0 hr 16 min 49 sec) 
Heartbeat CPU 0 instructions: 23000000 cycles: 13963070 heartbeat IPC: 1.68721 cumulative IPC: 1.6472 (Simulation time: 0 hr 17 min 36 sec) 
Heartbeat CPU 0 instructions: 24000000 cycles: 14556759 heartbeat IPC: 1.68438 cumulative IPC: 1.64872 (Simulation time: 0 hr 18 min 24 sec) 
Heartbeat CPU 0 instructions: 25000002 cycles: 15149905 heartbeat IPC: 1.68593 cumulative IPC: 1.65018 (Simulation time: 0 hr 19 min 10 sec) 
Heartbeat CPU 0 instructions: 26000003 cycles: 15742474 heartbeat IPC: 1.68757 cumulative IPC: 1.65158 (Simulation time: 0 hr 19 min 54 sec) 
Heartbeat CPU 0 instructions: 27000001 cycles: 16335564 heartbeat IPC: 1.68608 cumulative IPC: 1.65284 (Simulation time: 0 hr 20 min 40 sec) 
Heartbeat CPU 0 instructions: 28000000 cycles: 16928654 heartbeat IPC: 1.68608 cumulative IPC: 1.654 (Simulation time: 0 hr 21 min 25 sec) 
Heartbeat CPU 0 instructions: 29000002 cycles: 17521813 heartbeat IPC: 1.68589 cumulative IPC: 1.65508 (Simulation time: 0 hr 22 min 11 sec) 
Heartbeat CPU 0 instructions: 30000002 cycles: 18114917 heartbeat IPC: 1.68604 cumulative IPC: 1.65609 (Simulation time: 0 hr 22 min 59 sec) 
Heartbeat CPU 0 instructions: 31000002 cycles: 18708186 heartbeat IPC: 1.68558 cumulative IPC: 1.65703 (Simulation time: 0 hr 23 min 44 sec) 
Heartbeat CPU 0 instructions: 32000000 cycles: 19301557 heartbeat IPC: 1.68528 cumulative IPC: 1.6579 (Simulation time: 0 hr 24 min 30 sec) 
Heartbeat CPU 0 instructions: 33000001 cycles: 19894281 heartbeat IPC: 1.68713 cumulative IPC: 1.65877 (Simulation time: 0 hr 25 min 14 sec) 
Heartbeat CPU 0 instructions: 34000002 cycles: 20606286 heartbeat IPC: 1.40449 cumulative IPC: 1.64998 (Simulation time: 0 hr 26 min 4 sec) 
Heartbeat CPU 0 instructions: 35000001 cycles: 21242243 heartbeat IPC: 1.57243 cumulative IPC: 1.64766 (Simulation time: 0 hr 26 min 52 sec) 
Heartbeat CPU 0 instructions: 36000000 cycles: 21835313 heartbeat IPC: 1.68614 cumulative IPC: 1.64871 (Simulation time: 0 hr 27 min 35 sec) 
Heartbeat CPU 0 instructions: 37000000 cycles: 22428120 heartbeat IPC: 1.68689 cumulative IPC: 1.64971 (Simulation time: 0 hr 28 min 21 sec) 
Heartbeat CPU 0 instructions: 38000003 cycles: 23021071 heartbeat IPC: 1.68649 cumulative IPC: 1.65066 (Simulation time: 0 hr 29 min 7 sec) 
Heartbeat CPU 0 instructions: 39000002 cycles: 23614382 heartbeat IPC: 1.68545 cumulative IPC: 1.65154 (Simulation time: 0 hr 29 min 50 sec) 
Heartbeat CPU 0 instructions: 40000000 cycles: 24207280 heartbeat IPC: 1.68663 cumulative IPC: 1.6524 (Simulation time: 0 hr 30 min 35 sec) 
Heartbeat CPU 0 instructions: 41000002 cycles: 24800180 heartbeat IPC: 1.68663 cumulative IPC: 1.65321 (Simulation time: 0 hr 31 min 18 sec) 
Heartbeat CPU 0 instructions: 42000000 cycles: 25393101 heartbeat IPC: 1.68656 cumulative IPC: 1.65399 (Simulation time: 0 hr 32 min 1 sec) 
Heartbeat CPU 0 instructions: 43000000 cycles: 25986098 heartbeat IPC: 1.68635 cumulative IPC: 1.65473 (Simulation time: 0 hr 32 min 46 sec) 
Heartbeat CPU 0 instructions: 44000000 cycles: 26578942 heartbeat IPC: 1.68678 cumulative IPC: 1.65545 (Simulation time: 0 hr 33 min 29 sec) 
Heartbeat CPU 0 instructions: 45000003 cycles: 27171926 heartbeat IPC: 1.68639 cumulative IPC: 1.65612 (Simulation time: 0 hr 34 min 12 sec) 
Heartbeat CPU 0 instructions: 46000001 cycles: 27765054 heartbeat IPC: 1.68597 cumulative IPC: 1.65676 (Simulation time: 0 hr 34 min 53 sec) 
Heartbeat CPU 0 instructions: 47000001 cycles: 28445132 heartbeat IPC: 1.47042 cumulative IPC: 1.6523 (Simulation time: 0 hr 35 min 41 sec) 
Heartbeat CPU 0 instructions: 48000000 cycles: 29112077 heartbeat IPC: 1.49937 cumulative IPC: 1.6488 (Simulation time: 0 hr 36 min 29 sec) 
Heartbeat CPU 0 instructions: 49000001 cycles: 29705027 heartbeat IPC: 1.68648 cumulative IPC: 1.64955 (Simulation time: 0 hr 37 min 10 sec) 
Heartbeat CPU 0 instructions: 50000003 cycles: 30297945 heartbeat IPC: 1.68658 cumulative IPC: 1.65028 (Simulation time: 0 hr 37 min 52 sec) 

Warmup complete CPU 0 instructions: 50000003 cycles: 30297945 (Simulation time: 0 hr 37 min 52 sec) 

Heartbeat CPU 0 instructions: 51000000 cycles: 31985721 heartbeat IPC: 0.592494 cumulative IPC: 0.592494 (Simulation time: 0 hr 38 min 42 sec) 
Heartbeat CPU 0 instructions: 52000000 cycles: 33666681 heartbeat IPC: 0.594898 cumulative IPC: 0.593694 (Simulation time: 0 hr 39 min 30 sec) 
Heartbeat CPU 0 instructions: 53000003 cycles: 35405753 heartbeat IPC: 0.575021 cumulative IPC: 0.587336 (Simulation time: 0 hr 40 min 14 sec) 
Heartbeat CPU 0 instructions: 54000001 cycles: 37144888 heartbeat IPC: 0.574997 cumulative IPC: 0.584202 (Simulation time: 0 hr 40 min 57 sec) 
Heartbeat CPU 0 instructions: 55000000 cycles: 38881575 heartbeat IPC: 0.575808 cumulative IPC: 0.582504 (Simulation time: 0 hr 41 min 41 sec) 
Heartbeat CPU 0 instructions: 56000000 cycles: 40541107 heartbeat IPC: 0.60258 cumulative IPC: 0.585756 (Simulation time: 0 hr 42 min 28 sec) 
Heartbeat CPU 0 instructions: 57000000 cycles: 42254585 heartbeat IPC: 0.583608 cumulative IPC: 0.585449 (Simulation time: 0 hr 43 min 14 sec) 
Heartbeat CPU 0 instructions: 58000002 cycles: 43995379 heartbeat IPC: 0.574452 cumulative IPC: 0.584051 (Simulation time: 0 hr 44 min 0 sec) 
Heartbeat CPU 0 instructions: 59000001 cycles: 45737602 heartbeat IPC: 0.573979 cumulative IPC: 0.582914 (Simulation time: 0 hr 44 min 46 sec) 
Heartbeat CPU 0 instructions: 60000000 cycles: 49096185 heartbeat IPC: 0.297744 cumulative IPC: 0.531965 (Simulation time: 0 hr 45 min 38 sec) 
Heartbeat CPU 0 instructions: 61000001 cycles: 54052751 heartbeat IPC: 0.201753 cumulative IPC: 0.463064 (Simulation time: 0 hr 46 min 31 sec) 
Heartbeat CPU 0 instructions: 62000000 cycles: 55789789 heartbeat IPC: 0.575692 cumulative IPC: 0.470739 (Simulation time: 0 hr 47 min 19 sec) 
Heartbeat CPU 0 instructions: 63000000 cycles: 57530577 heartbeat IPC: 0.574452 cumulative IPC: 0.477368 (Simulation time: 0 hr 48 min 7 sec) 
Heartbeat CPU 0 instructions: 64000000 cycles: 59265579 heartbeat IPC: 0.576368 cumulative IPC: 0.483298 (Simulation time: 0 hr 48 min 52 sec) 
Heartbeat CPU 0 instructions: 65000002 cycles: 60927303 heartbeat IPC: 0.601786 cumulative IPC: 0.489726 (Simulation time: 0 hr 49 min 34 sec) 
Heartbeat CPU 0 instructions: 66000003 cycles: 62633836 heartbeat IPC: 0.585984 cumulative IPC: 0.494806 (Simulation time: 0 hr 50 min 23 sec) 
Heartbeat CPU 0 instructions: 67000001 cycles: 64373864 heartbeat IPC: 0.574702 cumulative IPC: 0.498886 (Simulation time: 0 hr 51 min 9 sec) 
Heartbeat CPU 0 instructions: 68000000 cycles: 66115311 heartbeat IPC: 0.574235 cumulative IPC: 0.502549 (Simulation time: 0 hr 51 min 56 sec) 
Heartbeat CPU 0 instructions: 69000003 cycles: 67833882 heartbeat IPC: 0.581881 cumulative IPC: 0.506182 (Simulation time: 0 hr 52 min 43 sec) 
Heartbeat CPU 0 instructions: 70000000 cycles: 69488614 heartbeat IPC: 0.604326 cumulative IPC: 0.510325 (Simulation time: 0 hr 53 min 27 sec) 
Heartbeat CPU 0 instructions: 71000002 cycles: 71218798 heartbeat IPC: 0.577974 cumulative IPC: 0.513186 (Simulation time: 0 hr 54 min 12 sec) 
Heartbeat CPU 0 instructions: 72000000 cycles: 72960473 heartbeat IPC: 0.574159 cumulative IPC: 0.515675 (Simulation time: 0 hr 54 min 56 sec) 
Heartbeat CPU 0 instructions: 73000001 cycles: 75430210 heartbeat IPC: 0.404902 cumulative IPC: 0.509613 (Simulation time: 0 hr 55 min 41 sec) 
Heartbeat CPU 0 instructions: 74000002 cycles: 81344268 heartbeat IPC: 0.169089 cumulative IPC: 0.470161 (Simulation time: 0 hr 56 min 32 sec) 
Heartbeat CPU 0 instructions: 75000002 cycles: 83044345 heartbeat IPC: 0.588209 cumulative IPC: 0.473966 (Simulation time: 0 hr 57 min 16 sec) 
Heartbeat CPU 0 instructions: 76000000 cycles: 84785022 heartbeat IPC: 0.574488 cumulative IPC: 0.477177 (Simulation time: 0 hr 58 min 1 sec) 
Heartbeat CPU 0 instructions: 77000001 cycles: 86525327 heartbeat IPC: 0.574612 cumulative IPC: 0.480193 (Simulation time: 0 hr 58 min 48 sec) 
Heartbeat CPU 0 instructions: 78000000 cycles: 88249581 heartbeat IPC: 0.57996 cumulative IPC: 0.483161 (Simulation time: 0 hr 59 min 31 sec) 
Heartbeat CPU 0 instructions: 79000003 cycles: 89898192 heartbeat IPC: 0.606573 cumulative IPC: 0.486575 (Simulation time: 1 hr 0 min 16 sec) 
Heartbeat CPU 0 instructions: 80000000 cycles: 91630214 heartbeat IPC: 0.577358 cumulative IPC: 0.489139 (Simulation time: 1 hr 1 min 0 sec) 
Heartbeat CPU 0 instructions: 81000002 cycles: 93371596 heartbeat IPC: 0.574258 cumulative IPC: 0.491489 (Simulation time: 1 hr 1 min 43 sec) 
Heartbeat CPU 0 instructions: 82000003 cycles: 95112478 heartbeat IPC: 0.574422 cumulative IPC: 0.493716 (Simulation time: 1 hr 2 min 29 sec) 
Heartbeat CPU 0 instructions: 83000000 cycles: 96801948 heartbeat IPC: 0.5919 cumulative IPC: 0.496211 (Simulation time: 1 hr 3 min 17 sec) 
Heartbeat CPU 0 instructions: 84000000 cycles: 98478688 heartbeat IPC: 0.596395 cumulative IPC: 0.498674 (Simulation time: 1 hr 4 min 0 sec) 
Heartbeat CPU 0 instructions: 85000003 cycles: 100241819 heartbeat IPC: 0.567175 cumulative IPC: 0.500401 (Simulation time: 1 hr 4 min 49 sec) 
Heartbeat CPU 0 instructions: 86000000 cycles: 101984991 heartbeat IPC: 0.573665 cumulative IPC: 0.502183 (Simulation time: 1 hr 5 min 35 sec) 
Heartbeat CPU 0 instructions: 87000001 cycles: 108719873 heartbeat IPC: 0.148481 cumulative IPC: 0.471807 (Simulation time: 1 hr 6 min 30 sec) 
Heartbeat CPU 0 instructions: 88000000 cycles: 110366131 heartbeat IPC: 0.607438 cumulative IPC: 0.474595 (Simulation time: 1 hr 7 min 15 sec) 
Heartbeat CPU 0 instructions: 89000002 cycles: 112094199 heartbeat IPC: 0.578682 cumulative IPC: 0.476794 (Simulation time: 1 hr 8 min 1 sec) 
Heartbeat CPU 0 instructions: 90000001 cycles: 113860101 heartbeat IPC: 0.566282 cumulative IPC: 0.478686 (Simulation time: 1 hr 8 min 48 sec) 
Heartbeat CPU 0 instructions: 91000002 cycles: 115599130 heartbeat IPC: 0.575034 cumulative IPC: 0.48065 (Simulation time: 1 hr 9 min 36 sec) 
Heartbeat CPU 0 instructions: 92000000 cycles: 117294507 heartbeat IPC: 0.589838 cumulative IPC: 0.482778 (Simulation time: 1 hr 10 min 20 sec) 
Heartbeat CPU 0 instructions: 93000002 cycles: 118965066 heartbeat IPC: 0.598603 cumulative IPC: 0.48496 (Simulation time: 1 hr 11 min 3 sec) 
Heartbeat CPU 0 instructions: 94000002 cycles: 120700180 heartbeat IPC: 0.576331 cumulative IPC: 0.486714 (Simulation time: 1 hr 11 min 46 sec) 
Heartbeat CPU 0 instructions: 95000003 cycles: 122441499 heartbeat IPC: 0.574278 cumulative IPC: 0.488368 (Simulation time: 1 hr 12 min 26 sec) 
Heartbeat CPU 0 instructions: 96000000 cycles: 124177385 heartbeat IPC: 0.576073 cumulative IPC: 0.48999 (Simulation time: 1 hr 13 min 9 sec) 
Heartbeat CPU 0 instructions: 97000003 cycles: 125841157 heartbeat IPC: 0.601046 cumulative IPC: 0.491924 (Simulation time: 1 hr 13 min 52 sec) 
Heartbeat CPU 0 instructions: 98000003 cycles: 127543793 heartbeat IPC: 0.587325 cumulative IPC: 0.493594 (Simulation time: 1 hr 14 min 30 sec) 
Heartbeat CPU 0 instructions: 99000000 cycles: 129283567 heartbeat IPC: 0.574786 cumulative IPC: 0.495021 (Simulation time: 1 hr 15 min 16 sec) 
Heartbeat CPU 0 instructions: 100000000 cycles: 136030581 heartbeat IPC: 0.148214 cumulative IPC: 0.472891 (Simulation time: 1 hr 16 min 2 sec) 
Heartbeat CPU 0 instructions: 101000000 cycles: 137729543 heartbeat IPC: 0.588595 cumulative IPC: 0.474721 (Simulation time: 1 hr 16 min 39 sec) 
Heartbeat CPU 0 instructions: 102000003 cycles: 139397357 heartbeat IPC: 0.599589 cumulative IPC: 0.47663 (Simulation time: 1 hr 17 min 18 sec) 
Heartbeat CPU 0 instructions: 103000000 cycles: 141130999 heartbeat IPC: 0.576819 cumulative IPC: 0.478197 (Simulation time: 1 hr 17 min 58 sec) 
Heartbeat CPU 0 instructions: 104000000 cycles: 142870174 heartbeat IPC: 0.574985 cumulative IPC: 0.479692 (Simulation time: 1 hr 18 min 38 sec) 
Heartbeat CPU 0 instructions: 105000001 cycles: 144605604 heartbeat IPC: 0.576227 cumulative IPC: 0.481158 (Simulation time: 1 hr 19 min 18 sec) 
Heartbeat CPU 0 instructions: 106000000 cycles: 146274299 heartbeat IPC: 0.59927 cumulative IPC: 0.482857 (Simulation time: 1 hr 20 min 1 sec) 
Heartbeat CPU 0 instructions: 107000001 cycles: 147971694 heartbeat IPC: 0.589139 cumulative IPC: 0.48439 (Simulation time: 1 hr 20 min 38 sec) 
Heartbeat CPU 0 instructions: 108000000 cycles: 149711767 heartbeat IPC: 0.574688 cumulative IPC: 0.485706 (Simulation time: 1 hr 21 min 12 sec) 
Heartbeat CPU 0 instructions: 109000002 cycles: 151451779 heartbeat IPC: 0.57471 cumulative IPC: 0.486984 (Simulation time: 1 hr 21 min 51 sec) 
Heartbeat CPU 0 instructions: 110000001 cycles: 153176976 heartbeat IPC: 0.579643 cumulative IPC: 0.488285 (Simulation time: 1 hr 22 min 25 sec) 
Heartbeat CPU 0 instructions: 111000003 cycles: 154826165 heartbeat IPC: 0.60636 cumulative IPC: 0.489849 (Simulation time: 1 hr 23 min 1 sec) 
Heartbeat CPU 0 instructions: 112000000 cycles: 156555379 heartbeat IPC: 0.578296 cumulative IPC: 0.49106 (Simulation time: 1 hr 23 min 35 sec) 
Heartbeat CPU 0 instructions: 113000001 cycles: 163250779 heartbeat IPC: 0.149356 cumulative IPC: 0.473852 (Simulation time: 1 hr 24 min 11 sec) 
Heartbeat CPU 0 instructions: 114000003 cycles: 164988303 heartbeat IPC: 0.575533 cumulative IPC: 0.475164 (Simulation time: 1 hr 24 min 40 sec) 
Heartbeat CPU 0 instructions: 115000003 cycles: 166661879 heartbeat IPC: 0.597523 cumulative IPC: 0.476666 (Simulation time: 1 hr 25 min 8 sec) 
Heartbeat CPU 0 instructions: 116000000 cycles: 168355296 heartbeat IPC: 0.59052 cumulative IPC: 0.478062 (Simulation time: 1 hr 25 min 35 sec) 
Heartbeat CPU 0 instructions: 117000002 cycles: 170095029 heartbeat IPC: 0.574802 cumulative IPC: 0.479266 (Simulation time: 1 hr 26 min 1 sec) 
Heartbeat CPU 0 instructions: 118000001 cycles: 171835908 heartbeat IPC: 0.574422 cumulative IPC: 0.480436 (Simulation time: 1 hr 26 min 29 sec) 
Heartbeat CPU 0 instructions: 119000000 cycles: 173563518 heartbeat IPC: 0.578834 cumulative IPC: 0.481623 (Simulation time: 1 hr 26 min 56 sec) 
Heartbeat CPU 0 instructions: 120000000 cycles: 175211467 heartbeat IPC: 0.606815 cumulative IPC: 0.483047 (Simulation time: 1 hr 27 min 22 sec) 
Heartbeat CPU 0 instructions: 121000003 cycles: 176938367 heartbeat IPC: 0.579074 cumulative IPC: 0.484178 (Simulation time: 1 hr 27 min 48 sec) 
Heartbeat CPU 0 instructions: 122000003 cycles: 178679029 heartbeat IPC: 0.574494 cumulative IPC: 0.485237 (Simulation time: 1 hr 28 min 12 sec) 
Heartbeat CPU 0 instructions: 123000001 cycles: 180419371 heartbeat IPC: 0.574599 cumulative IPC: 0.486273 (Simulation time: 1 hr 28 min 36 sec) 
Heartbeat CPU 0 instructions: 124000000 cycles: 182118172 heartbeat IPC: 0.58865 cumulative IPC: 0.487419 (Simulation time: 1 hr 29 min 1 sec) 
Heartbeat CPU 0 instructions: 125000000 cycles: 183790587 heartbeat IPC: 0.597938 cumulative IPC: 0.488623 (Simulation time: 1 hr 29 min 23 sec) 
Heartbeat CPU 0 instructions: 126000002 cycles: 190229615 heartbeat IPC: 0.155303 cumulative IPC: 0.475203 (Simulation time: 1 hr 29 min 50 sec) 
Heartbeat CPU 0 instructions: 127000002 cycles: 192220922 heartbeat IPC: 0.502183 cumulative IPC: 0.475535 (Simulation time: 1 hr 30 min 11 sec) 
Heartbeat CPU 0 instructions: 128000000 cycles: 193950270 heartbeat IPC: 0.578251 cumulative IPC: 0.47662 (Simulation time: 1 hr 30 min 34 sec) 
Heartbeat CPU 0 instructions: 129000001 cycles: 195601335 heartbeat IPC: 0.60567 cumulative IPC: 0.477909 (Simulation time: 1 hr 30 min 56 sec) 
Heartbeat CPU 0 instructions: 130000001 cycles: 197323190 heartbeat IPC: 0.580769 cumulative IPC: 0.47897 (Simulation time: 1 hr 31 min 18 sec) 
Heartbeat CPU 0 instructions: 131000002 cycles: 199062776 heartbeat IPC: 0.57485 cumulative IPC: 0.479958 (Simulation time: 1 hr 31 min 39 sec) 
Heartbeat CPU 0 instructions: 132000000 cycles: 200801238 heartbeat IPC: 0.57522 cumulative IPC: 0.480929 (Simulation time: 1 hr 31 min 59 sec) 
Heartbeat CPU 0 instructions: 133000002 cycles: 202501826 heartbeat IPC: 0.588033 cumulative IPC: 0.481987 (Simulation time: 1 hr 32 min 19 sec) 
Heartbeat CPU 0 instructions: 134000000 cycles: 204165925 heartbeat IPC: 0.600925 cumulative IPC: 0.483125 (Simulation time: 1 hr 32 min 39 sec) 
Heartbeat CPU 0 instructions: 135000003 cycles: 205901807 heartbeat IPC: 0.576078 cumulative IPC: 0.484044 (Simulation time: 1 hr 32 min 57 sec) 
Heartbeat CPU 0 instructions: 136000000 cycles: 207639965 heartbeat IPC: 0.57532 cumulative IPC: 0.484939 (Simulation time: 1 hr 33 min 14 sec) 
Heartbeat CPU 0 instructions: 137000003 cycles: 209376798 heartbeat IPC: 0.575762 cumulative IPC: 0.48582 (Simulation time: 1 hr 33 min 31 sec) 
Heartbeat CPU 0 instructions: 138000003 cycles: 211049157 heartbeat IPC: 0.597958 cumulative IPC: 0.486857 (Simulation time: 1 hr 33 min 46 sec) 
Heartbeat CPU 0 instructions: 139000000 cycles: 216445390 heartbeat IPC: 0.185314 cumulative IPC: 0.478116 (Simulation time: 1 hr 34 min 3 sec) 
Heartbeat CPU 0 instructions: 140000000 cycles: 219408139 heartbeat IPC: 0.337524 cumulative IPC: 0.475913 (Simulation time: 1 hr 34 min 17 sec) 
Heartbeat CPU 0 instructions: 141000001 cycles: 221145168 heartbeat IPC: 0.575696 cumulative IPC: 0.476821 (Simulation time: 1 hr 34 min 30 sec) 
Heartbeat CPU 0 instructions: 142000000 cycles: 222851485 heartbeat IPC: 0.586057 cumulative IPC: 0.477789 (Simulation time: 1 hr 34 min 42 sec) 
Heartbeat CPU 0 instructions: 143000003 cycles: 224511750 heartbeat IPC: 0.602315 cumulative IPC: 0.478854 (Simulation time: 1 hr 34 min 53 sec) 
Heartbeat CPU 0 instructions: 144000000 cycles: 226243136 heartbeat IPC: 0.57757 cumulative IPC: 0.479726 (Simulation time: 1 hr 35 min 4 sec) 
Heartbeat CPU 0 instructions: 145000002 cycles: 227997128 heartbeat IPC: 0.570129 cumulative IPC: 0.480528 (Simulation time: 1 hr 35 min 15 sec) 
Heartbeat CPU 0 instructions: 146000001 cycles: 229732916 heartbeat IPC: 0.576107 cumulative IPC: 0.48136 (Simulation time: 1 hr 35 min 25 sec) 
Heartbeat CPU 0 instructions: 147000000 cycles: 231407220 heartbeat IPC: 0.597263 cumulative IPC: 0.482325 (Simulation time: 1 hr 35 min 37 sec) 
Heartbeat CPU 0 instructions: 148000000 cycles: 233094970 heartbeat IPC: 0.592505 cumulative IPC: 0.483242 (Simulation time: 1 hr 35 min 48 sec) 
Heartbeat CPU 0 instructions: 149000000 cycles: 234848982 heartbeat IPC: 0.570122 cumulative IPC: 0.483987 (Simulation time: 1 hr 35 min 59 sec) 
Heartbeat CPU 0 instructions: 150000002 cycles: 236607014 heartbeat IPC: 0.568819 cumulative IPC: 0.48471 (Simulation time: 1 hr 36 min 9 sec) 
Finished CPU 0 instructions: 100000003 cycles: 206309070 cummulative IPC: 0.48471 (Simulation time: 1 hr 36 min 9 sec) 

ChampSim completed all CPUs

Region of Interest Statistics

CPU 0 cummulative IPC: 0.48471 instructions: 100000003 cycles: 206309070
LLC TOTAL     ACCESS:    1106864  HIT:     318226  MISS:     788638
LLC LOAD      ACCESS:      21630  HIT:       3046  MISS:      18584
LLC RFO       ACCESS:     245174  HIT:      87357  MISS:     157817
LLC PREFETCH  ACCESS:     594496  HIT:     117423  MISS:     477073
LLC WRITEBACK ACCESS:     245564  HIT:     110400  MISS:     135164
OPTgen accesses: 6535
OPTgen hits: 2299
OPTgen hit rate: 35.1798


