
*** ChampSim Multicore Out-of-Order Simulator ***

Warmup Instructions: 50000000
Simulation Instructions: 100000000
Configuration: 2
Number of CPUs: 1
LLC sets: 2048
LLC ways: 16
Off-chip DRAM Channels: 1 Width: 64-bit Data Rate: 1600 MT/s

CPU 0 runs /datasets/cs240c-wi22-a00-public/data/Assignment2-gz/soplex_217B.trace.gz
CPU 0 L1D next line prefetcher
CPU 0 L2C IP-based stride prefetcher
Initialize Hawkeye state
Heartbeat CPU 0 instructions: 1000002 cycles: 441289 heartbeat IPC: 2.26609 cumulative IPC: 2.26609 (Simulation time: 0 hr 0 min 42 sec) 
Heartbeat CPU 0 instructions: 2000003 cycles: 800423 heartbeat IPC: 2.78448 cumulative IPC: 2.49868 (Simulation time: 0 hr 1 min 16 sec) 
Heartbeat CPU 0 instructions: 3000002 cycles: 1245423 heartbeat IPC: 2.24719 cumulative IPC: 2.40882 (Simulation time: 0 hr 1 min 54 sec) 
Heartbeat CPU 0 instructions: 4000000 cycles: 1672910 heartbeat IPC: 2.33925 cumulative IPC: 2.39104 (Simulation time: 0 hr 2 min 35 sec) 
Heartbeat CPU 0 instructions: 5000001 cycles: 2056959 heartbeat IPC: 2.60384 cumulative IPC: 2.43077 (Simulation time: 0 hr 3 min 7 sec) 
Heartbeat CPU 0 instructions: 6000000 cycles: 2431127 heartbeat IPC: 2.67259 cumulative IPC: 2.46799 (Simulation time: 0 hr 3 min 41 sec) 
Heartbeat CPU 0 instructions: 7000003 cycles: 2955267 heartbeat IPC: 1.90789 cumulative IPC: 2.36865 (Simulation time: 0 hr 4 min 16 sec) 
Heartbeat CPU 0 instructions: 8000000 cycles: 3401581 heartbeat IPC: 2.24057 cumulative IPC: 2.35185 (Simulation time: 0 hr 4 min 58 sec) 
Heartbeat CPU 0 instructions: 9000001 cycles: 3825896 heartbeat IPC: 2.35674 cumulative IPC: 2.35239 (Simulation time: 0 hr 5 min 37 sec) 
Heartbeat CPU 0 instructions: 10000000 cycles: 4238209 heartbeat IPC: 2.42534 cumulative IPC: 2.35949 (Simulation time: 0 hr 6 min 13 sec) 
Heartbeat CPU 0 instructions: 11000002 cycles: 4666846 heartbeat IPC: 2.33298 cumulative IPC: 2.35705 (Simulation time: 0 hr 6 min 54 sec) 
Heartbeat CPU 0 instructions: 12000000 cycles: 5071090 heartbeat IPC: 2.47375 cumulative IPC: 2.36636 (Simulation time: 0 hr 7 min 31 sec) 
Heartbeat CPU 0 instructions: 13000000 cycles: 5455335 heartbeat IPC: 2.60251 cumulative IPC: 2.38299 (Simulation time: 0 hr 8 min 3 sec) 
Heartbeat CPU 0 instructions: 14000000 cycles: 5904487 heartbeat IPC: 2.22642 cumulative IPC: 2.37108 (Simulation time: 0 hr 8 min 35 sec) 
Heartbeat CPU 0 instructions: 15000000 cycles: 6425729 heartbeat IPC: 1.91849 cumulative IPC: 2.33437 (Simulation time: 0 hr 9 min 12 sec) 
Heartbeat CPU 0 instructions: 16000000 cycles: 6884242 heartbeat IPC: 2.18096 cumulative IPC: 2.32415 (Simulation time: 0 hr 9 min 56 sec) 
Heartbeat CPU 0 instructions: 17000002 cycles: 7264126 heartbeat IPC: 2.63239 cumulative IPC: 2.34027 (Simulation time: 0 hr 10 min 31 sec) 
Heartbeat CPU 0 instructions: 18000003 cycles: 7693947 heartbeat IPC: 2.32655 cumulative IPC: 2.3395 (Simulation time: 0 hr 11 min 11 sec) 
Heartbeat CPU 0 instructions: 19000001 cycles: 8117891 heartbeat IPC: 2.3588 cumulative IPC: 2.34051 (Simulation time: 0 hr 11 min 50 sec) 
Heartbeat CPU 0 instructions: 20000000 cycles: 8502235 heartbeat IPC: 2.60183 cumulative IPC: 2.35232 (Simulation time: 0 hr 12 min 22 sec) 
Heartbeat CPU 0 instructions: 21000000 cycles: 8879813 heartbeat IPC: 2.64846 cumulative IPC: 2.36491 (Simulation time: 0 hr 12 min 53 sec) 
Heartbeat CPU 0 instructions: 22000001 cycles: 9410997 heartbeat IPC: 1.88259 cumulative IPC: 2.33769 (Simulation time: 0 hr 13 min 28 sec) 
Heartbeat CPU 0 instructions: 23000001 cycles: 9858984 heartbeat IPC: 2.23221 cumulative IPC: 2.3329 (Simulation time: 0 hr 14 min 16 sec) 
Heartbeat CPU 0 instructions: 24000000 cycles: 10276302 heartbeat IPC: 2.39625 cumulative IPC: 2.33547 (Simulation time: 0 hr 14 min 55 sec) 
Heartbeat CPU 0 instructions: 25000001 cycles: 10688867 heartbeat IPC: 2.42386 cumulative IPC: 2.33888 (Simulation time: 0 hr 15 min 32 sec) 
Heartbeat CPU 0 instructions: 26000000 cycles: 11120862 heartbeat IPC: 2.31484 cumulative IPC: 2.33795 (Simulation time: 0 hr 16 min 13 sec) 
Heartbeat CPU 0 instructions: 27000002 cycles: 11523043 heartbeat IPC: 2.48645 cumulative IPC: 2.34313 (Simulation time: 0 hr 16 min 48 sec) 
Heartbeat CPU 0 instructions: 28000000 cycles: 11907356 heartbeat IPC: 2.60204 cumulative IPC: 2.35149 (Simulation time: 0 hr 17 min 20 sec) 
Heartbeat CPU 0 instructions: 29000002 cycles: 12362205 heartbeat IPC: 2.19854 cumulative IPC: 2.34586 (Simulation time: 0 hr 17 min 52 sec) 
Heartbeat CPU 0 instructions: 30000002 cycles: 12885264 heartbeat IPC: 1.91183 cumulative IPC: 2.32824 (Simulation time: 0 hr 18 min 32 sec) 
Heartbeat CPU 0 instructions: 31000000 cycles: 13290604 heartbeat IPC: 2.46706 cumulative IPC: 2.33247 (Simulation time: 0 hr 19 min 11 sec) 
Heartbeat CPU 0 instructions: 32000000 cycles: 13698825 heartbeat IPC: 2.44965 cumulative IPC: 2.33597 (Simulation time: 0 hr 19 min 48 sec) 
Heartbeat CPU 0 instructions: 33000002 cycles: 14123973 heartbeat IPC: 2.35213 cumulative IPC: 2.33645 (Simulation time: 0 hr 20 min 29 sec) 
Heartbeat CPU 0 instructions: 34000000 cycles: 14532332 heartbeat IPC: 2.44882 cumulative IPC: 2.33961 (Simulation time: 0 hr 21 min 8 sec) 
Heartbeat CPU 0 instructions: 35000002 cycles: 14917028 heartbeat IPC: 2.59946 cumulative IPC: 2.34631 (Simulation time: 0 hr 21 min 43 sec) 
Heartbeat CPU 0 instructions: 36000000 cycles: 15353769 heartbeat IPC: 2.28968 cumulative IPC: 2.3447 (Simulation time: 0 hr 22 min 15 sec) 
Heartbeat CPU 0 instructions: 37000001 cycles: 15878793 heartbeat IPC: 1.90468 cumulative IPC: 2.33015 (Simulation time: 0 hr 22 min 50 sec) 
Heartbeat CPU 0 instructions: 38000000 cycles: 16307225 heartbeat IPC: 2.33409 cumulative IPC: 2.33026 (Simulation time: 0 hr 23 min 32 sec) 
Heartbeat CPU 0 instructions: 39000001 cycles: 16703672 heartbeat IPC: 2.52241 cumulative IPC: 2.33482 (Simulation time: 0 hr 24 min 9 sec) 
Heartbeat CPU 0 instructions: 40000000 cycles: 17128278 heartbeat IPC: 2.35512 cumulative IPC: 2.33532 (Simulation time: 0 hr 24 min 51 sec) 
Heartbeat CPU 0 instructions: 41000000 cycles: 17543472 heartbeat IPC: 2.40851 cumulative IPC: 2.33705 (Simulation time: 0 hr 25 min 31 sec) 
Heartbeat CPU 0 instructions: 42000002 cycles: 17927397 heartbeat IPC: 2.60468 cumulative IPC: 2.34278 (Simulation time: 0 hr 26 min 3 sec) 
Heartbeat CPU 0 instructions: 43000000 cycles: 18348146 heartbeat IPC: 2.37671 cumulative IPC: 2.34356 (Simulation time: 0 hr 26 min 35 sec) 
Heartbeat CPU 0 instructions: 44000000 cycles: 18879592 heartbeat IPC: 1.88166 cumulative IPC: 2.33056 (Simulation time: 0 hr 27 min 8 sec) 
Heartbeat CPU 0 instructions: 45000003 cycles: 19338856 heartbeat IPC: 2.1774 cumulative IPC: 2.32692 (Simulation time: 0 hr 27 min 52 sec) 
Heartbeat CPU 0 instructions: 46000000 cycles: 19770626 heartbeat IPC: 2.31604 cumulative IPC: 2.32668 (Simulation time: 0 hr 28 min 30 sec) 
Heartbeat CPU 0 instructions: 47000001 cycles: 20181518 heartbeat IPC: 2.43373 cumulative IPC: 2.32886 (Simulation time: 0 hr 29 min 7 sec) 
Heartbeat CPU 0 instructions: 48000000 cycles: 20610107 heartbeat IPC: 2.33324 cumulative IPC: 2.32895 (Simulation time: 0 hr 29 min 49 sec) 
Heartbeat CPU 0 instructions: 49000000 cycles: 21015473 heartbeat IPC: 2.46691 cumulative IPC: 2.33162 (Simulation time: 0 hr 30 min 29 sec) 
Heartbeat CPU 0 instructions: 50000002 cycles: 21399977 heartbeat IPC: 2.60076 cumulative IPC: 2.33645 (Simulation time: 0 hr 31 min 1 sec) 

Warmup complete CPU 0 instructions: 50000002 cycles: 21399977 (Simulation time: 0 hr 31 min 1 sec) 

Heartbeat CPU 0 instructions: 51000000 cycles: 23934494 heartbeat IPC: 0.394552 cumulative IPC: 0.394552 (Simulation time: 0 hr 31 min 39 sec) 
Heartbeat CPU 0 instructions: 52000000 cycles: 26776662 heartbeat IPC: 0.351844 cumulative IPC: 0.371976 (Simulation time: 0 hr 32 min 29 sec) 
Heartbeat CPU 0 instructions: 53000000 cycles: 30064341 heartbeat IPC: 0.304166 cumulative IPC: 0.346246 (Simulation time: 0 hr 33 min 21 sec) 
Heartbeat CPU 0 instructions: 54000000 cycles: 31932193 heartbeat IPC: 0.535374 cumulative IPC: 0.379787 (Simulation time: 0 hr 34 min 4 sec) 
Heartbeat CPU 0 instructions: 55000000 cycles: 35342240 heartbeat IPC: 0.293251 cumulative IPC: 0.358622 (Simulation time: 0 hr 35 min 1 sec) 
Heartbeat CPU 0 instructions: 56000000 cycles: 38144012 heartbeat IPC: 0.356917 cumulative IPC: 0.358336 (Simulation time: 0 hr 35 min 44 sec) 
Heartbeat CPU 0 instructions: 57000003 cycles: 39374105 heartbeat IPC: 0.812949 cumulative IPC: 0.389449 (Simulation time: 0 hr 36 min 13 sec) 
Heartbeat CPU 0 instructions: 58000000 cycles: 41501576 heartbeat IPC: 0.47004 cumulative IPC: 0.397978 (Simulation time: 0 hr 36 min 51 sec) 
Heartbeat CPU 0 instructions: 59000001 cycles: 44200758 heartbeat IPC: 0.370483 cumulative IPC: 0.394723 (Simulation time: 0 hr 37 min 37 sec) 
Heartbeat CPU 0 instructions: 60000000 cycles: 47586010 heartbeat IPC: 0.295399 cumulative IPC: 0.381883 (Simulation time: 0 hr 38 min 35 sec) 
Heartbeat CPU 0 instructions: 61000000 cycles: 49842725 heartbeat IPC: 0.443122 cumulative IPC: 0.386742 (Simulation time: 0 hr 39 min 22 sec) 
Heartbeat CPU 0 instructions: 62000002 cycles: 52577784 heartbeat IPC: 0.365624 cumulative IPC: 0.384889 (Simulation time: 0 hr 40 min 13 sec) 
Heartbeat CPU 0 instructions: 63000001 cycles: 55875591 heartbeat IPC: 0.303232 cumulative IPC: 0.377078 (Simulation time: 0 hr 41 min 3 sec) 
Heartbeat CPU 0 instructions: 64000000 cycles: 57126759 heartbeat IPC: 0.799252 cumulative IPC: 0.391863 (Simulation time: 0 hr 41 min 34 sec) 
Heartbeat CPU 0 instructions: 65000001 cycles: 58554015 heartbeat IPC: 0.700646 cumulative IPC: 0.403725 (Simulation time: 0 hr 42 min 6 sec) 
Heartbeat CPU 0 instructions: 66000002 cycles: 61751255 heartbeat IPC: 0.31277 cumulative IPC: 0.396518 (Simulation time: 0 hr 42 min 53 sec) 
Heartbeat CPU 0 instructions: 67000000 cycles: 64914288 heartbeat IPC: 0.316152 cumulative IPC: 0.390676 (Simulation time: 0 hr 43 min 47 sec) 
Heartbeat CPU 0 instructions: 68000000 cycles: 70501126 heartbeat IPC: 0.178992 cumulative IPC: 0.36659 (Simulation time: 0 hr 44 min 44 sec) 
Heartbeat CPU 0 instructions: 69000001 cycles: 74417339 heartbeat IPC: 0.255349 cumulative IPC: 0.358373 (Simulation time: 0 hr 45 min 35 sec) 
Heartbeat CPU 0 instructions: 70000002 cycles: 78464361 heartbeat IPC: 0.247096 cumulative IPC: 0.350481 (Simulation time: 0 hr 46 min 34 sec) 
Heartbeat CPU 0 instructions: 71000002 cycles: 82678230 heartbeat IPC: 0.237312 cumulative IPC: 0.342699 (Simulation time: 0 hr 47 min 28 sec) 
Heartbeat CPU 0 instructions: 72000000 cycles: 85975020 heartbeat IPC: 0.303325 cumulative IPC: 0.340689 (Simulation time: 0 hr 48 min 16 sec) 
Heartbeat CPU 0 instructions: 73000000 cycles: 89295765 heartbeat IPC: 0.301137 cumulative IPC: 0.338754 (Simulation time: 0 hr 49 min 7 sec) 
Heartbeat CPU 0 instructions: 74000000 cycles: 92888386 heartbeat IPC: 0.278348 cumulative IPC: 0.335719 (Simulation time: 0 hr 49 min 49 sec) 
Heartbeat CPU 0 instructions: 75000002 cycles: 96487432 heartbeat IPC: 0.277852 cumulative IPC: 0.332945 (Simulation time: 0 hr 50 min 39 sec) 
Heartbeat CPU 0 instructions: 76000000 cycles: 99041997 heartbeat IPC: 0.391455 cumulative IPC: 0.33487 (Simulation time: 0 hr 51 min 24 sec) 
Heartbeat CPU 0 instructions: 77000000 cycles: 102404795 heartbeat IPC: 0.297371 cumulative IPC: 0.333313 (Simulation time: 0 hr 52 min 14 sec) 
Heartbeat CPU 0 instructions: 78000002 cycles: 104572319 heartbeat IPC: 0.461357 cumulative IPC: 0.33665 (Simulation time: 0 hr 52 min 57 sec) 
Heartbeat CPU 0 instructions: 79000003 cycles: 106444837 heartbeat IPC: 0.534041 cumulative IPC: 0.340997 (Simulation time: 0 hr 53 min 41 sec) 
Heartbeat CPU 0 instructions: 80000000 cycles: 107747058 heartbeat IPC: 0.767917 cumulative IPC: 0.347435 (Simulation time: 0 hr 54 min 17 sec) 
Heartbeat CPU 0 instructions: 81000003 cycles: 109885295 heartbeat IPC: 0.467676 cumulative IPC: 0.350341 (Simulation time: 0 hr 55 min 1 sec) 
Heartbeat CPU 0 instructions: 82000001 cycles: 112557894 heartbeat IPC: 0.374167 cumulative IPC: 0.351039 (Simulation time: 0 hr 55 min 52 sec) 
Heartbeat CPU 0 instructions: 83000002 cycles: 114869346 heartbeat IPC: 0.432629 cumulative IPC: 0.353057 (Simulation time: 0 hr 56 min 38 sec) 
Heartbeat CPU 0 instructions: 84000000 cycles: 117078048 heartbeat IPC: 0.452754 cumulative IPC: 0.355358 (Simulation time: 0 hr 57 min 22 sec) 
Heartbeat CPU 0 instructions: 85000000 cycles: 118648951 heartbeat IPC: 0.636577 cumulative IPC: 0.359901 (Simulation time: 0 hr 58 min 3 sec) 
Heartbeat CPU 0 instructions: 86000000 cycles: 122295631 heartbeat IPC: 0.274222 cumulative IPC: 0.356804 (Simulation time: 0 hr 58 min 55 sec) 
Heartbeat CPU 0 instructions: 87000000 cycles: 124823562 heartbeat IPC: 0.39558 cumulative IPC: 0.357752 (Simulation time: 0 hr 59 min 33 sec) 
Heartbeat CPU 0 instructions: 88000000 cycles: 126145809 heartbeat IPC: 0.756288 cumulative IPC: 0.362783 (Simulation time: 1 hr 0 min 1 sec) 
Heartbeat CPU 0 instructions: 89000003 cycles: 128768139 heartbeat IPC: 0.381341 cumulative IPC: 0.363236 (Simulation time: 1 hr 0 min 40 sec) 
Heartbeat CPU 0 instructions: 90000002 cycles: 131675166 heartbeat IPC: 0.343994 cumulative IPC: 0.362729 (Simulation time: 1 hr 1 min 26 sec) 
Heartbeat CPU 0 instructions: 91000001 cycles: 135019659 heartbeat IPC: 0.298999 cumulative IPC: 0.360853 (Simulation time: 1 hr 2 min 18 sec) 
Heartbeat CPU 0 instructions: 92000000 cycles: 136857071 heartbeat IPC: 0.544243 cumulative IPC: 0.363771 (Simulation time: 1 hr 2 min 58 sec) 
Heartbeat CPU 0 instructions: 93000000 cycles: 140313111 heartbeat IPC: 0.289349 cumulative IPC: 0.361608 (Simulation time: 1 hr 3 min 50 sec) 
Heartbeat CPU 0 instructions: 94000001 cycles: 143074211 heartbeat IPC: 0.362175 cumulative IPC: 0.361621 (Simulation time: 1 hr 4 min 34 sec) 
Heartbeat CPU 0 instructions: 95000003 cycles: 144298056 heartbeat IPC: 0.817099 cumulative IPC: 0.366157 (Simulation time: 1 hr 5 min 2 sec) 
Heartbeat CPU 0 instructions: 96000000 cycles: 146495090 heartbeat IPC: 0.455158 cumulative IPC: 0.36772 (Simulation time: 1 hr 5 min 38 sec) 
Heartbeat CPU 0 instructions: 97000002 cycles: 149044528 heartbeat IPC: 0.392244 cumulative IPC: 0.36821 (Simulation time: 1 hr 6 min 23 sec) 
Heartbeat CPU 0 instructions: 98000003 cycles: 153008172 heartbeat IPC: 0.252293 cumulative IPC: 0.364719 (Simulation time: 1 hr 7 min 27 sec) 
Heartbeat CPU 0 instructions: 99000000 cycles: 155965054 heartbeat IPC: 0.338193 cumulative IPC: 0.364136 (Simulation time: 1 hr 8 min 17 sec) 
Heartbeat CPU 0 instructions: 100000000 cycles: 157825364 heartbeat IPC: 0.537545 cumulative IPC: 0.366501 (Simulation time: 1 hr 9 min 4 sec) 
Heartbeat CPU 0 instructions: 101000001 cycles: 161650955 heartbeat IPC: 0.261398 cumulative IPC: 0.363634 (Simulation time: 1 hr 10 min 2 sec) 
Heartbeat CPU 0 instructions: 102000000 cycles: 163254802 heartbeat IPC: 0.6235 cumulative IPC: 0.366572 (Simulation time: 1 hr 10 min 33 sec) 
Heartbeat CPU 0 instructions: 103000001 cycles: 164504527 heartbeat IPC: 0.800177 cumulative IPC: 0.370359 (Simulation time: 1 hr 11 min 2 sec) 
Heartbeat CPU 0 instructions: 104000000 cycles: 167843197 heartbeat IPC: 0.29952 cumulative IPC: 0.368744 (Simulation time: 1 hr 11 min 46 sec) 
Heartbeat CPU 0 instructions: 105000003 cycles: 170991593 heartbeat IPC: 0.317623 cumulative IPC: 0.367668 (Simulation time: 1 hr 12 min 38 sec) 
Heartbeat CPU 0 instructions: 106000002 cycles: 173848016 heartbeat IPC: 0.350088 cumulative IPC: 0.367338 (Simulation time: 1 hr 13 min 16 sec) 
Heartbeat CPU 0 instructions: 107000000 cycles: 175538010 heartbeat IPC: 0.591717 cumulative IPC: 0.369798 (Simulation time: 1 hr 13 min 53 sec) 
Heartbeat CPU 0 instructions: 108000000 cycles: 179482137 heartbeat IPC: 0.253542 cumulative IPC: 0.366898 (Simulation time: 1 hr 14 min 40 sec) 
Heartbeat CPU 0 instructions: 109000000 cycles: 181321183 heartbeat IPC: 0.54376 cumulative IPC: 0.368932 (Simulation time: 1 hr 15 min 9 sec) 
Heartbeat CPU 0 instructions: 110000002 cycles: 182481271 heartbeat IPC: 0.862005 cumulative IPC: 0.372483 (Simulation time: 1 hr 15 min 37 sec) 
Heartbeat CPU 0 instructions: 111000000 cycles: 185709561 heartbeat IPC: 0.309761 cumulative IPC: 0.37125 (Simulation time: 1 hr 16 min 11 sec) 
Heartbeat CPU 0 instructions: 112000000 cycles: 188575349 heartbeat IPC: 0.348944 cumulative IPC: 0.370868 (Simulation time: 1 hr 16 min 52 sec) 
Heartbeat CPU 0 instructions: 113000001 cycles: 191456272 heartbeat IPC: 0.347111 cumulative IPC: 0.370466 (Simulation time: 1 hr 17 min 31 sec) 
Heartbeat CPU 0 instructions: 114000003 cycles: 192936893 heartbeat IPC: 0.675394 cumulative IPC: 0.373098 (Simulation time: 1 hr 18 min 6 sec) 
Heartbeat CPU 0 instructions: 115000001 cycles: 196826038 heartbeat IPC: 0.257125 cumulative IPC: 0.370526 (Simulation time: 1 hr 18 min 50 sec) 
Heartbeat CPU 0 instructions: 116000000 cycles: 198972038 heartbeat IPC: 0.465983 cumulative IPC: 0.37168 (Simulation time: 1 hr 19 min 17 sec) 
Heartbeat CPU 0 instructions: 117000000 cycles: 200153827 heartbeat IPC: 0.846175 cumulative IPC: 0.374817 (Simulation time: 1 hr 19 min 38 sec) 
Heartbeat CPU 0 instructions: 118000000 cycles: 203119038 heartbeat IPC: 0.337244 cumulative IPC: 0.374204 (Simulation time: 1 hr 20 min 8 sec) 
Heartbeat CPU 0 instructions: 119000001 cycles: 205905751 heartbeat IPC: 0.358846 cumulative IPC: 0.373972 (Simulation time: 1 hr 20 min 46 sec) 
Heartbeat CPU 0 instructions: 120000000 cycles: 208931860 heartbeat IPC: 0.330457 cumulative IPC: 0.37327 (Simulation time: 1 hr 21 min 23 sec) 
Heartbeat CPU 0 instructions: 121000000 cycles: 210427236 heartbeat IPC: 0.668728 cumulative IPC: 0.375607 (Simulation time: 1 hr 21 min 56 sec) 
Heartbeat CPU 0 instructions: 122000001 cycles: 214119025 heartbeat IPC: 0.270872 cumulative IPC: 0.373601 (Simulation time: 1 hr 22 min 39 sec) 
Heartbeat CPU 0 instructions: 123000000 cycles: 216611967 heartbeat IPC: 0.401132 cumulative IPC: 0.373952 (Simulation time: 1 hr 23 min 8 sec) 
Heartbeat CPU 0 instructions: 124000000 cycles: 217817861 heartbeat IPC: 0.82926 cumulative IPC: 0.376748 (Simulation time: 1 hr 23 min 29 sec) 
Heartbeat CPU 0 instructions: 125000003 cycles: 220407549 heartbeat IPC: 0.386148 cumulative IPC: 0.37687 (Simulation time: 1 hr 23 min 55 sec) 
Heartbeat CPU 0 instructions: 126000002 cycles: 223188854 heartbeat IPC: 0.359543 cumulative IPC: 0.376631 (Simulation time: 1 hr 24 min 26 sec) 
Heartbeat CPU 0 instructions: 127000003 cycles: 225567947 heartbeat IPC: 0.420329 cumulative IPC: 0.37714 (Simulation time: 1 hr 24 min 55 sec) 
Heartbeat CPU 0 instructions: 128000000 cycles: 228243536 heartbeat IPC: 0.373748 cumulative IPC: 0.377097 (Simulation time: 1 hr 25 min 22 sec) 
Heartbeat CPU 0 instructions: 129000001 cycles: 230206548 heartbeat IPC: 0.509422 cumulative IPC: 0.378341 (Simulation time: 1 hr 25 min 48 sec) 
Heartbeat CPU 0 instructions: 130000000 cycles: 234210581 heartbeat IPC: 0.249748 cumulative IPC: 0.375921 (Simulation time: 1 hr 26 min 21 sec) 
Heartbeat CPU 0 instructions: 131000001 cycles: 235541388 heartbeat IPC: 0.751424 cumulative IPC: 0.378255 (Simulation time: 1 hr 26 min 36 sec) 
Heartbeat CPU 0 instructions: 132000000 cycles: 236679819 heartbeat IPC: 0.878401 cumulative IPC: 0.3809 (Simulation time: 1 hr 26 min 52 sec) 
Heartbeat CPU 0 instructions: 133000002 cycles: 240042823 heartbeat IPC: 0.297354 cumulative IPC: 0.379615 (Simulation time: 1 hr 27 min 18 sec) 
Heartbeat CPU 0 instructions: 134000002 cycles: 243194421 heartbeat IPC: 0.317299 cumulative IPC: 0.378729 (Simulation time: 1 hr 27 min 47 sec) 
Heartbeat CPU 0 instructions: 135000001 cycles: 245924966 heartbeat IPC: 0.366227 cumulative IPC: 0.378577 (Simulation time: 1 hr 28 min 9 sec) 
Heartbeat CPU 0 instructions: 136000000 cycles: 247630569 heartbeat IPC: 0.586302 cumulative IPC: 0.380143 (Simulation time: 1 hr 28 min 30 sec) 
Heartbeat CPU 0 instructions: 137000003 cycles: 251511032 heartbeat IPC: 0.257702 cumulative IPC: 0.378078 (Simulation time: 1 hr 28 min 58 sec) 
Heartbeat CPU 0 instructions: 138000000 cycles: 253271745 heartbeat IPC: 0.56795 cumulative IPC: 0.37952 (Simulation time: 1 hr 29 min 13 sec) 
Heartbeat CPU 0 instructions: 139000000 cycles: 254429850 heartbeat IPC: 0.86348 cumulative IPC: 0.381925 (Simulation time: 1 hr 29 min 27 sec) 
Heartbeat CPU 0 instructions: 140000000 cycles: 257740563 heartbeat IPC: 0.30205 cumulative IPC: 0.380806 (Simulation time: 1 hr 29 min 47 sec) 
Heartbeat CPU 0 instructions: 141000001 cycles: 260657393 heartbeat IPC: 0.342838 cumulative IPC: 0.380343 (Simulation time: 1 hr 30 min 10 sec) 
Heartbeat CPU 0 instructions: 142000001 cycles: 263550119 heartbeat IPC: 0.345695 cumulative IPC: 0.37993 (Simulation time: 1 hr 30 min 31 sec) 
Heartbeat CPU 0 instructions: 143000000 cycles: 265121311 heartbeat IPC: 0.636459 cumulative IPC: 0.381583 (Simulation time: 1 hr 30 min 50 sec) 
Heartbeat CPU 0 instructions: 144000000 cycles: 269035284 heartbeat IPC: 0.255495 cumulative IPC: 0.37959 (Simulation time: 1 hr 31 min 15 sec) 
Heartbeat CPU 0 instructions: 145000001 cycles: 271070462 heartbeat IPC: 0.491358 cumulative IPC: 0.380502 (Simulation time: 1 hr 31 min 29 sec) 
Heartbeat CPU 0 instructions: 146000000 cycles: 272244571 heartbeat IPC: 0.851709 cumulative IPC: 0.382707 (Simulation time: 1 hr 31 min 41 sec) 
Heartbeat CPU 0 instructions: 147000000 cycles: 275292489 heartbeat IPC: 0.328093 cumulative IPC: 0.382051 (Simulation time: 1 hr 31 min 58 sec) 
Heartbeat CPU 0 instructions: 148000000 cycles: 278095552 heartbeat IPC: 0.356753 cumulative IPC: 0.381775 (Simulation time: 1 hr 32 min 19 sec) 
Heartbeat CPU 0 instructions: 149000002 cycles: 281143142 heartbeat IPC: 0.328129 cumulative IPC: 0.381146 (Simulation time: 1 hr 32 min 38 sec) 
Heartbeat CPU 0 instructions: 150000000 cycles: 282558620 heartbeat IPC: 0.706474 cumulative IPC: 0.382909 (Simulation time: 1 hr 32 min 54 sec) 
Finished CPU 0 instructions: 100000001 cycles: 261158647 cummulative IPC: 0.382909 (Simulation time: 1 hr 32 min 54 sec) 

ChampSim completed all CPUs

Region of Interest Statistics

CPU 0 cummulative IPC: 0.382909 instructions: 100000001 cycles: 261158647
LLC TOTAL     ACCESS:    8584717  HIT:    4807165  MISS:    3777552
LLC LOAD      ACCESS:    2179678  HIT:    1075895  MISS:    1103783
LLC RFO       ACCESS:     808518  HIT:     244620  MISS:     563898
LLC PREFETCH  ACCESS:    3497609  HIT:    1646117  MISS:    1851492
LLC WRITEBACK ACCESS:    2098912  HIT:    1840533  MISS:     258379
OPTgen accesses: 65807
OPTgen hits: 45903
OPTgen hit rate: 69.754


