
*** ChampSim Multicore Out-of-Order Simulator ***

Warmup Instructions: 50000000
Simulation Instructions: 100000000
Configuration: 2
Number of CPUs: 1
LLC sets: 2048
LLC ways: 16
Off-chip DRAM Channels: 1 Width: 64-bit Data Rate: 1600 MT/s

CPU 0 runs /datasets/cs240c-wi22-a00-public/data/Assignment2-gz/astar_313B.trace.gz
CPU 0 L1D next line prefetcher
CPU 0 L2C IP-based stride prefetcher
Initialize Hawkeye state
Heartbeat CPU 0 instructions: 1000001 cycles: 675680 heartbeat IPC: 1.47999 cumulative IPC: 1.47999 (Simulation time: 0 hr 0 min 51 sec) 
Heartbeat CPU 0 instructions: 2000003 cycles: 1263000 heartbeat IPC: 1.70265 cumulative IPC: 1.58353 (Simulation time: 0 hr 1 min 44 sec) 
Heartbeat CPU 0 instructions: 3000003 cycles: 1937559 heartbeat IPC: 1.48245 cumulative IPC: 1.54834 (Simulation time: 0 hr 2 min 36 sec) 
Heartbeat CPU 0 instructions: 4000000 cycles: 2611212 heartbeat IPC: 1.48444 cumulative IPC: 1.53186 (Simulation time: 0 hr 3 min 24 sec) 
Heartbeat CPU 0 instructions: 5000002 cycles: 3284439 heartbeat IPC: 1.48539 cumulative IPC: 1.52233 (Simulation time: 0 hr 4 min 17 sec) 
Heartbeat CPU 0 instructions: 6000001 cycles: 3871174 heartbeat IPC: 1.70435 cumulative IPC: 1.54992 (Simulation time: 0 hr 5 min 5 sec) 
Heartbeat CPU 0 instructions: 7000001 cycles: 4439729 heartbeat IPC: 1.75884 cumulative IPC: 1.57667 (Simulation time: 0 hr 5 min 51 sec) 
Heartbeat CPU 0 instructions: 8000000 cycles: 4991197 heartbeat IPC: 1.81334 cumulative IPC: 1.60282 (Simulation time: 0 hr 6 min 38 sec) 
Heartbeat CPU 0 instructions: 9000001 cycles: 5552618 heartbeat IPC: 1.7812 cumulative IPC: 1.62086 (Simulation time: 0 hr 7 min 26 sec) 
Heartbeat CPU 0 instructions: 10000002 cycles: 6227158 heartbeat IPC: 1.48249 cumulative IPC: 1.60587 (Simulation time: 0 hr 8 min 15 sec) 
Heartbeat CPU 0 instructions: 11000000 cycles: 6902630 heartbeat IPC: 1.48044 cumulative IPC: 1.5936 (Simulation time: 0 hr 9 min 4 sec) 
Heartbeat CPU 0 instructions: 12000000 cycles: 7572139 heartbeat IPC: 1.49363 cumulative IPC: 1.58476 (Simulation time: 0 hr 9 min 56 sec) 
Heartbeat CPU 0 instructions: 13000003 cycles: 8164865 heartbeat IPC: 1.68713 cumulative IPC: 1.59219 (Simulation time: 0 hr 10 min 50 sec) 
Heartbeat CPU 0 instructions: 14000002 cycles: 8837381 heartbeat IPC: 1.48695 cumulative IPC: 1.58418 (Simulation time: 0 hr 11 min 44 sec) 
Heartbeat CPU 0 instructions: 15000000 cycles: 9511676 heartbeat IPC: 1.48303 cumulative IPC: 1.57701 (Simulation time: 0 hr 12 min 35 sec) 
Heartbeat CPU 0 instructions: 16000000 cycles: 10185089 heartbeat IPC: 1.48497 cumulative IPC: 1.57092 (Simulation time: 0 hr 13 min 24 sec) 
Heartbeat CPU 0 instructions: 17000001 cycles: 10858497 heartbeat IPC: 1.48499 cumulative IPC: 1.56559 (Simulation time: 0 hr 14 min 17 sec) 
Heartbeat CPU 0 instructions: 18000000 cycles: 11443941 heartbeat IPC: 1.7081 cumulative IPC: 1.57288 (Simulation time: 0 hr 15 min 8 sec) 
Heartbeat CPU 0 instructions: 19000000 cycles: 12118269 heartbeat IPC: 1.48296 cumulative IPC: 1.56788 (Simulation time: 0 hr 16 min 0 sec) 
Heartbeat CPU 0 instructions: 20000000 cycles: 12792969 heartbeat IPC: 1.48214 cumulative IPC: 1.56336 (Simulation time: 0 hr 16 min 48 sec) 
Heartbeat CPU 0 instructions: 21000001 cycles: 13420025 heartbeat IPC: 1.59476 cumulative IPC: 1.56483 (Simulation time: 0 hr 17 min 33 sec) 
Heartbeat CPU 0 instructions: 22000001 cycles: 14055568 heartbeat IPC: 1.57346 cumulative IPC: 1.56522 (Simulation time: 0 hr 18 min 21 sec) 
Heartbeat CPU 0 instructions: 23000001 cycles: 14729172 heartbeat IPC: 1.48455 cumulative IPC: 1.56153 (Simulation time: 0 hr 19 min 9 sec) 
Heartbeat CPU 0 instructions: 24000000 cycles: 15385149 heartbeat IPC: 1.52444 cumulative IPC: 1.55995 (Simulation time: 0 hr 19 min 57 sec) 
Heartbeat CPU 0 instructions: 25000001 cycles: 15989777 heartbeat IPC: 1.65391 cumulative IPC: 1.5635 (Simulation time: 0 hr 20 min 44 sec) 
Heartbeat CPU 0 instructions: 26000002 cycles: 16664985 heartbeat IPC: 1.48103 cumulative IPC: 1.56016 (Simulation time: 0 hr 21 min 34 sec) 
Heartbeat CPU 0 instructions: 27000002 cycles: 17255476 heartbeat IPC: 1.69351 cumulative IPC: 1.56472 (Simulation time: 0 hr 22 min 20 sec) 
Heartbeat CPU 0 instructions: 28000000 cycles: 17929817 heartbeat IPC: 1.48293 cumulative IPC: 1.56164 (Simulation time: 0 hr 23 min 7 sec) 
Heartbeat CPU 0 instructions: 29000001 cycles: 18518335 heartbeat IPC: 1.69919 cumulative IPC: 1.56602 (Simulation time: 0 hr 23 min 55 sec) 
Heartbeat CPU 0 instructions: 30000002 cycles: 19192381 heartbeat IPC: 1.48358 cumulative IPC: 1.56312 (Simulation time: 0 hr 24 min 44 sec) 
Heartbeat CPU 0 instructions: 31000002 cycles: 19867037 heartbeat IPC: 1.48224 cumulative IPC: 1.56037 (Simulation time: 0 hr 25 min 39 sec) 
Heartbeat CPU 0 instructions: 32000000 cycles: 20541356 heartbeat IPC: 1.48297 cumulative IPC: 1.55783 (Simulation time: 0 hr 26 min 27 sec) 
Heartbeat CPU 0 instructions: 33000003 cycles: 21216295 heartbeat IPC: 1.48162 cumulative IPC: 1.55541 (Simulation time: 0 hr 27 min 14 sec) 
Heartbeat CPU 0 instructions: 34000000 cycles: 21802089 heartbeat IPC: 1.70708 cumulative IPC: 1.55948 (Simulation time: 0 hr 27 min 58 sec) 
Heartbeat CPU 0 instructions: 35000000 cycles: 22475809 heartbeat IPC: 1.4843 cumulative IPC: 1.55723 (Simulation time: 0 hr 28 min 45 sec) 
Heartbeat CPU 0 instructions: 36000000 cycles: 23149668 heartbeat IPC: 1.48399 cumulative IPC: 1.5551 (Simulation time: 0 hr 29 min 36 sec) 
Heartbeat CPU 0 instructions: 37000002 cycles: 23737362 heartbeat IPC: 1.70157 cumulative IPC: 1.55872 (Simulation time: 0 hr 30 min 23 sec) 
Heartbeat CPU 0 instructions: 38000000 cycles: 24410021 heartbeat IPC: 1.48663 cumulative IPC: 1.55674 (Simulation time: 0 hr 31 min 12 sec) 
Heartbeat CPU 0 instructions: 39000003 cycles: 24998610 heartbeat IPC: 1.69898 cumulative IPC: 1.56009 (Simulation time: 0 hr 31 min 58 sec) 
Heartbeat CPU 0 instructions: 40000000 cycles: 25587303 heartbeat IPC: 1.69867 cumulative IPC: 1.56328 (Simulation time: 0 hr 32 min 42 sec) 
Heartbeat CPU 0 instructions: 41000001 cycles: 26262003 heartbeat IPC: 1.48214 cumulative IPC: 1.56119 (Simulation time: 0 hr 33 min 27 sec) 
Heartbeat CPU 0 instructions: 42000003 cycles: 26939450 heartbeat IPC: 1.47613 cumulative IPC: 1.55905 (Simulation time: 0 hr 34 min 13 sec) 
Heartbeat CPU 0 instructions: 43000003 cycles: 27532332 heartbeat IPC: 1.68668 cumulative IPC: 1.5618 (Simulation time: 0 hr 34 min 58 sec) 
Heartbeat CPU 0 instructions: 44000000 cycles: 28200536 heartbeat IPC: 1.49654 cumulative IPC: 1.56025 (Simulation time: 0 hr 35 min 44 sec) 
Heartbeat CPU 0 instructions: 45000002 cycles: 28872998 heartbeat IPC: 1.48708 cumulative IPC: 1.55855 (Simulation time: 0 hr 36 min 31 sec) 
Heartbeat CPU 0 instructions: 46000002 cycles: 29546154 heartbeat IPC: 1.48554 cumulative IPC: 1.55689 (Simulation time: 0 hr 37 min 15 sec) 
Heartbeat CPU 0 instructions: 47000002 cycles: 30217560 heartbeat IPC: 1.48941 cumulative IPC: 1.55539 (Simulation time: 0 hr 38 min 1 sec) 
Heartbeat CPU 0 instructions: 48000000 cycles: 30806312 heartbeat IPC: 1.6985 cumulative IPC: 1.55812 (Simulation time: 0 hr 38 min 47 sec) 
Heartbeat CPU 0 instructions: 49000000 cycles: 31478083 heartbeat IPC: 1.4886 cumulative IPC: 1.55664 (Simulation time: 0 hr 39 min 32 sec) 
Heartbeat CPU 0 instructions: 50000000 cycles: 32150497 heartbeat IPC: 1.48718 cumulative IPC: 1.55519 (Simulation time: 0 hr 40 min 17 sec) 

Warmup complete CPU 0 instructions: 50000001 cycles: 32150498 (Simulation time: 0 hr 40 min 17 sec) 

Heartbeat CPU 0 instructions: 51000000 cycles: 39077764 heartbeat IPC: 0.144357 cumulative IPC: 0.144357 (Simulation time: 0 hr 41 min 6 sec) 
Heartbeat CPU 0 instructions: 52000000 cycles: 47412796 heartbeat IPC: 0.119976 cumulative IPC: 0.131042 (Simulation time: 0 hr 42 min 4 sec) 
Heartbeat CPU 0 instructions: 53000000 cycles: 54116597 heartbeat IPC: 0.149169 cumulative IPC: 0.136574 (Simulation time: 0 hr 42 min 55 sec) 
Heartbeat CPU 0 instructions: 54000000 cycles: 61879422 heartbeat IPC: 0.128819 cumulative IPC: 0.134549 (Simulation time: 0 hr 43 min 46 sec) 
Heartbeat CPU 0 instructions: 55000001 cycles: 70136325 heartbeat IPC: 0.121111 cumulative IPC: 0.131628 (Simulation time: 0 hr 44 min 39 sec) 
Heartbeat CPU 0 instructions: 56000000 cycles: 79931573 heartbeat IPC: 0.10209 cumulative IPC: 0.125573 (Simulation time: 0 hr 45 min 34 sec) 
Heartbeat CPU 0 instructions: 57000000 cycles: 85929460 heartbeat IPC: 0.166725 cumulative IPC: 0.130162 (Simulation time: 0 hr 46 min 21 sec) 
Heartbeat CPU 0 instructions: 58000001 cycles: 92102567 heartbeat IPC: 0.161993 cumulative IPC: 0.13344 (Simulation time: 0 hr 47 min 9 sec) 
Heartbeat CPU 0 instructions: 59000002 cycles: 100375548 heartbeat IPC: 0.120876 cumulative IPC: 0.131916 (Simulation time: 0 hr 48 min 0 sec) 
Heartbeat CPU 0 instructions: 60000000 cycles: 107957548 heartbeat IPC: 0.131891 cumulative IPC: 0.131914 (Simulation time: 0 hr 48 min 54 sec) 
Heartbeat CPU 0 instructions: 61000001 cycles: 114513645 heartbeat IPC: 0.15253 cumulative IPC: 0.133555 (Simulation time: 0 hr 49 min 42 sec) 
Heartbeat CPU 0 instructions: 62000001 cycles: 121419973 heartbeat IPC: 0.144795 cumulative IPC: 0.134424 (Simulation time: 0 hr 50 min 30 sec) 
Heartbeat CPU 0 instructions: 63000000 cycles: 128491932 heartbeat IPC: 0.141403 cumulative IPC: 0.134937 (Simulation time: 0 hr 51 min 19 sec) 
Heartbeat CPU 0 instructions: 64000000 cycles: 137603208 heartbeat IPC: 0.109754 cumulative IPC: 0.132761 (Simulation time: 0 hr 52 min 14 sec) 
Heartbeat CPU 0 instructions: 65000000 cycles: 143985470 heartbeat IPC: 0.156684 cumulative IPC: 0.134126 (Simulation time: 0 hr 53 min 4 sec) 
Heartbeat CPU 0 instructions: 66000001 cycles: 150506313 heartbeat IPC: 0.153355 cumulative IPC: 0.135186 (Simulation time: 0 hr 53 min 54 sec) 
Heartbeat CPU 0 instructions: 67000000 cycles: 157596860 heartbeat IPC: 0.141033 cumulative IPC: 0.135516 (Simulation time: 0 hr 54 min 41 sec) 
Heartbeat CPU 0 instructions: 68000000 cycles: 165053207 heartbeat IPC: 0.134114 cumulative IPC: 0.135437 (Simulation time: 0 hr 55 min 30 sec) 
Heartbeat CPU 0 instructions: 69000000 cycles: 176895911 heartbeat IPC: 0.0844402 cumulative IPC: 0.131265 (Simulation time: 0 hr 56 min 34 sec) 
Heartbeat CPU 0 instructions: 70000000 cycles: 183717011 heartbeat IPC: 0.146604 cumulative IPC: 0.131955 (Simulation time: 0 hr 57 min 22 sec) 
Heartbeat CPU 0 instructions: 71000002 cycles: 190403344 heartbeat IPC: 0.149559 cumulative IPC: 0.132699 (Simulation time: 0 hr 58 min 11 sec) 
Heartbeat CPU 0 instructions: 72000000 cycles: 197336185 heartbeat IPC: 0.144241 cumulative IPC: 0.133183 (Simulation time: 0 hr 58 min 58 sec) 
Heartbeat CPU 0 instructions: 73000003 cycles: 204543398 heartbeat IPC: 0.13875 cumulative IPC: 0.133416 (Simulation time: 0 hr 59 min 43 sec) 
Heartbeat CPU 0 instructions: 74000000 cycles: 213550205 heartbeat IPC: 0.111027 cumulative IPC: 0.132305 (Simulation time: 1 hr 0 min 34 sec) 
Heartbeat CPU 0 instructions: 75000000 cycles: 220632107 heartbeat IPC: 0.141205 cumulative IPC: 0.132639 (Simulation time: 1 hr 1 min 26 sec) 
Heartbeat CPU 0 instructions: 76000000 cycles: 226727492 heartbeat IPC: 0.164059 cumulative IPC: 0.133623 (Simulation time: 1 hr 2 min 15 sec) 
Heartbeat CPU 0 instructions: 77000000 cycles: 232832660 heartbeat IPC: 0.163796 cumulative IPC: 0.134541 (Simulation time: 1 hr 3 min 4 sec) 
Heartbeat CPU 0 instructions: 78000001 cycles: 238876523 heartbeat IPC: 0.165457 cumulative IPC: 0.135445 (Simulation time: 1 hr 3 min 54 sec) 
Heartbeat CPU 0 instructions: 79000000 cycles: 247670715 heartbeat IPC: 0.113711 cumulative IPC: 0.134558 (Simulation time: 1 hr 4 min 51 sec) 
Heartbeat CPU 0 instructions: 80000000 cycles: 253384117 heartbeat IPC: 0.175027 cumulative IPC: 0.135603 (Simulation time: 1 hr 5 min 39 sec) 
Heartbeat CPU 0 instructions: 81000001 cycles: 260695336 heartbeat IPC: 0.136776 cumulative IPC: 0.135641 (Simulation time: 1 hr 6 min 28 sec) 
Heartbeat CPU 0 instructions: 82000001 cycles: 268555708 heartbeat IPC: 0.12722 cumulative IPC: 0.135361 (Simulation time: 1 hr 7 min 24 sec) 
Heartbeat CPU 0 instructions: 83000002 cycles: 275081333 heartbeat IPC: 0.153242 cumulative IPC: 0.135841 (Simulation time: 1 hr 8 min 13 sec) 
Heartbeat CPU 0 instructions: 84000000 cycles: 281817638 heartbeat IPC: 0.148449 cumulative IPC: 0.136181 (Simulation time: 1 hr 9 min 1 sec) 
Heartbeat CPU 0 instructions: 85000000 cycles: 288730180 heartbeat IPC: 0.144665 cumulative IPC: 0.13641 (Simulation time: 1 hr 9 min 46 sec) 
Heartbeat CPU 0 instructions: 86000001 cycles: 297170328 heartbeat IPC: 0.118481 cumulative IPC: 0.135839 (Simulation time: 1 hr 10 min 45 sec) 
Heartbeat CPU 0 instructions: 87000000 cycles: 302782630 heartbeat IPC: 0.17818 cumulative IPC: 0.136717 (Simulation time: 1 hr 11 min 29 sec) 
Heartbeat CPU 0 instructions: 88000000 cycles: 308620929 heartbeat IPC: 0.171283 cumulative IPC: 0.137447 (Simulation time: 1 hr 12 min 13 sec) 
Heartbeat CPU 0 instructions: 89000002 cycles: 314952117 heartbeat IPC: 0.157949 cumulative IPC: 0.137906 (Simulation time: 1 hr 13 min 0 sec) 
Heartbeat CPU 0 instructions: 90000002 cycles: 321462176 heartbeat IPC: 0.153608 cumulative IPC: 0.138259 (Simulation time: 1 hr 13 min 43 sec) 
Heartbeat CPU 0 instructions: 91000001 cycles: 330580423 heartbeat IPC: 0.10967 cumulative IPC: 0.137386 (Simulation time: 1 hr 14 min 28 sec) 
Heartbeat CPU 0 instructions: 92000000 cycles: 337551369 heartbeat IPC: 0.143452 cumulative IPC: 0.137524 (Simulation time: 1 hr 15 min 9 sec) 
Heartbeat CPU 0 instructions: 93000003 cycles: 344734214 heartbeat IPC: 0.139221 cumulative IPC: 0.137563 (Simulation time: 1 hr 15 min 49 sec) 
Heartbeat CPU 0 instructions: 94000000 cycles: 352263024 heartbeat IPC: 0.132823 cumulative IPC: 0.137452 (Simulation time: 1 hr 16 min 29 sec) 
Heartbeat CPU 0 instructions: 95000000 cycles: 358941067 heartbeat IPC: 0.149744 cumulative IPC: 0.137703 (Simulation time: 1 hr 17 min 9 sec) 
Heartbeat CPU 0 instructions: 96000000 cycles: 368126911 heartbeat IPC: 0.108863 cumulative IPC: 0.136914 (Simulation time: 1 hr 17 min 59 sec) 
Heartbeat CPU 0 instructions: 97000000 cycles: 374984319 heartbeat IPC: 0.145828 cumulative IPC: 0.137093 (Simulation time: 1 hr 18 min 41 sec) 
Heartbeat CPU 0 instructions: 98000003 cycles: 382747391 heartbeat IPC: 0.128815 cumulative IPC: 0.136909 (Simulation time: 1 hr 19 min 19 sec) 
Heartbeat CPU 0 instructions: 99000001 cycles: 390695116 heartbeat IPC: 0.125822 cumulative IPC: 0.136664 (Simulation time: 1 hr 19 min 56 sec) 
Heartbeat CPU 0 instructions: 100000000 cycles: 398054585 heartbeat IPC: 0.135879 cumulative IPC: 0.136648 (Simulation time: 1 hr 20 min 34 sec) 
Heartbeat CPU 0 instructions: 101000000 cycles: 407197640 heartbeat IPC: 0.109373 cumulative IPC: 0.135983 (Simulation time: 1 hr 21 min 19 sec) 
Heartbeat CPU 0 instructions: 102000001 cycles: 413437537 heartbeat IPC: 0.160259 cumulative IPC: 0.13638 (Simulation time: 1 hr 21 min 55 sec) 
Heartbeat CPU 0 instructions: 103000000 cycles: 419805342 heartbeat IPC: 0.15704 cumulative IPC: 0.13672 (Simulation time: 1 hr 22 min 32 sec) 
Heartbeat CPU 0 instructions: 104000000 cycles: 426328181 heartbeat IPC: 0.153307 cumulative IPC: 0.136994 (Simulation time: 1 hr 23 min 7 sec) 
Heartbeat CPU 0 instructions: 105000000 cycles: 432541542 heartbeat IPC: 0.160943 cumulative IPC: 0.137366 (Simulation time: 1 hr 23 min 41 sec) 
Heartbeat CPU 0 instructions: 106000000 cycles: 441686032 heartbeat IPC: 0.109355 cumulative IPC: 0.13674 (Simulation time: 1 hr 24 min 19 sec) 
Heartbeat CPU 0 instructions: 107000002 cycles: 448504598 heartbeat IPC: 0.146659 cumulative IPC: 0.136903 (Simulation time: 1 hr 24 min 49 sec) 
Heartbeat CPU 0 instructions: 108000000 cycles: 457742764 heartbeat IPC: 0.108246 cumulative IPC: 0.136281 (Simulation time: 1 hr 25 min 20 sec) 
Heartbeat CPU 0 instructions: 109000003 cycles: 464166880 heartbeat IPC: 0.155664 cumulative IPC: 0.136569 (Simulation time: 1 hr 25 min 50 sec) 
Heartbeat CPU 0 instructions: 110000003 cycles: 470141813 heartbeat IPC: 0.167366 cumulative IPC: 0.136989 (Simulation time: 1 hr 26 min 19 sec) 
Heartbeat CPU 0 instructions: 111000001 cycles: 476274145 heartbeat IPC: 0.16307 cumulative IPC: 0.137349 (Simulation time: 1 hr 26 min 46 sec) 
Heartbeat CPU 0 instructions: 112000000 cycles: 484598270 heartbeat IPC: 0.120133 cumulative IPC: 0.137032 (Simulation time: 1 hr 27 min 15 sec) 
Heartbeat CPU 0 instructions: 113000000 cycles: 491859126 heartbeat IPC: 0.137725 cumulative IPC: 0.137043 (Simulation time: 1 hr 27 min 46 sec) 
Heartbeat CPU 0 instructions: 114000003 cycles: 499731884 heartbeat IPC: 0.127021 cumulative IPC: 0.136875 (Simulation time: 1 hr 28 min 13 sec) 
Heartbeat CPU 0 instructions: 115000001 cycles: 508048067 heartbeat IPC: 0.120247 cumulative IPC: 0.136584 (Simulation time: 1 hr 28 min 40 sec) 
Heartbeat CPU 0 instructions: 116000000 cycles: 514808707 heartbeat IPC: 0.147915 cumulative IPC: 0.136743 (Simulation time: 1 hr 29 min 5 sec) 
Heartbeat CPU 0 instructions: 117000001 cycles: 521544412 heartbeat IPC: 0.148463 cumulative IPC: 0.136904 (Simulation time: 1 hr 29 min 29 sec) 
Heartbeat CPU 0 instructions: 118000003 cycles: 530363668 heartbeat IPC: 0.113388 cumulative IPC: 0.136488 (Simulation time: 1 hr 29 min 58 sec) 
Heartbeat CPU 0 instructions: 119000000 cycles: 536445681 heartbeat IPC: 0.164419 cumulative IPC: 0.136825 (Simulation time: 1 hr 30 min 19 sec) 
Heartbeat CPU 0 instructions: 120000000 cycles: 543078009 heartbeat IPC: 0.150777 cumulative IPC: 0.137006 (Simulation time: 1 hr 30 min 42 sec) 
Heartbeat CPU 0 instructions: 121000001 cycles: 549873501 heartbeat IPC: 0.147157 cumulative IPC: 0.137139 (Simulation time: 1 hr 31 min 5 sec) 
Heartbeat CPU 0 instructions: 122000001 cycles: 556492619 heartbeat IPC: 0.151078 cumulative IPC: 0.137315 (Simulation time: 1 hr 31 min 29 sec) 
Heartbeat CPU 0 instructions: 123000001 cycles: 565613152 heartbeat IPC: 0.109643 cumulative IPC: 0.136842 (Simulation time: 1 hr 31 min 54 sec) 
Heartbeat CPU 0 instructions: 124000000 cycles: 572229064 heartbeat IPC: 0.151151 cumulative IPC: 0.137017 (Simulation time: 1 hr 32 min 14 sec) 
Heartbeat CPU 0 instructions: 125000000 cycles: 579184832 heartbeat IPC: 0.143766 cumulative IPC: 0.137103 (Simulation time: 1 hr 32 min 34 sec) 
Heartbeat CPU 0 instructions: 126000003 cycles: 586479527 heartbeat IPC: 0.137086 cumulative IPC: 0.137103 (Simulation time: 1 hr 32 min 54 sec) 
Heartbeat CPU 0 instructions: 127000003 cycles: 595953061 heartbeat IPC: 0.105557 cumulative IPC: 0.136573 (Simulation time: 1 hr 33 min 15 sec) 
Heartbeat CPU 0 instructions: 128000000 cycles: 602407363 heartbeat IPC: 0.154935 cumulative IPC: 0.13678 (Simulation time: 1 hr 33 min 34 sec) 
Heartbeat CPU 0 instructions: 129000001 cycles: 611742222 heartbeat IPC: 0.107125 cumulative IPC: 0.136303 (Simulation time: 1 hr 33 min 52 sec) 
Heartbeat CPU 0 instructions: 130000002 cycles: 618393649 heartbeat IPC: 0.150344 cumulative IPC: 0.136462 (Simulation time: 1 hr 34 min 6 sec) 
Heartbeat CPU 0 instructions: 131000003 cycles: 625134397 heartbeat IPC: 0.148352 cumulative IPC: 0.136597 (Simulation time: 1 hr 34 min 20 sec) 
Heartbeat CPU 0 instructions: 132000000 cycles: 636386851 heartbeat IPC: 0.0888692 cumulative IPC: 0.135708 (Simulation time: 1 hr 34 min 38 sec) 
Heartbeat CPU 0 instructions: 133000000 cycles: 645531283 heartbeat IPC: 0.109356 cumulative IPC: 0.135316 (Simulation time: 1 hr 34 min 53 sec) 
Heartbeat CPU 0 instructions: 134000000 cycles: 652001388 heartbeat IPC: 0.154557 cumulative IPC: 0.135516 (Simulation time: 1 hr 35 min 4 sec) 
Heartbeat CPU 0 instructions: 135000002 cycles: 659645835 heartbeat IPC: 0.130814 cumulative IPC: 0.135459 (Simulation time: 1 hr 35 min 15 sec) 
Heartbeat CPU 0 instructions: 136000000 cycles: 668927782 heartbeat IPC: 0.107736 cumulative IPC: 0.135055 (Simulation time: 1 hr 35 min 28 sec) 
Heartbeat CPU 0 instructions: 137000001 cycles: 677074020 heartbeat IPC: 0.122756 cumulative IPC: 0.1349 (Simulation time: 1 hr 35 min 40 sec) 
Heartbeat CPU 0 instructions: 138000002 cycles: 683800247 heartbeat IPC: 0.148672 cumulative IPC: 0.135042 (Simulation time: 1 hr 35 min 51 sec) 
Heartbeat CPU 0 instructions: 139000001 cycles: 690571938 heartbeat IPC: 0.147673 cumulative IPC: 0.135172 (Simulation time: 1 hr 36 min 1 sec) 
Heartbeat CPU 0 instructions: 140000000 cycles: 699851474 heartbeat IPC: 0.107764 cumulative IPC: 0.134791 (Simulation time: 1 hr 36 min 13 sec) 
Heartbeat CPU 0 instructions: 141000001 cycles: 706455715 heartbeat IPC: 0.151418 cumulative IPC: 0.134954 (Simulation time: 1 hr 36 min 21 sec) 
Heartbeat CPU 0 instructions: 142000000 cycles: 712890164 heartbeat IPC: 0.155413 cumulative IPC: 0.135147 (Simulation time: 1 hr 36 min 29 sec) 
Heartbeat CPU 0 instructions: 143000001 cycles: 719424173 heartbeat IPC: 0.153046 cumulative IPC: 0.135317 (Simulation time: 1 hr 36 min 37 sec) 
Heartbeat CPU 0 instructions: 144000000 cycles: 728777111 heartbeat IPC: 0.106918 cumulative IPC: 0.134936 (Simulation time: 1 hr 36 min 46 sec) 
Heartbeat CPU 0 instructions: 145000000 cycles: 735572803 heartbeat IPC: 0.147152 cumulative IPC: 0.135054 (Simulation time: 1 hr 36 min 53 sec) 
Heartbeat CPU 0 instructions: 146000000 cycles: 742393720 heartbeat IPC: 0.146608 cumulative IPC: 0.135165 (Simulation time: 1 hr 37 min 0 sec) 
Heartbeat CPU 0 instructions: 147000000 cycles: 751683447 heartbeat IPC: 0.107646 cumulative IPC: 0.13481 (Simulation time: 1 hr 37 min 8 sec) 
Heartbeat CPU 0 instructions: 148000000 cycles: 758022307 heartbeat IPC: 0.157757 cumulative IPC: 0.13501 (Simulation time: 1 hr 37 min 15 sec) 
Heartbeat CPU 0 instructions: 149000000 cycles: 766861142 heartbeat IPC: 0.113137 cumulative IPC: 0.134747 (Simulation time: 1 hr 37 min 21 sec) 
Heartbeat CPU 0 instructions: 150000001 cycles: 773189347 heartbeat IPC: 0.158023 cumulative IPC: 0.134946 (Simulation time: 1 hr 37 min 27 sec) 
Finished CPU 0 instructions: 100000000 cycles: 741038849 cummulative IPC: 0.134946 (Simulation time: 1 hr 37 min 27 sec) 

ChampSim completed all CPUs

Region of Interest Statistics

CPU 0 cummulative IPC: 0.134946 instructions: 100000000 cycles: 741038849
LLC TOTAL     ACCESS:    9036756  HIT:    2242878  MISS:    6793878
LLC LOAD      ACCESS:    1899513  HIT:     460130  MISS:    1439383
LLC RFO       ACCESS:    1963569  HIT:     410572  MISS:    1552997
LLC PREFETCH  ACCESS:    2282548  HIT:     347124  MISS:    1935424
LLC WRITEBACK ACCESS:    2891126  HIT:    1025052  MISS:    1866074
OPTgen accesses: 93768
OPTgen hits: 45374
OPTgen hit rate: 48.3896


