
*** ChampSim Multicore Out-of-Order Simulator ***

Warmup Instructions: 50000000
Simulation Instructions: 100000000
Configuration: 2
Number of CPUs: 1
LLC sets: 2048
LLC ways: 16
Off-chip DRAM Channels: 1 Width: 64-bit Data Rate: 1600 MT/s

CPU 0 runs /datasets/cs240c-wi22-a00-public/data/Assignment2-gz/leslie3d_94B.trace.gz
CPU 0 L1D next line prefetcher
CPU 0 L2C IP-based stride prefetcher
Initialize Hawkeye state
Heartbeat CPU 0 instructions: 1000003 cycles: 597056 heartbeat IPC: 1.67489 cumulative IPC: 1.67489 (Simulation time: 0 hr 0 min 47 sec) 
Heartbeat CPU 0 instructions: 2000002 cycles: 1215904 heartbeat IPC: 1.6159 cumulative IPC: 1.64487 (Simulation time: 0 hr 1 min 28 sec) 
Heartbeat CPU 0 instructions: 3000003 cycles: 1867668 heartbeat IPC: 1.5343 cumulative IPC: 1.60628 (Simulation time: 0 hr 2 min 12 sec) 
Heartbeat CPU 0 instructions: 4000000 cycles: 2518894 heartbeat IPC: 1.53556 cumulative IPC: 1.588 (Simulation time: 0 hr 2 min 55 sec) 
Heartbeat CPU 0 instructions: 5000002 cycles: 3083865 heartbeat IPC: 1.77001 cumulative IPC: 1.62134 (Simulation time: 0 hr 3 min 35 sec) 
Heartbeat CPU 0 instructions: 6000002 cycles: 3734525 heartbeat IPC: 1.5369 cumulative IPC: 1.60663 (Simulation time: 0 hr 4 min 19 sec) 
Heartbeat CPU 0 instructions: 7000000 cycles: 4385255 heartbeat IPC: 1.53673 cumulative IPC: 1.59626 (Simulation time: 0 hr 5 min 2 sec) 
Heartbeat CPU 0 instructions: 8000000 cycles: 4950260 heartbeat IPC: 1.7699 cumulative IPC: 1.61608 (Simulation time: 0 hr 5 min 40 sec) 
Heartbeat CPU 0 instructions: 9000000 cycles: 5601133 heartbeat IPC: 1.5364 cumulative IPC: 1.60682 (Simulation time: 0 hr 6 min 21 sec) 
Heartbeat CPU 0 instructions: 10000001 cycles: 6252369 heartbeat IPC: 1.53554 cumulative IPC: 1.59939 (Simulation time: 0 hr 7 min 3 sec) 
Heartbeat CPU 0 instructions: 11000000 cycles: 6878481 heartbeat IPC: 1.59716 cumulative IPC: 1.59919 (Simulation time: 0 hr 7 min 45 sec) 
Heartbeat CPU 0 instructions: 12000000 cycles: 7380906 heartbeat IPC: 1.99035 cumulative IPC: 1.62582 (Simulation time: 0 hr 8 min 23 sec) 
Heartbeat CPU 0 instructions: 13000000 cycles: 7881205 heartbeat IPC: 1.9988 cumulative IPC: 1.64949 (Simulation time: 0 hr 9 min 3 sec) 
Heartbeat CPU 0 instructions: 14000001 cycles: 8381646 heartbeat IPC: 1.99824 cumulative IPC: 1.67032 (Simulation time: 0 hr 9 min 43 sec) 
Heartbeat CPU 0 instructions: 15000001 cycles: 8881977 heartbeat IPC: 1.99868 cumulative IPC: 1.68881 (Simulation time: 0 hr 10 min 20 sec) 
Heartbeat CPU 0 instructions: 16000000 cycles: 9382271 heartbeat IPC: 1.99882 cumulative IPC: 1.70534 (Simulation time: 0 hr 11 min 1 sec) 
Heartbeat CPU 0 instructions: 17000001 cycles: 9882713 heartbeat IPC: 1.99824 cumulative IPC: 1.72018 (Simulation time: 0 hr 11 min 40 sec) 
Heartbeat CPU 0 instructions: 18000002 cycles: 10382834 heartbeat IPC: 1.99952 cumulative IPC: 1.73363 (Simulation time: 0 hr 12 min 18 sec) 
Heartbeat CPU 0 instructions: 19000000 cycles: 10883298 heartbeat IPC: 1.99814 cumulative IPC: 1.74579 (Simulation time: 0 hr 12 min 58 sec) 
Heartbeat CPU 0 instructions: 20000000 cycles: 11383236 heartbeat IPC: 2.00025 cumulative IPC: 1.75697 (Simulation time: 0 hr 13 min 37 sec) 
Heartbeat CPU 0 instructions: 21000002 cycles: 11883768 heartbeat IPC: 1.99788 cumulative IPC: 1.76712 (Simulation time: 0 hr 14 min 19 sec) 
Heartbeat CPU 0 instructions: 22000000 cycles: 12371550 heartbeat IPC: 2.05009 cumulative IPC: 1.77827 (Simulation time: 0 hr 14 min 57 sec) 
Heartbeat CPU 0 instructions: 23000000 cycles: 12858505 heartbeat IPC: 2.05358 cumulative IPC: 1.7887 (Simulation time: 0 hr 15 min 37 sec) 
Heartbeat CPU 0 instructions: 24000000 cycles: 13344855 heartbeat IPC: 2.05613 cumulative IPC: 1.79845 (Simulation time: 0 hr 16 min 13 sec) 
Heartbeat CPU 0 instructions: 25000000 cycles: 13852142 heartbeat IPC: 1.97127 cumulative IPC: 1.80477 (Simulation time: 0 hr 16 min 51 sec) 
Heartbeat CPU 0 instructions: 26000000 cycles: 14433287 heartbeat IPC: 1.72074 cumulative IPC: 1.80139 (Simulation time: 0 hr 17 min 35 sec) 
Heartbeat CPU 0 instructions: 27000000 cycles: 15014738 heartbeat IPC: 1.71984 cumulative IPC: 1.79823 (Simulation time: 0 hr 18 min 20 sec) 
Heartbeat CPU 0 instructions: 28000000 cycles: 15596137 heartbeat IPC: 1.71999 cumulative IPC: 1.79532 (Simulation time: 0 hr 19 min 2 sec) 
Heartbeat CPU 0 instructions: 29000000 cycles: 16177430 heartbeat IPC: 1.7203 cumulative IPC: 1.79262 (Simulation time: 0 hr 19 min 48 sec) 
Heartbeat CPU 0 instructions: 30000002 cycles: 16807762 heartbeat IPC: 1.58647 cumulative IPC: 1.78489 (Simulation time: 0 hr 20 min 31 sec) 
Heartbeat CPU 0 instructions: 31000000 cycles: 17438970 heartbeat IPC: 1.58426 cumulative IPC: 1.77763 (Simulation time: 0 hr 21 min 14 sec) 
Heartbeat CPU 0 instructions: 32000000 cycles: 18060688 heartbeat IPC: 1.60845 cumulative IPC: 1.7718 (Simulation time: 0 hr 21 min 58 sec) 
Heartbeat CPU 0 instructions: 33000001 cycles: 18693202 heartbeat IPC: 1.58099 cumulative IPC: 1.76535 (Simulation time: 0 hr 22 min 42 sec) 
Heartbeat CPU 0 instructions: 34000003 cycles: 19314866 heartbeat IPC: 1.60859 cumulative IPC: 1.7603 (Simulation time: 0 hr 23 min 25 sec) 
Heartbeat CPU 0 instructions: 35000001 cycles: 19946406 heartbeat IPC: 1.58343 cumulative IPC: 1.7547 (Simulation time: 0 hr 24 min 7 sec) 
Heartbeat CPU 0 instructions: 36000000 cycles: 20567613 heartbeat IPC: 1.60977 cumulative IPC: 1.75032 (Simulation time: 0 hr 24 min 46 sec) 
Heartbeat CPU 0 instructions: 37000003 cycles: 21199493 heartbeat IPC: 1.58258 cumulative IPC: 1.74532 (Simulation time: 0 hr 25 min 32 sec) 
Heartbeat CPU 0 instructions: 38000002 cycles: 21830523 heartbeat IPC: 1.58471 cumulative IPC: 1.74068 (Simulation time: 0 hr 26 min 15 sec) 
Heartbeat CPU 0 instructions: 39000002 cycles: 22453059 heartbeat IPC: 1.60633 cumulative IPC: 1.73696 (Simulation time: 0 hr 26 min 57 sec) 
Heartbeat CPU 0 instructions: 40000000 cycles: 23085515 heartbeat IPC: 1.58113 cumulative IPC: 1.73269 (Simulation time: 0 hr 27 min 38 sec) 
Heartbeat CPU 0 instructions: 41000000 cycles: 23707083 heartbeat IPC: 1.60883 cumulative IPC: 1.72944 (Simulation time: 0 hr 28 min 22 sec) 
Heartbeat CPU 0 instructions: 42000002 cycles: 24338494 heartbeat IPC: 1.58376 cumulative IPC: 1.72566 (Simulation time: 0 hr 29 min 5 sec) 
Heartbeat CPU 0 instructions: 43000002 cycles: 24960220 heartbeat IPC: 1.60843 cumulative IPC: 1.72274 (Simulation time: 0 hr 29 min 47 sec) 
Heartbeat CPU 0 instructions: 44000000 cycles: 25592381 heartbeat IPC: 1.58187 cumulative IPC: 1.71926 (Simulation time: 0 hr 30 min 31 sec) 
Heartbeat CPU 0 instructions: 45000002 cycles: 26222703 heartbeat IPC: 1.58649 cumulative IPC: 1.71607 (Simulation time: 0 hr 31 min 16 sec) 
Heartbeat CPU 0 instructions: 46000001 cycles: 26846221 heartbeat IPC: 1.6038 cumulative IPC: 1.71346 (Simulation time: 0 hr 32 min 0 sec) 
Heartbeat CPU 0 instructions: 47000001 cycles: 27477823 heartbeat IPC: 1.58328 cumulative IPC: 1.71047 (Simulation time: 0 hr 32 min 45 sec) 
Heartbeat CPU 0 instructions: 48000000 cycles: 28099399 heartbeat IPC: 1.60881 cumulative IPC: 1.70822 (Simulation time: 0 hr 33 min 29 sec) 
Heartbeat CPU 0 instructions: 49000000 cycles: 28731170 heartbeat IPC: 1.58285 cumulative IPC: 1.70546 (Simulation time: 0 hr 34 min 11 sec) 
Heartbeat CPU 0 instructions: 50000003 cycles: 29352933 heartbeat IPC: 1.60833 cumulative IPC: 1.70341 (Simulation time: 0 hr 34 min 55 sec) 

Warmup complete CPU 0 instructions: 50000003 cycles: 29352933 (Simulation time: 0 hr 34 min 55 sec) 

Heartbeat CPU 0 instructions: 51000003 cycles: 30627023 heartbeat IPC: 0.784874 cumulative IPC: 0.784874 (Simulation time: 0 hr 35 min 40 sec) 
Heartbeat CPU 0 instructions: 52000000 cycles: 31887492 heartbeat IPC: 0.793353 cumulative IPC: 0.789091 (Simulation time: 0 hr 36 min 26 sec) 
Heartbeat CPU 0 instructions: 53000002 cycles: 33194304 heartbeat IPC: 0.765223 cumulative IPC: 0.780971 (Simulation time: 0 hr 37 min 9 sec) 
Heartbeat CPU 0 instructions: 54000001 cycles: 34443082 heartbeat IPC: 0.800782 cumulative IPC: 0.785831 (Simulation time: 0 hr 37 min 53 sec) 
Heartbeat CPU 0 instructions: 55000000 cycles: 35736104 heartbeat IPC: 0.773381 cumulative IPC: 0.783309 (Simulation time: 0 hr 38 min 41 sec) 
Heartbeat CPU 0 instructions: 56000000 cycles: 37004112 heartbeat IPC: 0.788639 cumulative IPC: 0.784193 (Simulation time: 0 hr 39 min 26 sec) 
Heartbeat CPU 0 instructions: 57000000 cycles: 38291435 heartbeat IPC: 0.776806 cumulative IPC: 0.783129 (Simulation time: 0 hr 40 min 10 sec) 
Heartbeat CPU 0 instructions: 58000001 cycles: 39546341 heartbeat IPC: 0.796873 cumulative IPC: 0.784821 (Simulation time: 0 hr 40 min 53 sec) 
Heartbeat CPU 0 instructions: 59000000 cycles: 40792271 heartbeat IPC: 0.802612 cumulative IPC: 0.786759 (Simulation time: 0 hr 41 min 35 sec) 
Heartbeat CPU 0 instructions: 60000000 cycles: 42063266 heartbeat IPC: 0.786785 cumulative IPC: 0.786761 (Simulation time: 0 hr 42 min 14 sec) 
Heartbeat CPU 0 instructions: 61000001 cycles: 43318988 heartbeat IPC: 0.796355 cumulative IPC: 0.787624 (Simulation time: 0 hr 42 min 57 sec) 
Heartbeat CPU 0 instructions: 62000002 cycles: 44595938 heartbeat IPC: 0.783117 cumulative IPC: 0.787246 (Simulation time: 0 hr 43 min 40 sec) 
Heartbeat CPU 0 instructions: 63000000 cycles: 45850964 heartbeat IPC: 0.796795 cumulative IPC: 0.787973 (Simulation time: 0 hr 44 min 24 sec) 
Heartbeat CPU 0 instructions: 64000000 cycles: 47136345 heartbeat IPC: 0.777979 cumulative IPC: 0.78725 (Simulation time: 0 hr 45 min 5 sec) 
Heartbeat CPU 0 instructions: 65000000 cycles: 48397216 heartbeat IPC: 0.793103 cumulative IPC: 0.787638 (Simulation time: 0 hr 45 min 46 sec) 
Heartbeat CPU 0 instructions: 66000000 cycles: 49666348 heartbeat IPC: 0.78794 cumulative IPC: 0.787657 (Simulation time: 0 hr 46 min 27 sec) 
Heartbeat CPU 0 instructions: 67000003 cycles: 50929516 heartbeat IPC: 0.791663 cumulative IPC: 0.787891 (Simulation time: 0 hr 47 min 10 sec) 
Heartbeat CPU 0 instructions: 68000000 cycles: 52183913 heartbeat IPC: 0.797193 cumulative IPC: 0.788402 (Simulation time: 0 hr 47 min 54 sec) 
Heartbeat CPU 0 instructions: 69000000 cycles: 53465466 heartbeat IPC: 0.780303 cumulative IPC: 0.787972 (Simulation time: 0 hr 48 min 38 sec) 
Heartbeat CPU 0 instructions: 70000001 cycles: 54714552 heartbeat IPC: 0.800586 cumulative IPC: 0.788593 (Simulation time: 0 hr 49 min 20 sec) 
Heartbeat CPU 0 instructions: 71000002 cycles: 56008893 heartbeat IPC: 0.772595 cumulative IPC: 0.787816 (Simulation time: 0 hr 50 min 3 sec) 
Heartbeat CPU 0 instructions: 72000000 cycles: 57248111 heartbeat IPC: 0.806959 cumulative IPC: 0.788667 (Simulation time: 0 hr 50 min 45 sec) 
Heartbeat CPU 0 instructions: 73000000 cycles: 58516748 heartbeat IPC: 0.788248 cumulative IPC: 0.788648 (Simulation time: 0 hr 51 min 25 sec) 
Heartbeat CPU 0 instructions: 74000000 cycles: 59770015 heartbeat IPC: 0.797915 cumulative IPC: 0.78903 (Simulation time: 0 hr 52 min 5 sec) 
Heartbeat CPU 0 instructions: 75000002 cycles: 61017048 heartbeat IPC: 0.801905 cumulative IPC: 0.789537 (Simulation time: 0 hr 52 min 48 sec) 
Heartbeat CPU 0 instructions: 76000000 cycles: 62304358 heartbeat IPC: 0.776812 cumulative IPC: 0.78904 (Simulation time: 0 hr 53 min 27 sec) 
Heartbeat CPU 0 instructions: 77000000 cycles: 63546210 heartbeat IPC: 0.805249 cumulative IPC: 0.789629 (Simulation time: 0 hr 54 min 6 sec) 
Heartbeat CPU 0 instructions: 78000003 cycles: 64849583 heartbeat IPC: 0.767242 cumulative IPC: 0.788807 (Simulation time: 0 hr 54 min 47 sec) 
Heartbeat CPU 0 instructions: 79000000 cycles: 66360058 heartbeat IPC: 0.662041 cumulative IPC: 0.783633 (Simulation time: 0 hr 55 min 24 sec) 
Heartbeat CPU 0 instructions: 80000000 cycles: 68027416 heartbeat IPC: 0.599751 cumulative IPC: 0.775705 (Simulation time: 0 hr 56 min 4 sec) 
Heartbeat CPU 0 instructions: 81000002 cycles: 69629442 heartbeat IPC: 0.624211 cumulative IPC: 0.769679 (Simulation time: 0 hr 56 min 48 sec) 
Heartbeat CPU 0 instructions: 82000003 cycles: 71285764 heartbeat IPC: 0.603748 cumulative IPC: 0.763125 (Simulation time: 0 hr 57 min 25 sec) 
Heartbeat CPU 0 instructions: 83000003 cycles: 72949459 heartbeat IPC: 0.601072 cumulative IPC: 0.756941 (Simulation time: 0 hr 58 min 5 sec) 
Heartbeat CPU 0 instructions: 84000000 cycles: 74566124 heartbeat IPC: 0.618555 cumulative IPC: 0.751993 (Simulation time: 0 hr 58 min 45 sec) 
Heartbeat CPU 0 instructions: 85000001 cycles: 76208561 heartbeat IPC: 0.608852 cumulative IPC: 0.746975 (Simulation time: 0 hr 59 min 24 sec) 
Heartbeat CPU 0 instructions: 86000002 cycles: 77827370 heartbeat IPC: 0.617739 cumulative IPC: 0.742659 (Simulation time: 1 hr 0 min 8 sec) 
Heartbeat CPU 0 instructions: 87000000 cycles: 79476239 heartbeat IPC: 0.606475 cumulative IPC: 0.73818 (Simulation time: 1 hr 0 min 47 sec) 
Heartbeat CPU 0 instructions: 88000000 cycles: 81136829 heartbeat IPC: 0.602196 cumulative IPC: 0.733819 (Simulation time: 1 hr 1 min 24 sec) 
Heartbeat CPU 0 instructions: 89000002 cycles: 82766667 heartbeat IPC: 0.613559 cumulative IPC: 0.730149 (Simulation time: 1 hr 2 min 5 sec) 
Heartbeat CPU 0 instructions: 90000001 cycles: 84408455 heartbeat IPC: 0.609091 cumulative IPC: 0.726539 (Simulation time: 1 hr 2 min 45 sec) 
Heartbeat CPU 0 instructions: 91000003 cycles: 86046859 heartbeat IPC: 0.610351 cumulative IPC: 0.723182 (Simulation time: 1 hr 3 min 25 sec) 
Heartbeat CPU 0 instructions: 92000000 cycles: 87699802 heartbeat IPC: 0.60498 cumulative IPC: 0.719833 (Simulation time: 1 hr 4 min 9 sec) 
Heartbeat CPU 0 instructions: 93000001 cycles: 89375134 heartbeat IPC: 0.596897 cumulative IPC: 0.716402 (Simulation time: 1 hr 4 min 49 sec) 
Heartbeat CPU 0 instructions: 94000003 cycles: 91041028 heartbeat IPC: 0.60028 cumulative IPC: 0.713266 (Simulation time: 1 hr 5 min 26 sec) 
Heartbeat CPU 0 instructions: 95000002 cycles: 92748058 heartbeat IPC: 0.585812 cumulative IPC: 0.709834 (Simulation time: 1 hr 6 min 7 sec) 
Heartbeat CPU 0 instructions: 96000000 cycles: 94398051 heartbeat IPC: 0.606062 cumulative IPC: 0.707201 (Simulation time: 1 hr 6 min 49 sec) 
Heartbeat CPU 0 instructions: 97000003 cycles: 96495700 heartbeat IPC: 0.476726 cumulative IPC: 0.700001 (Simulation time: 1 hr 7 min 30 sec) 
Heartbeat CPU 0 instructions: 98000002 cycles: 102080228 heartbeat IPC: 0.179066 cumulative IPC: 0.66 (Simulation time: 1 hr 8 min 59 sec) 
Heartbeat CPU 0 instructions: 99000000 cycles: 105090200 heartbeat IPC: 0.332228 cumulative IPC: 0.646973 (Simulation time: 1 hr 10 min 12 sec) 
Heartbeat CPU 0 instructions: 100000000 cycles: 106780140 heartbeat IPC: 0.591737 cumulative IPC: 0.645768 (Simulation time: 1 hr 10 min 50 sec) 
Heartbeat CPU 0 instructions: 101000000 cycles: 108040412 heartbeat IPC: 0.79348 cumulative IPC: 0.648134 (Simulation time: 1 hr 11 min 23 sec) 
Heartbeat CPU 0 instructions: 102000003 cycles: 109344868 heartbeat IPC: 0.766605 cumulative IPC: 0.650066 (Simulation time: 1 hr 11 min 55 sec) 
Heartbeat CPU 0 instructions: 103000002 cycles: 110688219 heartbeat IPC: 0.744406 cumulative IPC: 0.651624 (Simulation time: 1 hr 12 min 30 sec) 
Heartbeat CPU 0 instructions: 104000000 cycles: 112180697 heartbeat IPC: 0.670025 cumulative IPC: 0.651955 (Simulation time: 1 hr 13 min 12 sec) 
Heartbeat CPU 0 instructions: 105000001 cycles: 113705317 heartbeat IPC: 0.655902 cumulative IPC: 0.652027 (Simulation time: 1 hr 13 min 45 sec) 
Heartbeat CPU 0 instructions: 106000001 cycles: 115250496 heartbeat IPC: 0.647174 cumulative IPC: 0.651939 (Simulation time: 1 hr 14 min 17 sec) 
Heartbeat CPU 0 instructions: 107000001 cycles: 116795099 heartbeat IPC: 0.647416 cumulative IPC: 0.651859 (Simulation time: 1 hr 14 min 49 sec) 
Heartbeat CPU 0 instructions: 108000000 cycles: 118343666 heartbeat IPC: 0.645758 cumulative IPC: 0.651753 (Simulation time: 1 hr 15 min 20 sec) 
Heartbeat CPU 0 instructions: 109000001 cycles: 119869675 heartbeat IPC: 0.655305 cumulative IPC: 0.651813 (Simulation time: 1 hr 15 min 50 sec) 
Heartbeat CPU 0 instructions: 110000001 cycles: 121409583 heartbeat IPC: 0.649389 cumulative IPC: 0.651773 (Simulation time: 1 hr 16 min 31 sec) 
Heartbeat CPU 0 instructions: 111000003 cycles: 122943104 heartbeat IPC: 0.652095 cumulative IPC: 0.651778 (Simulation time: 1 hr 17 min 2 sec) 
Heartbeat CPU 0 instructions: 112000000 cycles: 124490702 heartbeat IPC: 0.646161 cumulative IPC: 0.651686 (Simulation time: 1 hr 17 min 35 sec) 
Heartbeat CPU 0 instructions: 113000002 cycles: 126124384 heartbeat IPC: 0.612115 cumulative IPC: 0.651018 (Simulation time: 1 hr 18 min 9 sec) 
Heartbeat CPU 0 instructions: 114000002 cycles: 128536217 heartbeat IPC: 0.414622 cumulative IPC: 0.64527 (Simulation time: 1 hr 18 min 46 sec) 
Heartbeat CPU 0 instructions: 115000003 cycles: 130944166 heartbeat IPC: 0.415292 cumulative IPC: 0.639819 (Simulation time: 1 hr 19 min 22 sec) 
Heartbeat CPU 0 instructions: 116000000 cycles: 133410553 heartbeat IPC: 0.40545 cumulative IPC: 0.634264 (Simulation time: 1 hr 19 min 59 sec) 
Heartbeat CPU 0 instructions: 117000001 cycles: 135841467 heartbeat IPC: 0.411368 cumulative IPC: 0.629176 (Simulation time: 1 hr 20 min 34 sec) 
Heartbeat CPU 0 instructions: 118000000 cycles: 138271502 heartbeat IPC: 0.411516 cumulative IPC: 0.62432 (Simulation time: 1 hr 21 min 14 sec) 
Heartbeat CPU 0 instructions: 119000000 cycles: 140640856 heartbeat IPC: 0.422056 cumulative IPC: 0.620013 (Simulation time: 1 hr 21 min 57 sec) 
Heartbeat CPU 0 instructions: 120000000 cycles: 143079806 heartbeat IPC: 0.410013 cumulative IPC: 0.61551 (Simulation time: 1 hr 22 min 39 sec) 
Heartbeat CPU 0 instructions: 121000001 cycles: 145478061 heartbeat IPC: 0.41697 cumulative IPC: 0.611409 (Simulation time: 1 hr 23 min 20 sec) 
Heartbeat CPU 0 instructions: 122000000 cycles: 147866222 heartbeat IPC: 0.418732 cumulative IPC: 0.607527 (Simulation time: 1 hr 23 min 59 sec) 
Heartbeat CPU 0 instructions: 123000003 cycles: 149240898 heartbeat IPC: 0.727446 cumulative IPC: 0.608902 (Simulation time: 1 hr 24 min 29 sec) 
Heartbeat CPU 0 instructions: 124000000 cycles: 150370023 heartbeat IPC: 0.885639 cumulative IPC: 0.611484 (Simulation time: 1 hr 24 min 54 sec) 
Heartbeat CPU 0 instructions: 125000000 cycles: 151468640 heartbeat IPC: 0.910235 cumulative IPC: 0.614172 (Simulation time: 1 hr 25 min 20 sec) 
Heartbeat CPU 0 instructions: 126000001 cycles: 152564918 heartbeat IPC: 0.912178 cumulative IPC: 0.616823 (Simulation time: 1 hr 25 min 45 sec) 
Heartbeat CPU 0 instructions: 127000002 cycles: 153582562 heartbeat IPC: 0.982663 cumulative IPC: 0.61982 (Simulation time: 1 hr 26 min 11 sec) 
Heartbeat CPU 0 instructions: 128000000 cycles: 154605525 heartbeat IPC: 0.977551 cumulative IPC: 0.622742 (Simulation time: 1 hr 26 min 35 sec) 
Heartbeat CPU 0 instructions: 129000002 cycles: 155676006 heartbeat IPC: 0.934161 cumulative IPC: 0.625381 (Simulation time: 1 hr 27 min 0 sec) 
Heartbeat CPU 0 instructions: 130000003 cycles: 156750084 heartbeat IPC: 0.931032 cumulative IPC: 0.627958 (Simulation time: 1 hr 27 min 23 sec) 
Heartbeat CPU 0 instructions: 131000000 cycles: 157812970 heartbeat IPC: 0.940832 cumulative IPC: 0.630546 (Simulation time: 1 hr 27 min 46 sec) 
Heartbeat CPU 0 instructions: 132000000 cycles: 158884846 heartbeat IPC: 0.932944 cumulative IPC: 0.633049 (Simulation time: 1 hr 28 min 9 sec) 
Heartbeat CPU 0 instructions: 133000001 cycles: 159945704 heartbeat IPC: 0.942634 cumulative IPC: 0.635563 (Simulation time: 1 hr 28 min 29 sec) 
Heartbeat CPU 0 instructions: 134000000 cycles: 161028666 heartbeat IPC: 0.923393 cumulative IPC: 0.637931 (Simulation time: 1 hr 28 min 51 sec) 
Heartbeat CPU 0 instructions: 135000002 cycles: 162086239 heartbeat IPC: 0.945563 cumulative IPC: 0.640382 (Simulation time: 1 hr 29 min 12 sec) 
Heartbeat CPU 0 instructions: 136000000 cycles: 163149799 heartbeat IPC: 0.940237 cumulative IPC: 0.642765 (Simulation time: 1 hr 29 min 33 sec) 
Heartbeat CPU 0 instructions: 137000001 cycles: 164228338 heartbeat IPC: 0.927181 cumulative IPC: 0.64504 (Simulation time: 1 hr 29 min 53 sec) 
Heartbeat CPU 0 instructions: 138000002 cycles: 165301803 heartbeat IPC: 0.931564 cumulative IPC: 0.647302 (Simulation time: 1 hr 30 min 14 sec) 
Heartbeat CPU 0 instructions: 139000001 cycles: 166386386 heartbeat IPC: 0.922012 cumulative IPC: 0.649476 (Simulation time: 1 hr 30 min 35 sec) 
Heartbeat CPU 0 instructions: 140000000 cycles: 167470877 heartbeat IPC: 0.922091 cumulative IPC: 0.651617 (Simulation time: 1 hr 30 min 55 sec) 
Heartbeat CPU 0 instructions: 141000001 cycles: 168531855 heartbeat IPC: 0.942528 cumulative IPC: 0.653835 (Simulation time: 1 hr 31 min 14 sec) 
Heartbeat CPU 0 instructions: 142000003 cycles: 169610438 heartbeat IPC: 0.927144 cumulative IPC: 0.655936 (Simulation time: 1 hr 31 min 33 sec) 
Heartbeat CPU 0 instructions: 143000003 cycles: 170675384 heartbeat IPC: 0.939015 cumulative IPC: 0.65807 (Simulation time: 1 hr 31 min 52 sec) 
Heartbeat CPU 0 instructions: 144000000 cycles: 171747571 heartbeat IPC: 0.93267 cumulative IPC: 0.660137 (Simulation time: 1 hr 32 min 8 sec) 
Heartbeat CPU 0 instructions: 145000000 cycles: 172818045 heartbeat IPC: 0.934166 cumulative IPC: 0.662182 (Simulation time: 1 hr 32 min 27 sec) 
Heartbeat CPU 0 instructions: 146000003 cycles: 173896438 heartbeat IPC: 0.927308 cumulative IPC: 0.66416 (Simulation time: 1 hr 32 min 45 sec) 
Heartbeat CPU 0 instructions: 147000001 cycles: 174975330 heartbeat IPC: 0.926875 cumulative IPC: 0.666106 (Simulation time: 1 hr 33 min 2 sec) 
Heartbeat CPU 0 instructions: 148000000 cycles: 176056515 heartbeat IPC: 0.92491 cumulative IPC: 0.668014 (Simulation time: 1 hr 33 min 19 sec) 
Heartbeat CPU 0 instructions: 149000000 cycles: 177118013 heartbeat IPC: 0.942065 cumulative IPC: 0.669982 (Simulation time: 1 hr 33 min 35 sec) 
Heartbeat CPU 0 instructions: 150000003 cycles: 178187644 heartbeat IPC: 0.934905 cumulative IPC: 0.671886 (Simulation time: 1 hr 33 min 49 sec) 
Finished CPU 0 instructions: 100000000 cycles: 148834711 cummulative IPC: 0.671886 (Simulation time: 1 hr 33 min 49 sec) 

ChampSim completed all CPUs

Region of Interest Statistics

CPU 0 cummulative IPC: 0.671886 instructions: 100000000 cycles: 148834711
LLC TOTAL     ACCESS:    4045558  HIT:     798190  MISS:    3247368
LLC LOAD      ACCESS:     356298  HIT:      71501  MISS:     284797
LLC RFO       ACCESS:     704499  HIT:      54830  MISS:     649669
LLC PREFETCH  ACCESS:    2008021  HIT:     306674  MISS:    1701347
LLC WRITEBACK ACCESS:     976740  HIT:     365185  MISS:     611555
OPTgen accesses: 23721
OPTgen hits: 9489
OPTgen hit rate: 40.0025


