
*** ChampSim Multicore Out-of-Order Simulator ***

Warmup Instructions: 50000000
Simulation Instructions: 100000000
Configuration: 2
Number of CPUs: 1
LLC sets: 2048
LLC ways: 16
Off-chip DRAM Channels: 1 Width: 64-bit Data Rate: 1600 MT/s

CPU 0 runs /datasets/cs240c-wi22-a00-public/data/Assignment2-gz/lbm_94B.trace.gz
CPU 0 L1D next line prefetcher
CPU 0 L2C IP-based stride prefetcher
Initialize Hawkeye state
Heartbeat CPU 0 instructions: 1000000 cycles: 422068 heartbeat IPC: 2.36929 cumulative IPC: 2.36929 (Simulation time: 0 hr 0 min 38 sec) 
Heartbeat CPU 0 instructions: 2000000 cycles: 812399 heartbeat IPC: 2.56193 cumulative IPC: 2.46184 (Simulation time: 0 hr 1 min 12 sec) 
Heartbeat CPU 0 instructions: 3000000 cycles: 1211539 heartbeat IPC: 2.50539 cumulative IPC: 2.47619 (Simulation time: 0 hr 1 min 49 sec) 
Heartbeat CPU 0 instructions: 4000000 cycles: 1631528 heartbeat IPC: 2.38101 cumulative IPC: 2.45169 (Simulation time: 0 hr 2 min 25 sec) 
Heartbeat CPU 0 instructions: 5000001 cycles: 2021787 heartbeat IPC: 2.5624 cumulative IPC: 2.47306 (Simulation time: 0 hr 2 min 59 sec) 
Heartbeat CPU 0 instructions: 6000000 cycles: 2422466 heartbeat IPC: 2.49576 cumulative IPC: 2.47681 (Simulation time: 0 hr 3 min 35 sec) 
Heartbeat CPU 0 instructions: 7000001 cycles: 2840598 heartbeat IPC: 2.39159 cumulative IPC: 2.46427 (Simulation time: 0 hr 4 min 14 sec) 
Heartbeat CPU 0 instructions: 8000000 cycles: 3230810 heartbeat IPC: 2.56271 cumulative IPC: 2.47616 (Simulation time: 0 hr 4 min 46 sec) 
Heartbeat CPU 0 instructions: 9000003 cycles: 3631835 heartbeat IPC: 2.49362 cumulative IPC: 2.47809 (Simulation time: 0 hr 5 min 22 sec) 
Heartbeat CPU 0 instructions: 10000000 cycles: 4048412 heartbeat IPC: 2.40051 cumulative IPC: 2.4701 (Simulation time: 0 hr 5 min 57 sec) 
Heartbeat CPU 0 instructions: 11000003 cycles: 4438604 heartbeat IPC: 2.56285 cumulative IPC: 2.47826 (Simulation time: 0 hr 6 min 31 sec) 
Heartbeat CPU 0 instructions: 12000000 cycles: 4839148 heartbeat IPC: 2.4966 cumulative IPC: 2.47978 (Simulation time: 0 hr 7 min 7 sec) 
Heartbeat CPU 0 instructions: 13000000 cycles: 5254536 heartbeat IPC: 2.40739 cumulative IPC: 2.47405 (Simulation time: 0 hr 7 min 42 sec) 
Heartbeat CPU 0 instructions: 14000003 cycles: 5644782 heartbeat IPC: 2.56249 cumulative IPC: 2.48017 (Simulation time: 0 hr 8 min 16 sec) 
Heartbeat CPU 0 instructions: 15000001 cycles: 6045156 heartbeat IPC: 2.49766 cumulative IPC: 2.48133 (Simulation time: 0 hr 8 min 50 sec) 
Heartbeat CPU 0 instructions: 16000000 cycles: 6459549 heartbeat IPC: 2.41317 cumulative IPC: 2.47695 (Simulation time: 0 hr 9 min 27 sec) 
Heartbeat CPU 0 instructions: 17000001 cycles: 6849804 heartbeat IPC: 2.56243 cumulative IPC: 2.48182 (Simulation time: 0 hr 10 min 2 sec) 
Heartbeat CPU 0 instructions: 18000001 cycles: 7248667 heartbeat IPC: 2.50713 cumulative IPC: 2.48322 (Simulation time: 0 hr 10 min 36 sec) 
Heartbeat CPU 0 instructions: 19000000 cycles: 7663202 heartbeat IPC: 2.41234 cumulative IPC: 2.47938 (Simulation time: 0 hr 11 min 11 sec) 
Heartbeat CPU 0 instructions: 20000000 cycles: 8053474 heartbeat IPC: 2.56232 cumulative IPC: 2.4834 (Simulation time: 0 hr 11 min 45 sec) 
Heartbeat CPU 0 instructions: 21000003 cycles: 8451554 heartbeat IPC: 2.51207 cumulative IPC: 2.48475 (Simulation time: 0 hr 12 min 19 sec) 
Heartbeat CPU 0 instructions: 22000000 cycles: 8865727 heartbeat IPC: 2.41444 cumulative IPC: 2.48147 (Simulation time: 0 hr 12 min 56 sec) 
Heartbeat CPU 0 instructions: 23000000 cycles: 9255898 heartbeat IPC: 2.56298 cumulative IPC: 2.4849 (Simulation time: 0 hr 13 min 28 sec) 
Heartbeat CPU 0 instructions: 24000000 cycles: 9651995 heartbeat IPC: 2.52463 cumulative IPC: 2.48653 (Simulation time: 0 hr 14 min 4 sec) 
Heartbeat CPU 0 instructions: 25000000 cycles: 10065682 heartbeat IPC: 2.41729 cumulative IPC: 2.48369 (Simulation time: 0 hr 14 min 40 sec) 
Heartbeat CPU 0 instructions: 26000003 cycles: 10455959 heartbeat IPC: 2.56229 cumulative IPC: 2.48662 (Simulation time: 0 hr 15 min 12 sec) 
Heartbeat CPU 0 instructions: 27000002 cycles: 10851037 heartbeat IPC: 2.53114 cumulative IPC: 2.48824 (Simulation time: 0 hr 15 min 48 sec) 
Heartbeat CPU 0 instructions: 28000000 cycles: 11264475 heartbeat IPC: 2.41874 cumulative IPC: 2.48569 (Simulation time: 0 hr 16 min 22 sec) 
Heartbeat CPU 0 instructions: 29000000 cycles: 11654652 heartbeat IPC: 2.56294 cumulative IPC: 2.48828 (Simulation time: 0 hr 16 min 54 sec) 
Heartbeat CPU 0 instructions: 30000000 cycles: 12049686 heartbeat IPC: 2.53143 cumulative IPC: 2.48969 (Simulation time: 0 hr 17 min 30 sec) 
Heartbeat CPU 0 instructions: 31000003 cycles: 12460622 heartbeat IPC: 2.43348 cumulative IPC: 2.48784 (Simulation time: 0 hr 18 min 4 sec) 
Heartbeat CPU 0 instructions: 32000000 cycles: 12850921 heartbeat IPC: 2.56213 cumulative IPC: 2.49009 (Simulation time: 0 hr 18 min 38 sec) 
Heartbeat CPU 0 instructions: 33000002 cycles: 13246044 heartbeat IPC: 2.53086 cumulative IPC: 2.49131 (Simulation time: 0 hr 19 min 13 sec) 
Heartbeat CPU 0 instructions: 34000003 cycles: 13653585 heartbeat IPC: 2.45374 cumulative IPC: 2.49019 (Simulation time: 0 hr 19 min 51 sec) 
Heartbeat CPU 0 instructions: 35000002 cycles: 14045232 heartbeat IPC: 2.55332 cumulative IPC: 2.49195 (Simulation time: 0 hr 20 min 29 sec) 
Heartbeat CPU 0 instructions: 36000000 cycles: 14440259 heartbeat IPC: 2.53147 cumulative IPC: 2.49303 (Simulation time: 0 hr 21 min 6 sec) 
Heartbeat CPU 0 instructions: 37000003 cycles: 14842484 heartbeat IPC: 2.48618 cumulative IPC: 2.49284 (Simulation time: 0 hr 21 min 42 sec) 
Heartbeat CPU 0 instructions: 38000002 cycles: 15237003 heartbeat IPC: 2.53473 cumulative IPC: 2.49393 (Simulation time: 0 hr 22 min 16 sec) 
Heartbeat CPU 0 instructions: 39000000 cycles: 15627212 heartbeat IPC: 2.56272 cumulative IPC: 2.49565 (Simulation time: 0 hr 22 min 51 sec) 
Heartbeat CPU 0 instructions: 40000000 cycles: 16027537 heartbeat IPC: 2.49797 cumulative IPC: 2.4957 (Simulation time: 0 hr 23 min 28 sec) 
Heartbeat CPU 0 instructions: 41000003 cycles: 16426213 heartbeat IPC: 2.50831 cumulative IPC: 2.49601 (Simulation time: 0 hr 23 min 59 sec) 
Heartbeat CPU 0 instructions: 42000003 cycles: 16816448 heartbeat IPC: 2.56256 cumulative IPC: 2.49756 (Simulation time: 0 hr 24 min 34 sec) 
Heartbeat CPU 0 instructions: 43000003 cycles: 17211699 heartbeat IPC: 2.53004 cumulative IPC: 2.4983 (Simulation time: 0 hr 25 min 6 sec) 
Heartbeat CPU 0 instructions: 44000000 cycles: 17612667 heartbeat IPC: 2.49396 cumulative IPC: 2.4982 (Simulation time: 0 hr 25 min 43 sec) 
Heartbeat CPU 0 instructions: 45000002 cycles: 18002921 heartbeat IPC: 2.56244 cumulative IPC: 2.49959 (Simulation time: 0 hr 26 min 17 sec) 
Heartbeat CPU 0 instructions: 46000001 cycles: 18398067 heartbeat IPC: 2.53071 cumulative IPC: 2.50026 (Simulation time: 0 hr 26 min 52 sec) 
Heartbeat CPU 0 instructions: 47000003 cycles: 18796473 heartbeat IPC: 2.51001 cumulative IPC: 2.50047 (Simulation time: 0 hr 27 min 26 sec) 
Heartbeat CPU 0 instructions: 48000000 cycles: 19186621 heartbeat IPC: 2.56312 cumulative IPC: 2.50174 (Simulation time: 0 hr 28 min 1 sec) 
Heartbeat CPU 0 instructions: 49000000 cycles: 19581698 heartbeat IPC: 2.53115 cumulative IPC: 2.50234 (Simulation time: 0 hr 28 min 35 sec) 
Heartbeat CPU 0 instructions: 50000003 cycles: 19975987 heartbeat IPC: 2.53622 cumulative IPC: 2.50301 (Simulation time: 0 hr 29 min 10 sec) 

Warmup complete CPU 0 instructions: 50000003 cycles: 19975987 (Simulation time: 0 hr 29 min 10 sec) 

Heartbeat CPU 0 instructions: 51000003 cycles: 21349124 heartbeat IPC: 0.728259 cumulative IPC: 0.728259 (Simulation time: 0 hr 29 min 53 sec) 
Heartbeat CPU 0 instructions: 52000000 cycles: 22753333 heartbeat IPC: 0.712143 cumulative IPC: 0.720111 (Simulation time: 0 hr 30 min 34 sec) 
Heartbeat CPU 0 instructions: 53000001 cycles: 24300810 heartbeat IPC: 0.646214 cumulative IPC: 0.69367 (Simulation time: 0 hr 31 min 17 sec) 
Heartbeat CPU 0 instructions: 54000000 cycles: 25763067 heartbeat IPC: 0.683874 cumulative IPC: 0.691194 (Simulation time: 0 hr 31 min 56 sec) 
Heartbeat CPU 0 instructions: 55000003 cycles: 27176339 heartbeat IPC: 0.70758 cumulative IPC: 0.694411 (Simulation time: 0 hr 32 min 36 sec) 
Heartbeat CPU 0 instructions: 56000000 cycles: 28643437 heartbeat IPC: 0.681616 cumulative IPC: 0.692245 (Simulation time: 0 hr 33 min 15 sec) 
Heartbeat CPU 0 instructions: 57000003 cycles: 30032229 heartbeat IPC: 0.720052 cumulative IPC: 0.696085 (Simulation time: 0 hr 33 min 53 sec) 
Heartbeat CPU 0 instructions: 58000003 cycles: 31457872 heartbeat IPC: 0.701438 cumulative IPC: 0.69675 (Simulation time: 0 hr 34 min 32 sec) 
Heartbeat CPU 0 instructions: 59000000 cycles: 32928356 heartbeat IPC: 0.680046 cumulative IPC: 0.694853 (Simulation time: 0 hr 35 min 12 sec) 
Heartbeat CPU 0 instructions: 60000000 cycles: 34377032 heartbeat IPC: 0.690286 cumulative IPC: 0.694394 (Simulation time: 0 hr 35 min 52 sec) 
Heartbeat CPU 0 instructions: 61000000 cycles: 35802384 heartbeat IPC: 0.701581 cumulative IPC: 0.695041 (Simulation time: 0 hr 36 min 33 sec) 
Heartbeat CPU 0 instructions: 62000000 cycles: 37148783 heartbeat IPC: 0.742722 cumulative IPC: 0.698779 (Simulation time: 0 hr 37 min 11 sec) 
Heartbeat CPU 0 instructions: 63000001 cycles: 38546798 heartbeat IPC: 0.715301 cumulative IPC: 0.700023 (Simulation time: 0 hr 37 min 49 sec) 
Heartbeat CPU 0 instructions: 64000000 cycles: 39946698 heartbeat IPC: 0.714336 cumulative IPC: 0.701026 (Simulation time: 0 hr 38 min 28 sec) 
Heartbeat CPU 0 instructions: 65000003 cycles: 41416929 heartbeat IPC: 0.680167 cumulative IPC: 0.699596 (Simulation time: 0 hr 39 min 8 sec) 
Heartbeat CPU 0 instructions: 66000002 cycles: 42903283 heartbeat IPC: 0.672787 cumulative IPC: 0.697858 (Simulation time: 0 hr 39 min 46 sec) 
Heartbeat CPU 0 instructions: 67000002 cycles: 44326657 heartbeat IPC: 0.702556 cumulative IPC: 0.698133 (Simulation time: 0 hr 40 min 23 sec) 
Heartbeat CPU 0 instructions: 68000000 cycles: 45699965 heartbeat IPC: 0.728167 cumulative IPC: 0.699736 (Simulation time: 0 hr 41 min 2 sec) 
Heartbeat CPU 0 instructions: 69000000 cycles: 47080903 heartbeat IPC: 0.724145 cumulative IPC: 0.70098 (Simulation time: 0 hr 41 min 40 sec) 
Heartbeat CPU 0 instructions: 70000001 cycles: 48495742 heartbeat IPC: 0.706795 cumulative IPC: 0.701268 (Simulation time: 0 hr 42 min 17 sec) 
Heartbeat CPU 0 instructions: 71000001 cycles: 49902195 heartbeat IPC: 0.711008 cumulative IPC: 0.701726 (Simulation time: 0 hr 42 min 55 sec) 
Heartbeat CPU 0 instructions: 72000000 cycles: 51353228 heartbeat IPC: 0.689164 cumulative IPC: 0.701145 (Simulation time: 0 hr 43 min 34 sec) 
Heartbeat CPU 0 instructions: 73000001 cycles: 52827493 heartbeat IPC: 0.678305 cumulative IPC: 0.70012 (Simulation time: 0 hr 44 min 14 sec) 
Heartbeat CPU 0 instructions: 74000001 cycles: 54241651 heartbeat IPC: 0.707135 cumulative IPC: 0.70041 (Simulation time: 0 hr 44 min 52 sec) 
Heartbeat CPU 0 instructions: 75000000 cycles: 55633831 heartbeat IPC: 0.718297 cumulative IPC: 0.701108 (Simulation time: 0 hr 45 min 28 sec) 
Heartbeat CPU 0 instructions: 76000000 cycles: 57143525 heartbeat IPC: 0.662386 cumulative IPC: 0.699535 (Simulation time: 0 hr 46 min 5 sec) 
Heartbeat CPU 0 instructions: 77000002 cycles: 58592056 heartbeat IPC: 0.690356 cumulative IPC: 0.699191 (Simulation time: 0 hr 46 min 47 sec) 
Heartbeat CPU 0 instructions: 78000003 cycles: 59987192 heartbeat IPC: 0.716777 cumulative IPC: 0.699804 (Simulation time: 0 hr 47 min 23 sec) 
Heartbeat CPU 0 instructions: 79000000 cycles: 61421235 heartbeat IPC: 0.697327 cumulative IPC: 0.699718 (Simulation time: 0 hr 48 min 3 sec) 
Heartbeat CPU 0 instructions: 80000000 cycles: 62915863 heartbeat IPC: 0.669063 cumulative IPC: 0.698651 (Simulation time: 0 hr 48 min 43 sec) 
Heartbeat CPU 0 instructions: 81000000 cycles: 64339201 heartbeat IPC: 0.702574 cumulative IPC: 0.698777 (Simulation time: 0 hr 49 min 19 sec) 
Heartbeat CPU 0 instructions: 82000000 cycles: 65791054 heartbeat IPC: 0.688775 cumulative IPC: 0.69846 (Simulation time: 0 hr 50 min 0 sec) 
Heartbeat CPU 0 instructions: 83000003 cycles: 67269869 heartbeat IPC: 0.676219 cumulative IPC: 0.697765 (Simulation time: 0 hr 50 min 41 sec) 
Heartbeat CPU 0 instructions: 84000000 cycles: 68638828 heartbeat IPC: 0.73048 cumulative IPC: 0.698685 (Simulation time: 0 hr 51 min 20 sec) 
Heartbeat CPU 0 instructions: 85000001 cycles: 69954114 heartbeat IPC: 0.760292 cumulative IPC: 0.700306 (Simulation time: 0 hr 51 min 56 sec) 
Heartbeat CPU 0 instructions: 86000003 cycles: 71354824 heartbeat IPC: 0.713925 cumulative IPC: 0.700678 (Simulation time: 0 hr 52 min 34 sec) 
Heartbeat CPU 0 instructions: 87000000 cycles: 72794607 heartbeat IPC: 0.694547 cumulative IPC: 0.700511 (Simulation time: 0 hr 53 min 13 sec) 
Heartbeat CPU 0 instructions: 88000000 cycles: 74264548 heartbeat IPC: 0.680299 cumulative IPC: 0.699963 (Simulation time: 0 hr 53 min 50 sec) 
Heartbeat CPU 0 instructions: 89000003 cycles: 75711905 heartbeat IPC: 0.690917 cumulative IPC: 0.699728 (Simulation time: 0 hr 54 min 29 sec) 
Heartbeat CPU 0 instructions: 90000003 cycles: 77161843 heartbeat IPC: 0.689685 cumulative IPC: 0.699474 (Simulation time: 0 hr 55 min 5 sec) 
Heartbeat CPU 0 instructions: 91000002 cycles: 78494298 heartbeat IPC: 0.750494 cumulative IPC: 0.700635 (Simulation time: 0 hr 55 min 40 sec) 
Heartbeat CPU 0 instructions: 92000000 cycles: 79885956 heartbeat IPC: 0.718566 cumulative IPC: 0.701052 (Simulation time: 0 hr 56 min 17 sec) 
Heartbeat CPU 0 instructions: 93000003 cycles: 81363909 heartbeat IPC: 0.676614 cumulative IPC: 0.700464 (Simulation time: 0 hr 56 min 56 sec) 
Heartbeat CPU 0 instructions: 94000001 cycles: 82775674 heartbeat IPC: 0.708332 cumulative IPC: 0.70064 (Simulation time: 0 hr 57 min 32 sec) 
Heartbeat CPU 0 instructions: 95000001 cycles: 84189493 heartbeat IPC: 0.707304 cumulative IPC: 0.700787 (Simulation time: 0 hr 58 min 8 sec) 
Heartbeat CPU 0 instructions: 96000000 cycles: 85633032 heartbeat IPC: 0.692741 cumulative IPC: 0.70061 (Simulation time: 0 hr 58 min 44 sec) 
Heartbeat CPU 0 instructions: 97000000 cycles: 87126237 heartbeat IPC: 0.6697 cumulative IPC: 0.699923 (Simulation time: 0 hr 59 min 22 sec) 
Heartbeat CPU 0 instructions: 98000002 cycles: 88515208 heartbeat IPC: 0.719959 cumulative IPC: 0.700329 (Simulation time: 0 hr 59 min 59 sec) 
Heartbeat CPU 0 instructions: 99000001 cycles: 89869595 heartbeat IPC: 0.738341 cumulative IPC: 0.701066 (Simulation time: 1 hr 0 min 35 sec) 
Heartbeat CPU 0 instructions: 100000000 cycles: 91314678 heartbeat IPC: 0.692001 cumulative IPC: 0.700882 (Simulation time: 1 hr 1 min 12 sec) 
Heartbeat CPU 0 instructions: 101000003 cycles: 92746642 heartbeat IPC: 0.698344 cumulative IPC: 0.700832 (Simulation time: 1 hr 1 min 47 sec) 
Heartbeat CPU 0 instructions: 102000002 cycles: 94192515 heartbeat IPC: 0.691623 cumulative IPC: 0.700653 (Simulation time: 1 hr 2 min 26 sec) 
Heartbeat CPU 0 instructions: 103000000 cycles: 95661442 heartbeat IPC: 0.680768 cumulative IPC: 0.700267 (Simulation time: 1 hr 3 min 4 sec) 
Heartbeat CPU 0 instructions: 104000000 cycles: 97081702 heartbeat IPC: 0.704096 cumulative IPC: 0.700337 (Simulation time: 1 hr 3 min 41 sec) 
Heartbeat CPU 0 instructions: 105000002 cycles: 98489656 heartbeat IPC: 0.710252 cumulative IPC: 0.700515 (Simulation time: 1 hr 4 min 20 sec) 
Heartbeat CPU 0 instructions: 106000001 cycles: 99870536 heartbeat IPC: 0.724175 cumulative IPC: 0.700924 (Simulation time: 1 hr 4 min 57 sec) 
Heartbeat CPU 0 instructions: 107000000 cycles: 101333455 heartbeat IPC: 0.683564 cumulative IPC: 0.700612 (Simulation time: 1 hr 5 min 37 sec) 
Heartbeat CPU 0 instructions: 108000000 cycles: 102770938 heartbeat IPC: 0.69566 cumulative IPC: 0.700526 (Simulation time: 1 hr 6 min 15 sec) 
Heartbeat CPU 0 instructions: 109000002 cycles: 104182290 heartbeat IPC: 0.708542 cumulative IPC: 0.70066 (Simulation time: 1 hr 6 min 56 sec) 
Heartbeat CPU 0 instructions: 110000000 cycles: 105626356 heartbeat IPC: 0.692488 cumulative IPC: 0.700522 (Simulation time: 1 hr 7 min 34 sec) 
Heartbeat CPU 0 instructions: 111000003 cycles: 106991395 heartbeat IPC: 0.732582 cumulative IPC: 0.701025 (Simulation time: 1 hr 8 min 11 sec) 
Heartbeat CPU 0 instructions: 112000000 cycles: 108411226 heartbeat IPC: 0.704307 cumulative IPC: 0.701078 (Simulation time: 1 hr 8 min 52 sec) 
Heartbeat CPU 0 instructions: 113000001 cycles: 109865909 heartbeat IPC: 0.687436 cumulative IPC: 0.700857 (Simulation time: 1 hr 9 min 29 sec) 
Heartbeat CPU 0 instructions: 114000003 cycles: 111307592 heartbeat IPC: 0.693635 cumulative IPC: 0.700743 (Simulation time: 1 hr 10 min 10 sec) 
Heartbeat CPU 0 instructions: 115000003 cycles: 112752914 heartbeat IPC: 0.691887 cumulative IPC: 0.700605 (Simulation time: 1 hr 10 min 51 sec) 
Heartbeat CPU 0 instructions: 116000000 cycles: 114153585 heartbeat IPC: 0.713941 cumulative IPC: 0.700804 (Simulation time: 1 hr 11 min 27 sec) 
Heartbeat CPU 0 instructions: 117000003 cycles: 115589640 heartbeat IPC: 0.696354 cumulative IPC: 0.700737 (Simulation time: 1 hr 12 min 2 sec) 
Heartbeat CPU 0 instructions: 118000003 cycles: 116961474 heartbeat IPC: 0.728951 cumulative IPC: 0.701136 (Simulation time: 1 hr 12 min 34 sec) 
Heartbeat CPU 0 instructions: 119000000 cycles: 118401591 heartbeat IPC: 0.694386 cumulative IPC: 0.701037 (Simulation time: 1 hr 13 min 9 sec) 
Heartbeat CPU 0 instructions: 120000000 cycles: 119876636 heartbeat IPC: 0.677945 cumulative IPC: 0.700696 (Simulation time: 1 hr 13 min 48 sec) 
Heartbeat CPU 0 instructions: 121000002 cycles: 121261527 heartbeat IPC: 0.72208 cumulative IPC: 0.700989 (Simulation time: 1 hr 14 min 20 sec) 
Heartbeat CPU 0 instructions: 122000003 cycles: 122673073 heartbeat IPC: 0.708444 cumulative IPC: 0.701091 (Simulation time: 1 hr 14 min 53 sec) 
Heartbeat CPU 0 instructions: 123000002 cycles: 124114174 heartbeat IPC: 0.693913 cumulative IPC: 0.700992 (Simulation time: 1 hr 15 min 26 sec) 
Heartbeat CPU 0 instructions: 124000000 cycles: 125607743 heartbeat IPC: 0.669536 cumulative IPC: 0.700547 (Simulation time: 1 hr 16 min 2 sec) 
Heartbeat CPU 0 instructions: 125000001 cycles: 127003249 heartbeat IPC: 0.716587 cumulative IPC: 0.700756 (Simulation time: 1 hr 16 min 36 sec) 
Heartbeat CPU 0 instructions: 126000003 cycles: 128376880 heartbeat IPC: 0.727999 cumulative IPC: 0.701101 (Simulation time: 1 hr 17 min 8 sec) 
Heartbeat CPU 0 instructions: 127000002 cycles: 129816501 heartbeat IPC: 0.694627 cumulative IPC: 0.701016 (Simulation time: 1 hr 17 min 43 sec) 
Heartbeat CPU 0 instructions: 128000000 cycles: 131186372 heartbeat IPC: 0.729994 cumulative IPC: 0.701373 (Simulation time: 1 hr 18 min 16 sec) 
Heartbeat CPU 0 instructions: 129000003 cycles: 132575582 heartbeat IPC: 0.719836 cumulative IPC: 0.701601 (Simulation time: 1 hr 18 min 51 sec) 
Heartbeat CPU 0 instructions: 130000000 cycles: 134036858 heartbeat IPC: 0.684331 cumulative IPC: 0.70138 (Simulation time: 1 hr 19 min 24 sec) 
Heartbeat CPU 0 instructions: 131000001 cycles: 135450872 heartbeat IPC: 0.707207 cumulative IPC: 0.701451 (Simulation time: 1 hr 20 min 0 sec) 
Heartbeat CPU 0 instructions: 132000000 cycles: 136845437 heartbeat IPC: 0.717069 cumulative IPC: 0.701638 (Simulation time: 1 hr 20 min 29 sec) 
Heartbeat CPU 0 instructions: 133000003 cycles: 138278618 heartbeat IPC: 0.697751 cumulative IPC: 0.70159 (Simulation time: 1 hr 21 min 0 sec) 
Heartbeat CPU 0 instructions: 134000001 cycles: 139751802 heartbeat IPC: 0.6788 cumulative IPC: 0.70131 (Simulation time: 1 hr 21 min 32 sec) 
Heartbeat CPU 0 instructions: 135000000 cycles: 141182874 heartbeat IPC: 0.698776 cumulative IPC: 0.70128 (Simulation time: 1 hr 22 min 4 sec) 
Heartbeat CPU 0 instructions: 136000000 cycles: 142605449 heartbeat IPC: 0.702951 cumulative IPC: 0.7013 (Simulation time: 1 hr 22 min 36 sec) 
Heartbeat CPU 0 instructions: 137000002 cycles: 144043670 heartbeat IPC: 0.695305 cumulative IPC: 0.70123 (Simulation time: 1 hr 23 min 6 sec) 
Heartbeat CPU 0 instructions: 138000001 cycles: 145472745 heartbeat IPC: 0.699753 cumulative IPC: 0.701213 (Simulation time: 1 hr 23 min 33 sec) 
Heartbeat CPU 0 instructions: 139000000 cycles: 146907638 heartbeat IPC: 0.696915 cumulative IPC: 0.701165 (Simulation time: 1 hr 23 min 58 sec) 
Heartbeat CPU 0 instructions: 140000000 cycles: 148362591 heartbeat IPC: 0.687307 cumulative IPC: 0.701008 (Simulation time: 1 hr 24 min 24 sec) 
Heartbeat CPU 0 instructions: 141000001 cycles: 149847788 heartbeat IPC: 0.673312 cumulative IPC: 0.700691 (Simulation time: 1 hr 24 min 48 sec) 
Heartbeat CPU 0 instructions: 142000003 cycles: 151199004 heartbeat IPC: 0.740076 cumulative IPC: 0.701097 (Simulation time: 1 hr 25 min 11 sec) 
Heartbeat CPU 0 instructions: 143000003 cycles: 152579209 heartbeat IPC: 0.72453 cumulative IPC: 0.70134 (Simulation time: 1 hr 25 min 35 sec) 
Heartbeat CPU 0 instructions: 144000000 cycles: 154032629 heartbeat IPC: 0.68803 cumulative IPC: 0.701196 (Simulation time: 1 hr 25 min 58 sec) 
Heartbeat CPU 0 instructions: 145000002 cycles: 155421333 heartbeat IPC: 0.720097 cumulative IPC: 0.70139 (Simulation time: 1 hr 26 min 20 sec) 
Heartbeat CPU 0 instructions: 146000000 cycles: 156770435 heartbeat IPC: 0.741232 cumulative IPC: 0.701783 (Simulation time: 1 hr 26 min 42 sec) 
Heartbeat CPU 0 instructions: 147000000 cycles: 158201115 heartbeat IPC: 0.698968 cumulative IPC: 0.701754 (Simulation time: 1 hr 27 min 4 sec) 
Heartbeat CPU 0 instructions: 148000000 cycles: 159689120 heartbeat IPC: 0.672041 cumulative IPC: 0.701437 (Simulation time: 1 hr 27 min 26 sec) 
Heartbeat CPU 0 instructions: 149000001 cycles: 161114019 heartbeat IPC: 0.701805 cumulative IPC: 0.701441 (Simulation time: 1 hr 27 min 47 sec) 
Heartbeat CPU 0 instructions: 150000003 cycles: 162497713 heartbeat IPC: 0.722705 cumulative IPC: 0.701647 (Simulation time: 1 hr 28 min 8 sec) 
Finished CPU 0 instructions: 100000000 cycles: 142521726 cummulative IPC: 0.701647 (Simulation time: 1 hr 28 min 8 sec) 

ChampSim completed all CPUs

Region of Interest Statistics

CPU 0 cummulative IPC: 0.701647 instructions: 100000000 cycles: 142521726
LLC TOTAL     ACCESS:    5311601  HIT:    1750931  MISS:    3560670
LLC LOAD      ACCESS:     371752  HIT:      13299  MISS:     358453
LLC RFO       ACCESS:    2270815  HIT:     614864  MISS:    1655951
LLC PREFETCH  ACCESS:     398277  HIT:      16936  MISS:     381341
LLC WRITEBACK ACCESS:    2270757  HIT:    1105832  MISS:    1164925
OPTgen accesses: 63495
OPTgen hits: 20868
OPTgen hit rate: 32.8656


