
*** ChampSim Multicore Out-of-Order Simulator ***

Warmup Instructions: 50000000
Simulation Instructions: 100000000
Configuration: 2
Number of CPUs: 1
LLC sets: 2048
LLC ways: 16
Off-chip DRAM Channels: 1 Width: 64-bit Data Rate: 1600 MT/s

CPU 0 runs /datasets/cs240c-wi22-a00-public/data/Assignment2-gz/libquantum_1210B.trace.gz
CPU 0 L1D next line prefetcher
CPU 0 L2C IP-based stride prefetcher
Initialize Hawkeye state
Heartbeat CPU 0 instructions: 1000003 cycles: 314916 heartbeat IPC: 3.17546 cumulative IPC: 3.17546 (Simulation time: 0 hr 0 min 22 sec) 
Heartbeat CPU 0 instructions: 2000000 cycles: 630170 heartbeat IPC: 3.17204 cumulative IPC: 3.17375 (Simulation time: 0 hr 0 min 45 sec) 
Heartbeat CPU 0 instructions: 3000001 cycles: 945979 heartbeat IPC: 3.16647 cumulative IPC: 3.17132 (Simulation time: 0 hr 1 min 7 sec) 
Heartbeat CPU 0 instructions: 4000000 cycles: 1260333 heartbeat IPC: 3.18112 cumulative IPC: 3.17376 (Simulation time: 0 hr 1 min 30 sec) 
Heartbeat CPU 0 instructions: 5000001 cycles: 1576818 heartbeat IPC: 3.15971 cumulative IPC: 3.17094 (Simulation time: 0 hr 1 min 53 sec) 
Heartbeat CPU 0 instructions: 6000002 cycles: 1891318 heartbeat IPC: 3.17965 cumulative IPC: 3.17239 (Simulation time: 0 hr 2 min 16 sec) 
Heartbeat CPU 0 instructions: 7000001 cycles: 2206981 heartbeat IPC: 3.16793 cumulative IPC: 3.17175 (Simulation time: 0 hr 2 min 39 sec) 
Heartbeat CPU 0 instructions: 8000000 cycles: 2522385 heartbeat IPC: 3.17053 cumulative IPC: 3.1716 (Simulation time: 0 hr 3 min 2 sec) 
Heartbeat CPU 0 instructions: 9000002 cycles: 2837144 heartbeat IPC: 3.17704 cumulative IPC: 3.1722 (Simulation time: 0 hr 3 min 24 sec) 
Heartbeat CPU 0 instructions: 10000003 cycles: 3153454 heartbeat IPC: 3.16146 cumulative IPC: 3.17113 (Simulation time: 0 hr 3 min 45 sec) 
Heartbeat CPU 0 instructions: 11000001 cycles: 3467723 heartbeat IPC: 3.18198 cumulative IPC: 3.17211 (Simulation time: 0 hr 4 min 8 sec) 
Heartbeat CPU 0 instructions: 12000000 cycles: 3783792 heartbeat IPC: 3.16386 cumulative IPC: 3.17142 (Simulation time: 0 hr 4 min 31 sec) 
Heartbeat CPU 0 instructions: 13000003 cycles: 4264651 heartbeat IPC: 2.07962 cumulative IPC: 3.04832 (Simulation time: 0 hr 4 min 58 sec) 
Heartbeat CPU 0 instructions: 14000001 cycles: 4772750 heartbeat IPC: 1.96812 cumulative IPC: 2.93332 (Simulation time: 0 hr 5 min 28 sec) 
Heartbeat CPU 0 instructions: 15000001 cycles: 5279404 heartbeat IPC: 1.97373 cumulative IPC: 2.84123 (Simulation time: 0 hr 5 min 57 sec) 
Heartbeat CPU 0 instructions: 16000000 cycles: 5788628 heartbeat IPC: 1.96377 cumulative IPC: 2.76404 (Simulation time: 0 hr 6 min 26 sec) 
Heartbeat CPU 0 instructions: 17000000 cycles: 6300340 heartbeat IPC: 1.95422 cumulative IPC: 2.69827 (Simulation time: 0 hr 6 min 57 sec) 
Heartbeat CPU 0 instructions: 18000000 cycles: 6813181 heartbeat IPC: 1.94992 cumulative IPC: 2.64194 (Simulation time: 0 hr 7 min 32 sec) 
Heartbeat CPU 0 instructions: 19000000 cycles: 7329886 heartbeat IPC: 1.93534 cumulative IPC: 2.59213 (Simulation time: 0 hr 8 min 2 sec) 
Heartbeat CPU 0 instructions: 20000000 cycles: 7838604 heartbeat IPC: 1.96573 cumulative IPC: 2.55147 (Simulation time: 0 hr 8 min 33 sec) 
Heartbeat CPU 0 instructions: 21000000 cycles: 8346694 heartbeat IPC: 1.96816 cumulative IPC: 2.51597 (Simulation time: 0 hr 9 min 2 sec) 
Heartbeat CPU 0 instructions: 22000003 cycles: 8854702 heartbeat IPC: 1.96848 cumulative IPC: 2.48456 (Simulation time: 0 hr 9 min 30 sec) 
Heartbeat CPU 0 instructions: 23000000 cycles: 9359706 heartbeat IPC: 1.98018 cumulative IPC: 2.45734 (Simulation time: 0 hr 10 min 1 sec) 
Heartbeat CPU 0 instructions: 24000000 cycles: 9870274 heartbeat IPC: 1.9586 cumulative IPC: 2.43154 (Simulation time: 0 hr 10 min 30 sec) 
Heartbeat CPU 0 instructions: 25000000 cycles: 10381727 heartbeat IPC: 1.95521 cumulative IPC: 2.40808 (Simulation time: 0 hr 11 min 2 sec) 
Heartbeat CPU 0 instructions: 26000000 cycles: 10894380 heartbeat IPC: 1.95064 cumulative IPC: 2.38655 (Simulation time: 0 hr 11 min 34 sec) 
Heartbeat CPU 0 instructions: 27000000 cycles: 11402733 heartbeat IPC: 1.96714 cumulative IPC: 2.36785 (Simulation time: 0 hr 12 min 3 sec) 
Heartbeat CPU 0 instructions: 28000000 cycles: 11888716 heartbeat IPC: 2.05769 cumulative IPC: 2.35517 (Simulation time: 0 hr 12 min 32 sec) 
Heartbeat CPU 0 instructions: 29000002 cycles: 12228025 heartbeat IPC: 2.94717 cumulative IPC: 2.3716 (Simulation time: 0 hr 12 min 58 sec) 
Heartbeat CPU 0 instructions: 30000001 cycles: 12567434 heartbeat IPC: 2.94629 cumulative IPC: 2.38712 (Simulation time: 0 hr 13 min 24 sec) 
Heartbeat CPU 0 instructions: 31000000 cycles: 12906848 heartbeat IPC: 2.94625 cumulative IPC: 2.40183 (Simulation time: 0 hr 13 min 51 sec) 
Heartbeat CPU 0 instructions: 32000000 cycles: 13246253 heartbeat IPC: 2.94633 cumulative IPC: 2.41578 (Simulation time: 0 hr 14 min 16 sec) 
Heartbeat CPU 0 instructions: 33000000 cycles: 13585663 heartbeat IPC: 2.94629 cumulative IPC: 2.42903 (Simulation time: 0 hr 14 min 40 sec) 
Heartbeat CPU 0 instructions: 34000002 cycles: 13925073 heartbeat IPC: 2.9463 cumulative IPC: 2.44164 (Simulation time: 0 hr 15 min 6 sec) 
Heartbeat CPU 0 instructions: 35000001 cycles: 14264485 heartbeat IPC: 2.94627 cumulative IPC: 2.45365 (Simulation time: 0 hr 15 min 33 sec) 
Heartbeat CPU 0 instructions: 36000000 cycles: 14603662 heartbeat IPC: 2.94831 cumulative IPC: 2.46514 (Simulation time: 0 hr 15 min 59 sec) 
Heartbeat CPU 0 instructions: 37000003 cycles: 14943006 heartbeat IPC: 2.94687 cumulative IPC: 2.47607 (Simulation time: 0 hr 16 min 25 sec) 
Heartbeat CPU 0 instructions: 38000002 cycles: 15282415 heartbeat IPC: 2.94629 cumulative IPC: 2.48652 (Simulation time: 0 hr 16 min 49 sec) 
Heartbeat CPU 0 instructions: 39000001 cycles: 15621824 heartbeat IPC: 2.94629 cumulative IPC: 2.49651 (Simulation time: 0 hr 17 min 14 sec) 
Heartbeat CPU 0 instructions: 40000000 cycles: 15961233 heartbeat IPC: 2.94629 cumulative IPC: 2.50607 (Simulation time: 0 hr 17 min 40 sec) 
Heartbeat CPU 0 instructions: 41000001 cycles: 16300645 heartbeat IPC: 2.94627 cumulative IPC: 2.51524 (Simulation time: 0 hr 18 min 8 sec) 
Heartbeat CPU 0 instructions: 42000000 cycles: 16640054 heartbeat IPC: 2.94629 cumulative IPC: 2.52403 (Simulation time: 0 hr 18 min 33 sec) 
Heartbeat CPU 0 instructions: 43000002 cycles: 16979464 heartbeat IPC: 2.9463 cumulative IPC: 2.53247 (Simulation time: 0 hr 19 min 0 sec) 
Heartbeat CPU 0 instructions: 44000000 cycles: 17318873 heartbeat IPC: 2.94629 cumulative IPC: 2.54058 (Simulation time: 0 hr 19 min 26 sec) 
Heartbeat CPU 0 instructions: 45000000 cycles: 17658282 heartbeat IPC: 2.9463 cumulative IPC: 2.54838 (Simulation time: 0 hr 19 min 52 sec) 
Heartbeat CPU 0 instructions: 46000003 cycles: 17997692 heartbeat IPC: 2.9463 cumulative IPC: 2.55588 (Simulation time: 0 hr 20 min 17 sec) 
Heartbeat CPU 0 instructions: 47000001 cycles: 18375968 heartbeat IPC: 2.64357 cumulative IPC: 2.55769 (Simulation time: 0 hr 20 min 45 sec) 
Heartbeat CPU 0 instructions: 48000000 cycles: 18872115 heartbeat IPC: 2.01553 cumulative IPC: 2.54344 (Simulation time: 0 hr 21 min 16 sec) 
Heartbeat CPU 0 instructions: 49000000 cycles: 19364909 heartbeat IPC: 2.02925 cumulative IPC: 2.53035 (Simulation time: 0 hr 21 min 46 sec) 
Heartbeat CPU 0 instructions: 50000001 cycles: 19865544 heartbeat IPC: 1.99747 cumulative IPC: 2.51692 (Simulation time: 0 hr 22 min 14 sec) 

Warmup complete CPU 0 instructions: 50000001 cycles: 19865544 (Simulation time: 0 hr 22 min 14 sec) 

Heartbeat CPU 0 instructions: 51000000 cycles: 22160830 heartbeat IPC: 0.435675 cumulative IPC: 0.435675 (Simulation time: 0 hr 22 min 58 sec) 
Heartbeat CPU 0 instructions: 52000000 cycles: 24485427 heartbeat IPC: 0.430182 cumulative IPC: 0.432911 (Simulation time: 0 hr 23 min 38 sec) 
Heartbeat CPU 0 instructions: 53000003 cycles: 26778594 heartbeat IPC: 0.436079 cumulative IPC: 0.433962 (Simulation time: 0 hr 24 min 18 sec) 
Heartbeat CPU 0 instructions: 54000003 cycles: 29029463 heartbeat IPC: 0.444273 cumulative IPC: 0.436495 (Simulation time: 0 hr 24 min 58 sec) 
Heartbeat CPU 0 instructions: 55000002 cycles: 31327498 heartbeat IPC: 0.435154 cumulative IPC: 0.436226 (Simulation time: 0 hr 25 min 41 sec) 
Heartbeat CPU 0 instructions: 56000000 cycles: 33645854 heartbeat IPC: 0.431339 cumulative IPC: 0.435404 (Simulation time: 0 hr 26 min 22 sec) 
Heartbeat CPU 0 instructions: 57000001 cycles: 35965559 heartbeat IPC: 0.43109 cumulative IPC: 0.434782 (Simulation time: 0 hr 27 min 2 sec) 
Heartbeat CPU 0 instructions: 58000000 cycles: 38272370 heartbeat IPC: 0.433498 cumulative IPC: 0.434621 (Simulation time: 0 hr 27 min 41 sec) 
Heartbeat CPU 0 instructions: 59000000 cycles: 40575884 heartbeat IPC: 0.434119 cumulative IPC: 0.434565 (Simulation time: 0 hr 28 min 22 sec) 
Heartbeat CPU 0 instructions: 60000000 cycles: 42868533 heartbeat IPC: 0.436177 cumulative IPC: 0.434726 (Simulation time: 0 hr 29 min 1 sec) 
Heartbeat CPU 0 instructions: 61000001 cycles: 45181460 heartbeat IPC: 0.432353 cumulative IPC: 0.434509 (Simulation time: 0 hr 29 min 39 sec) 
Heartbeat CPU 0 instructions: 62000000 cycles: 47490524 heartbeat IPC: 0.433075 cumulative IPC: 0.434389 (Simulation time: 0 hr 30 min 19 sec) 
Heartbeat CPU 0 instructions: 63000001 cycles: 49571869 heartbeat IPC: 0.480459 cumulative IPC: 0.437617 (Simulation time: 0 hr 30 min 55 sec) 
Heartbeat CPU 0 instructions: 64000000 cycles: 51711620 heartbeat IPC: 0.467344 cumulative IPC: 0.439615 (Simulation time: 0 hr 31 min 31 sec) 
Heartbeat CPU 0 instructions: 65000000 cycles: 53823870 heartbeat IPC: 0.473429 cumulative IPC: 0.441718 (Simulation time: 0 hr 32 min 6 sec) 
Heartbeat CPU 0 instructions: 66000001 cycles: 55782127 heartbeat IPC: 0.510659 cumulative IPC: 0.445477 (Simulation time: 0 hr 32 min 42 sec) 
Heartbeat CPU 0 instructions: 67000000 cycles: 57303667 heartbeat IPC: 0.657228 cumulative IPC: 0.454083 (Simulation time: 0 hr 33 min 16 sec) 
Heartbeat CPU 0 instructions: 68000000 cycles: 59440262 heartbeat IPC: 0.468034 cumulative IPC: 0.454836 (Simulation time: 0 hr 33 min 54 sec) 
Heartbeat CPU 0 instructions: 69000002 cycles: 61585821 heartbeat IPC: 0.46608 cumulative IPC: 0.455414 (Simulation time: 0 hr 34 min 33 sec) 
Heartbeat CPU 0 instructions: 70000001 cycles: 63723047 heartbeat IPC: 0.467896 cumulative IPC: 0.456022 (Simulation time: 0 hr 35 min 8 sec) 
Heartbeat CPU 0 instructions: 71000000 cycles: 65839812 heartbeat IPC: 0.472419 cumulative IPC: 0.456777 (Simulation time: 0 hr 35 min 46 sec) 
Heartbeat CPU 0 instructions: 72000000 cycles: 67934815 heartbeat IPC: 0.477326 cumulative IPC: 0.457673 (Simulation time: 0 hr 36 min 25 sec) 
Heartbeat CPU 0 instructions: 73000002 cycles: 70092230 heartbeat IPC: 0.463519 cumulative IPC: 0.457924 (Simulation time: 0 hr 37 min 0 sec) 
Heartbeat CPU 0 instructions: 74000002 cycles: 72207659 heartbeat IPC: 0.472717 cumulative IPC: 0.458522 (Simulation time: 0 hr 37 min 36 sec) 
Heartbeat CPU 0 instructions: 75000001 cycles: 74349823 heartbeat IPC: 0.466817 cumulative IPC: 0.458848 (Simulation time: 0 hr 38 min 10 sec) 
Heartbeat CPU 0 instructions: 76000000 cycles: 76490336 heartbeat IPC: 0.467177 cumulative IPC: 0.459163 (Simulation time: 0 hr 38 min 46 sec) 
Heartbeat CPU 0 instructions: 77000000 cycles: 78602978 heartbeat IPC: 0.473341 cumulative IPC: 0.459673 (Simulation time: 0 hr 39 min 23 sec) 
Heartbeat CPU 0 instructions: 78000002 cycles: 80769246 heartbeat IPC: 0.461624 cumulative IPC: 0.459742 (Simulation time: 0 hr 39 min 58 sec) 
Heartbeat CPU 0 instructions: 79000001 cycles: 82884939 heartbeat IPC: 0.472658 cumulative IPC: 0.460176 (Simulation time: 0 hr 40 min 33 sec) 
Heartbeat CPU 0 instructions: 80000000 cycles: 85053690 heartbeat IPC: 0.461094 cumulative IPC: 0.460206 (Simulation time: 0 hr 41 min 8 sec) 
Heartbeat CPU 0 instructions: 81000000 cycles: 87181048 heartbeat IPC: 0.470067 cumulative IPC: 0.460518 (Simulation time: 0 hr 41 min 41 sec) 
Heartbeat CPU 0 instructions: 82000000 cycles: 89320212 heartbeat IPC: 0.467472 cumulative IPC: 0.460732 (Simulation time: 0 hr 42 min 17 sec) 
Heartbeat CPU 0 instructions: 83000001 cycles: 91568343 heartbeat IPC: 0.444814 cumulative IPC: 0.460233 (Simulation time: 0 hr 42 min 53 sec) 
Heartbeat CPU 0 instructions: 84000000 cycles: 94068160 heartbeat IPC: 0.400029 cumulative IPC: 0.458205 (Simulation time: 0 hr 43 min 31 sec) 
Heartbeat CPU 0 instructions: 85000001 cycles: 96485309 heartbeat IPC: 0.413711 cumulative IPC: 0.456801 (Simulation time: 0 hr 44 min 10 sec) 
Heartbeat CPU 0 instructions: 86000001 cycles: 98295810 heartbeat IPC: 0.552333 cumulative IPC: 0.459006 (Simulation time: 0 hr 44 min 44 sec) 
Heartbeat CPU 0 instructions: 87000003 cycles: 100788159 heartbeat IPC: 0.401229 cumulative IPC: 0.457227 (Simulation time: 0 hr 45 min 22 sec) 
Heartbeat CPU 0 instructions: 88000000 cycles: 103300629 heartbeat IPC: 0.398014 cumulative IPC: 0.455444 (Simulation time: 0 hr 45 min 59 sec) 
Heartbeat CPU 0 instructions: 89000001 cycles: 105779118 heartbeat IPC: 0.403472 cumulative IPC: 0.453945 (Simulation time: 0 hr 46 min 35 sec) 
Heartbeat CPU 0 instructions: 90000000 cycles: 108256434 heartbeat IPC: 0.403662 cumulative IPC: 0.452535 (Simulation time: 0 hr 47 min 15 sec) 
Heartbeat CPU 0 instructions: 91000002 cycles: 110746093 heartbeat IPC: 0.401662 cumulative IPC: 0.451142 (Simulation time: 0 hr 47 min 53 sec) 
Heartbeat CPU 0 instructions: 92000000 cycles: 113222159 heartbeat IPC: 0.403866 cumulative IPC: 0.449888 (Simulation time: 0 hr 48 min 30 sec) 
Heartbeat CPU 0 instructions: 93000003 cycles: 115718830 heartbeat IPC: 0.400535 cumulative IPC: 0.448602 (Simulation time: 0 hr 49 min 8 sec) 
Heartbeat CPU 0 instructions: 94000000 cycles: 118211519 heartbeat IPC: 0.401172 cumulative IPC: 0.4474 (Simulation time: 0 hr 49 min 44 sec) 
Heartbeat CPU 0 instructions: 95000002 cycles: 120723170 heartbeat IPC: 0.398145 cumulative IPC: 0.446174 (Simulation time: 0 hr 50 min 19 sec) 
Heartbeat CPU 0 instructions: 96000000 cycles: 123243049 heartbeat IPC: 0.396844 cumulative IPC: 0.444971 (Simulation time: 0 hr 51 min 0 sec) 
Heartbeat CPU 0 instructions: 97000001 cycles: 125762753 heartbeat IPC: 0.396872 cumulative IPC: 0.443827 (Simulation time: 0 hr 51 min 38 sec) 
Heartbeat CPU 0 instructions: 98000002 cycles: 128265769 heartbeat IPC: 0.399518 cumulative IPC: 0.442804 (Simulation time: 0 hr 52 min 14 sec) 
Heartbeat CPU 0 instructions: 99000002 cycles: 129794591 heartbeat IPC: 0.654098 cumulative IPC: 0.445742 (Simulation time: 0 hr 52 min 51 sec) 
Heartbeat CPU 0 instructions: 100000000 cycles: 131221257 heartbeat IPC: 0.700934 cumulative IPC: 0.449012 (Simulation time: 0 hr 53 min 28 sec) 
Heartbeat CPU 0 instructions: 101000000 cycles: 132638825 heartbeat IPC: 0.705434 cumulative IPC: 0.452235 (Simulation time: 0 hr 54 min 5 sec) 
Heartbeat CPU 0 instructions: 102000003 cycles: 133679091 heartbeat IPC: 0.961295 cumulative IPC: 0.456888 (Simulation time: 0 hr 54 min 40 sec) 
Heartbeat CPU 0 instructions: 103000002 cycles: 135061351 heartbeat IPC: 0.723452 cumulative IPC: 0.460086 (Simulation time: 0 hr 55 min 15 sec) 
Heartbeat CPU 0 instructions: 104000000 cycles: 136483262 heartbeat IPC: 0.703277 cumulative IPC: 0.463051 (Simulation time: 0 hr 55 min 49 sec) 
Heartbeat CPU 0 instructions: 105000000 cycles: 137909976 heartbeat IPC: 0.700911 cumulative IPC: 0.465926 (Simulation time: 0 hr 56 min 25 sec) 
Heartbeat CPU 0 instructions: 106000001 cycles: 139329203 heartbeat IPC: 0.70461 cumulative IPC: 0.468762 (Simulation time: 0 hr 56 min 59 sec) 
Heartbeat CPU 0 instructions: 107000000 cycles: 140743836 heartbeat IPC: 0.706896 cumulative IPC: 0.471549 (Simulation time: 0 hr 57 min 32 sec) 
Heartbeat CPU 0 instructions: 108000000 cycles: 142170501 heartbeat IPC: 0.700935 cumulative IPC: 0.474224 (Simulation time: 0 hr 58 min 8 sec) 
Heartbeat CPU 0 instructions: 109000001 cycles: 143595652 heartbeat IPC: 0.701681 cumulative IPC: 0.476844 (Simulation time: 0 hr 58 min 44 sec) 
Heartbeat CPU 0 instructions: 110000000 cycles: 145022244 heartbeat IPC: 0.700971 cumulative IPC: 0.479399 (Simulation time: 0 hr 59 min 20 sec) 
Heartbeat CPU 0 instructions: 111000001 cycles: 146448844 heartbeat IPC: 0.700968 cumulative IPC: 0.481896 (Simulation time: 0 hr 59 min 57 sec) 
Heartbeat CPU 0 instructions: 112000000 cycles: 147865352 heartbeat IPC: 0.705961 cumulative IPC: 0.484376 (Simulation time: 1 hr 0 min 31 sec) 
Heartbeat CPU 0 instructions: 113000001 cycles: 149292083 heartbeat IPC: 0.700904 cumulative IPC: 0.486763 (Simulation time: 1 hr 1 min 6 sec) 
Heartbeat CPU 0 instructions: 114000000 cycles: 150718864 heartbeat IPC: 0.700878 cumulative IPC: 0.489097 (Simulation time: 1 hr 1 min 41 sec) 
Heartbeat CPU 0 instructions: 115000000 cycles: 152145455 heartbeat IPC: 0.700972 cumulative IPC: 0.491382 (Simulation time: 1 hr 2 min 16 sec) 
Heartbeat CPU 0 instructions: 116000000 cycles: 153572046 heartbeat IPC: 0.700972 cumulative IPC: 0.493618 (Simulation time: 1 hr 2 min 52 sec) 
Heartbeat CPU 0 instructions: 117000000 cycles: 154997376 heartbeat IPC: 0.701592 cumulative IPC: 0.495812 (Simulation time: 1 hr 3 min 28 sec) 
Heartbeat CPU 0 instructions: 118000000 cycles: 157142189 heartbeat IPC: 0.466241 cumulative IPC: 0.49535 (Simulation time: 1 hr 4 min 6 sec) 
Heartbeat CPU 0 instructions: 119000000 cycles: 159429151 heartbeat IPC: 0.437261 cumulative IPC: 0.494398 (Simulation time: 1 hr 4 min 44 sec) 
Heartbeat CPU 0 instructions: 120000000 cycles: 161386328 heartbeat IPC: 0.51094 cumulative IPC: 0.494627 (Simulation time: 1 hr 5 min 20 sec) 
Heartbeat CPU 0 instructions: 121000003 cycles: 163397580 heartbeat IPC: 0.497204 cumulative IPC: 0.494663 (Simulation time: 1 hr 5 min 56 sec) 
Heartbeat CPU 0 instructions: 122000000 cycles: 165704782 heartbeat IPC: 0.433424 cumulative IPC: 0.493694 (Simulation time: 1 hr 6 min 35 sec) 
Heartbeat CPU 0 instructions: 123000001 cycles: 168018790 heartbeat IPC: 0.432151 cumulative IPC: 0.492733 (Simulation time: 1 hr 7 min 16 sec) 
Heartbeat CPU 0 instructions: 124000000 cycles: 170272217 heartbeat IPC: 0.443768 cumulative IPC: 0.491999 (Simulation time: 1 hr 7 min 57 sec) 
Heartbeat CPU 0 instructions: 125000001 cycles: 172570724 heartbeat IPC: 0.435065 cumulative IPC: 0.491142 (Simulation time: 1 hr 8 min 36 sec) 
Heartbeat CPU 0 instructions: 126000001 cycles: 174878002 heartbeat IPC: 0.433411 cumulative IPC: 0.490283 (Simulation time: 1 hr 9 min 10 sec) 
Heartbeat CPU 0 instructions: 127000003 cycles: 177184737 heartbeat IPC: 0.433514 cumulative IPC: 0.489451 (Simulation time: 1 hr 9 min 49 sec) 
Heartbeat CPU 0 instructions: 128000000 cycles: 179506514 heartbeat IPC: 0.430703 cumulative IPC: 0.488596 (Simulation time: 1 hr 10 min 24 sec) 
Heartbeat CPU 0 instructions: 129000002 cycles: 181801359 heartbeat IPC: 0.43576 cumulative IPC: 0.487848 (Simulation time: 1 hr 11 min 1 sec) 
Heartbeat CPU 0 instructions: 130000002 cycles: 184102360 heartbeat IPC: 0.434593 cumulative IPC: 0.487101 (Simulation time: 1 hr 11 min 35 sec) 
Heartbeat CPU 0 instructions: 131000002 cycles: 186408022 heartbeat IPC: 0.433715 cumulative IPC: 0.486362 (Simulation time: 1 hr 12 min 12 sec) 
Heartbeat CPU 0 instructions: 132000000 cycles: 188730796 heartbeat IPC: 0.430519 cumulative IPC: 0.485594 (Simulation time: 1 hr 12 min 48 sec) 
Heartbeat CPU 0 instructions: 133000000 cycles: 190737177 heartbeat IPC: 0.49841 cumulative IPC: 0.485745 (Simulation time: 1 hr 13 min 19 sec) 
Heartbeat CPU 0 instructions: 134000003 cycles: 192240372 heartbeat IPC: 0.665252 cumulative IPC: 0.48731 (Simulation time: 1 hr 13 min 53 sec) 
Heartbeat CPU 0 instructions: 135000002 cycles: 193739134 heartbeat IPC: 0.667217 cumulative IPC: 0.488861 (Simulation time: 1 hr 14 min 24 sec) 
Heartbeat CPU 0 instructions: 136000000 cycles: 195145070 heartbeat IPC: 0.711268 cumulative IPC: 0.490645 (Simulation time: 1 hr 14 min 56 sec) 
Heartbeat CPU 0 instructions: 137000000 cycles: 196255455 heartbeat IPC: 0.900589 cumulative IPC: 0.493225 (Simulation time: 1 hr 15 min 24 sec) 
Heartbeat CPU 0 instructions: 138000001 cycles: 197760240 heartbeat IPC: 0.664547 cumulative IPC: 0.494675 (Simulation time: 1 hr 15 min 54 sec) 
Heartbeat CPU 0 instructions: 139000000 cycles: 199270160 heartbeat IPC: 0.662286 cumulative IPC: 0.496085 (Simulation time: 1 hr 16 min 30 sec) 
Heartbeat CPU 0 instructions: 140000000 cycles: 200779167 heartbeat IPC: 0.662687 cumulative IPC: 0.497475 (Simulation time: 1 hr 17 min 2 sec) 
Heartbeat CPU 0 instructions: 141000001 cycles: 202216934 heartbeat IPC: 0.695524 cumulative IPC: 0.499036 (Simulation time: 1 hr 17 min 32 sec) 
Heartbeat CPU 0 instructions: 142000000 cycles: 203724629 heartbeat IPC: 0.663263 cumulative IPC: 0.500383 (Simulation time: 1 hr 18 min 4 sec) 
Heartbeat CPU 0 instructions: 143000003 cycles: 205232396 heartbeat IPC: 0.663234 cumulative IPC: 0.501708 (Simulation time: 1 hr 18 min 33 sec) 
Heartbeat CPU 0 instructions: 144000000 cycles: 206742388 heartbeat IPC: 0.662253 cumulative IPC: 0.503005 (Simulation time: 1 hr 19 min 1 sec) 
Heartbeat CPU 0 instructions: 145000001 cycles: 208252430 heartbeat IPC: 0.662234 cumulative IPC: 0.504281 (Simulation time: 1 hr 19 min 30 sec) 
Heartbeat CPU 0 instructions: 146000000 cycles: 209762350 heartbeat IPC: 0.662286 cumulative IPC: 0.505538 (Simulation time: 1 hr 19 min 57 sec) 
Heartbeat CPU 0 instructions: 147000001 cycles: 211260447 heartbeat IPC: 0.667514 cumulative IPC: 0.506806 (Simulation time: 1 hr 20 min 27 sec) 
Heartbeat CPU 0 instructions: 148000000 cycles: 212770439 heartbeat IPC: 0.662255 cumulative IPC: 0.508022 (Simulation time: 1 hr 20 min 55 sec) 
Heartbeat CPU 0 instructions: 149000002 cycles: 214280483 heartbeat IPC: 0.662234 cumulative IPC: 0.50922 (Simulation time: 1 hr 21 min 25 sec) 
Heartbeat CPU 0 instructions: 150000001 cycles: 215790403 heartbeat IPC: 0.662286 cumulative IPC: 0.5104 (Simulation time: 1 hr 21 min 54 sec) 
Finished CPU 0 instructions: 100000000 cycles: 195924859 cummulative IPC: 0.5104 (Simulation time: 1 hr 21 min 54 sec) 

ChampSim completed all CPUs

Region of Interest Statistics

CPU 0 cummulative IPC: 0.5104 instructions: 100000000 cycles: 195924859
LLC TOTAL     ACCESS:    3948315  HIT:     247245  MISS:    3701070
LLC LOAD      ACCESS:     889558  HIT:      43666  MISS:     845892
LLC RFO       ACCESS:         21  HIT:         21  MISS:          0
LLC PREFETCH  ACCESS:    2104346  HIT:     111926  MISS:    1992420
LLC WRITEBACK ACCESS:     954390  HIT:      91632  MISS:     862758
OPTgen accesses: 15141
OPTgen hits: 170
OPTgen hit rate: 1.12278


