
*** ChampSim Multicore Out-of-Order Simulator ***

Warmup Instructions: 50000000
Simulation Instructions: 100000000
Configuration: 2
Number of CPUs: 1
LLC sets: 2048
LLC ways: 16
Off-chip DRAM Channels: 1 Width: 64-bit Data Rate: 1600 MT/s

CPU 0 runs /datasets/cs240c-wi22-a00-public/data/Assignment2-gz/milc_409B.trace.gz
CPU 0 L1D next line prefetcher
CPU 0 L2C IP-based stride prefetcher
Initialize Hawkeye state
Heartbeat CPU 0 instructions: 1000002 cycles: 407040 heartbeat IPC: 2.45677 cumulative IPC: 2.45677 (Simulation time: 0 hr 0 min 37 sec) 
Heartbeat CPU 0 instructions: 2000002 cycles: 889868 heartbeat IPC: 2.07113 cumulative IPC: 2.24753 (Simulation time: 0 hr 1 min 16 sec) 
Heartbeat CPU 0 instructions: 3000003 cycles: 1672035 heartbeat IPC: 1.2785 cumulative IPC: 1.79422 (Simulation time: 0 hr 2 min 7 sec) 
Heartbeat CPU 0 instructions: 4000000 cycles: 2454292 heartbeat IPC: 1.27835 cumulative IPC: 1.6298 (Simulation time: 0 hr 2 min 57 sec) 
Heartbeat CPU 0 instructions: 5000000 cycles: 3135413 heartbeat IPC: 1.46817 cumulative IPC: 1.59469 (Simulation time: 0 hr 3 min 48 sec) 
Heartbeat CPU 0 instructions: 6000003 cycles: 3679805 heartbeat IPC: 1.83692 cumulative IPC: 1.63052 (Simulation time: 0 hr 4 min 33 sec) 
Heartbeat CPU 0 instructions: 7000002 cycles: 4224111 heartbeat IPC: 1.8372 cumulative IPC: 1.65715 (Simulation time: 0 hr 5 min 13 sec) 
Heartbeat CPU 0 instructions: 8000000 cycles: 4768519 heartbeat IPC: 1.83685 cumulative IPC: 1.67767 (Simulation time: 0 hr 5 min 56 sec) 
Heartbeat CPU 0 instructions: 9000003 cycles: 5312845 heartbeat IPC: 1.83714 cumulative IPC: 1.69401 (Simulation time: 0 hr 6 min 36 sec) 
Heartbeat CPU 0 instructions: 10000000 cycles: 5857233 heartbeat IPC: 1.83692 cumulative IPC: 1.70729 (Simulation time: 0 hr 7 min 16 sec) 
Heartbeat CPU 0 instructions: 11000002 cycles: 6401583 heartbeat IPC: 1.83706 cumulative IPC: 1.71833 (Simulation time: 0 hr 7 min 58 sec) 
Heartbeat CPU 0 instructions: 12000000 cycles: 6945918 heartbeat IPC: 1.8371 cumulative IPC: 1.72763 (Simulation time: 0 hr 8 min 39 sec) 
Heartbeat CPU 0 instructions: 13000000 cycles: 7490306 heartbeat IPC: 1.83693 cumulative IPC: 1.73558 (Simulation time: 0 hr 9 min 21 sec) 
Heartbeat CPU 0 instructions: 14000002 cycles: 8034671 heartbeat IPC: 1.83701 cumulative IPC: 1.74245 (Simulation time: 0 hr 10 min 2 sec) 
Heartbeat CPU 0 instructions: 15000001 cycles: 8578998 heartbeat IPC: 1.83713 cumulative IPC: 1.74846 (Simulation time: 0 hr 10 min 45 sec) 
Heartbeat CPU 0 instructions: 16000000 cycles: 9123372 heartbeat IPC: 1.83697 cumulative IPC: 1.75374 (Simulation time: 0 hr 11 min 24 sec) 
Heartbeat CPU 0 instructions: 17000002 cycles: 9667738 heartbeat IPC: 1.837 cumulative IPC: 1.75843 (Simulation time: 0 hr 12 min 8 sec) 
Heartbeat CPU 0 instructions: 18000000 cycles: 10212108 heartbeat IPC: 1.83698 cumulative IPC: 1.76261 (Simulation time: 0 hr 12 min 50 sec) 
Heartbeat CPU 0 instructions: 19000003 cycles: 10756428 heartbeat IPC: 1.83716 cumulative IPC: 1.76639 (Simulation time: 0 hr 13 min 34 sec) 
Heartbeat CPU 0 instructions: 20000000 cycles: 11300832 heartbeat IPC: 1.83687 cumulative IPC: 1.76978 (Simulation time: 0 hr 14 min 17 sec) 
Heartbeat CPU 0 instructions: 21000001 cycles: 11845162 heartbeat IPC: 1.83712 cumulative IPC: 1.77288 (Simulation time: 0 hr 14 min 56 sec) 
Heartbeat CPU 0 instructions: 22000003 cycles: 12389529 heartbeat IPC: 1.837 cumulative IPC: 1.77569 (Simulation time: 0 hr 15 min 39 sec) 
Heartbeat CPU 0 instructions: 23000002 cycles: 12933914 heartbeat IPC: 1.83693 cumulative IPC: 1.77827 (Simulation time: 0 hr 16 min 19 sec) 
Heartbeat CPU 0 instructions: 24000000 cycles: 13478221 heartbeat IPC: 1.83719 cumulative IPC: 1.78065 (Simulation time: 0 hr 17 min 1 sec) 
Heartbeat CPU 0 instructions: 25000000 cycles: 14022617 heartbeat IPC: 1.8369 cumulative IPC: 1.78283 (Simulation time: 0 hr 17 min 44 sec) 
Heartbeat CPU 0 instructions: 26000000 cycles: 14566991 heartbeat IPC: 1.83697 cumulative IPC: 1.78486 (Simulation time: 0 hr 18 min 26 sec) 
Heartbeat CPU 0 instructions: 27000002 cycles: 15111313 heartbeat IPC: 1.83715 cumulative IPC: 1.78674 (Simulation time: 0 hr 19 min 10 sec) 
Heartbeat CPU 0 instructions: 28000000 cycles: 15655448 heartbeat IPC: 1.83778 cumulative IPC: 1.78851 (Simulation time: 0 hr 19 min 50 sec) 
Heartbeat CPU 0 instructions: 29000000 cycles: 16196638 heartbeat IPC: 1.84778 cumulative IPC: 1.7905 (Simulation time: 0 hr 20 min 31 sec) 
Heartbeat CPU 0 instructions: 30000000 cycles: 16737803 heartbeat IPC: 1.84787 cumulative IPC: 1.79235 (Simulation time: 0 hr 21 min 13 sec) 
Heartbeat CPU 0 instructions: 31000003 cycles: 17278974 heartbeat IPC: 1.84785 cumulative IPC: 1.79409 (Simulation time: 0 hr 21 min 54 sec) 
Heartbeat CPU 0 instructions: 32000000 cycles: 17820134 heartbeat IPC: 1.84788 cumulative IPC: 1.79572 (Simulation time: 0 hr 22 min 34 sec) 
Heartbeat CPU 0 instructions: 33000000 cycles: 18361312 heartbeat IPC: 1.84782 cumulative IPC: 1.79726 (Simulation time: 0 hr 23 min 17 sec) 
Heartbeat CPU 0 instructions: 34000000 cycles: 18902454 heartbeat IPC: 1.84794 cumulative IPC: 1.79871 (Simulation time: 0 hr 23 min 55 sec) 
Heartbeat CPU 0 instructions: 35000000 cycles: 19443597 heartbeat IPC: 1.84794 cumulative IPC: 1.80008 (Simulation time: 0 hr 24 min 36 sec) 
Heartbeat CPU 0 instructions: 36000000 cycles: 19984731 heartbeat IPC: 1.84797 cumulative IPC: 1.80138 (Simulation time: 0 hr 25 min 18 sec) 
Heartbeat CPU 0 instructions: 37000000 cycles: 20525943 heartbeat IPC: 1.8477 cumulative IPC: 1.8026 (Simulation time: 0 hr 26 min 0 sec) 
Heartbeat CPU 0 instructions: 38000001 cycles: 21067090 heartbeat IPC: 1.84793 cumulative IPC: 1.80376 (Simulation time: 0 hr 26 min 40 sec) 
Heartbeat CPU 0 instructions: 39000001 cycles: 21608246 heartbeat IPC: 1.8479 cumulative IPC: 1.80487 (Simulation time: 0 hr 27 min 22 sec) 
Heartbeat CPU 0 instructions: 40000000 cycles: 22149434 heartbeat IPC: 1.84778 cumulative IPC: 1.80592 (Simulation time: 0 hr 28 min 1 sec) 
Heartbeat CPU 0 instructions: 41000002 cycles: 22690599 heartbeat IPC: 1.84787 cumulative IPC: 1.80692 (Simulation time: 0 hr 28 min 42 sec) 
Heartbeat CPU 0 instructions: 42000001 cycles: 23231760 heartbeat IPC: 1.84788 cumulative IPC: 1.80787 (Simulation time: 0 hr 29 min 21 sec) 
Heartbeat CPU 0 instructions: 43000000 cycles: 23772903 heartbeat IPC: 1.84794 cumulative IPC: 1.80878 (Simulation time: 0 hr 30 min 1 sec) 
Heartbeat CPU 0 instructions: 44000000 cycles: 24314029 heartbeat IPC: 1.848 cumulative IPC: 1.80965 (Simulation time: 0 hr 30 min 47 sec) 
Heartbeat CPU 0 instructions: 45000001 cycles: 24855218 heartbeat IPC: 1.84779 cumulative IPC: 1.81049 (Simulation time: 0 hr 31 min 28 sec) 
Heartbeat CPU 0 instructions: 46000000 cycles: 25396381 heartbeat IPC: 1.84787 cumulative IPC: 1.81128 (Simulation time: 0 hr 32 min 6 sec) 
Heartbeat CPU 0 instructions: 47000002 cycles: 25937548 heartbeat IPC: 1.84786 cumulative IPC: 1.81204 (Simulation time: 0 hr 32 min 47 sec) 
Heartbeat CPU 0 instructions: 48000000 cycles: 26478712 heartbeat IPC: 1.84786 cumulative IPC: 1.81278 (Simulation time: 0 hr 33 min 28 sec) 
Heartbeat CPU 0 instructions: 49000002 cycles: 27019891 heartbeat IPC: 1.84782 cumulative IPC: 1.81348 (Simulation time: 0 hr 34 min 6 sec) 
Heartbeat CPU 0 instructions: 50000001 cycles: 27561034 heartbeat IPC: 1.84794 cumulative IPC: 1.81416 (Simulation time: 0 hr 34 min 43 sec) 

Warmup complete CPU 0 instructions: 50000001 cycles: 27561034 (Simulation time: 0 hr 34 min 43 sec) 

Heartbeat CPU 0 instructions: 51000002 cycles: 29216019 heartbeat IPC: 0.604236 cumulative IPC: 0.604236 (Simulation time: 0 hr 35 min 25 sec) 
Heartbeat CPU 0 instructions: 52000000 cycles: 31077564 heartbeat IPC: 0.537187 cumulative IPC: 0.568742 (Simulation time: 0 hr 36 min 13 sec) 
Heartbeat CPU 0 instructions: 53000001 cycles: 33063067 heartbeat IPC: 0.503651 cumulative IPC: 0.545253 (Simulation time: 0 hr 37 min 2 sec) 
Heartbeat CPU 0 instructions: 54000001 cycles: 35167739 heartbeat IPC: 0.475133 cumulative IPC: 0.525852 (Simulation time: 0 hr 37 min 53 sec) 
Heartbeat CPU 0 instructions: 55000002 cycles: 37466842 heartbeat IPC: 0.434953 cumulative IPC: 0.504754 (Simulation time: 0 hr 38 min 47 sec) 
Heartbeat CPU 0 instructions: 56000000 cycles: 39798582 heartbeat IPC: 0.428863 cumulative IPC: 0.490294 (Simulation time: 0 hr 39 min 39 sec) 
Heartbeat CPU 0 instructions: 57000002 cycles: 42151930 heartbeat IPC: 0.424927 cumulative IPC: 0.479751 (Simulation time: 0 hr 40 min 29 sec) 
Heartbeat CPU 0 instructions: 58000002 cycles: 44419957 heartbeat IPC: 0.440912 cumulative IPC: 0.474526 (Simulation time: 0 hr 41 min 20 sec) 
Heartbeat CPU 0 instructions: 59000001 cycles: 46225500 heartbeat IPC: 0.553849 cumulative IPC: 0.4822 (Simulation time: 0 hr 42 min 5 sec) 
Heartbeat CPU 0 instructions: 60000000 cycles: 47896940 heartbeat IPC: 0.598286 cumulative IPC: 0.491741 (Simulation time: 0 hr 42 min 47 sec) 
Heartbeat CPU 0 instructions: 61000000 cycles: 49562620 heartbeat IPC: 0.600355 cumulative IPC: 0.499964 (Simulation time: 0 hr 43 min 32 sec) 
Heartbeat CPU 0 instructions: 62000000 cycles: 51225647 heartbeat IPC: 0.601313 cumulative IPC: 0.507086 (Simulation time: 0 hr 44 min 17 sec) 
Heartbeat CPU 0 instructions: 63000003 cycles: 52890789 heartbeat IPC: 0.600551 cumulative IPC: 0.51323 (Simulation time: 0 hr 44 min 59 sec) 
Heartbeat CPU 0 instructions: 64000000 cycles: 54557692 heartbeat IPC: 0.599913 cumulative IPC: 0.518583 (Simulation time: 0 hr 45 min 40 sec) 
Heartbeat CPU 0 instructions: 65000002 cycles: 56228069 heartbeat IPC: 0.598668 cumulative IPC: 0.523249 (Simulation time: 0 hr 46 min 21 sec) 
Heartbeat CPU 0 instructions: 66000002 cycles: 57891437 heartbeat IPC: 0.60119 cumulative IPC: 0.527524 (Simulation time: 0 hr 47 min 4 sec) 
Heartbeat CPU 0 instructions: 67000001 cycles: 59557936 heartbeat IPC: 0.60006 cumulative IPC: 0.531301 (Simulation time: 0 hr 47 min 43 sec) 
Heartbeat CPU 0 instructions: 68000000 cycles: 61226432 heartbeat IPC: 0.599342 cumulative IPC: 0.534674 (Simulation time: 0 hr 48 min 29 sec) 
Heartbeat CPU 0 instructions: 69000000 cycles: 62897904 heartbeat IPC: 0.598275 cumulative IPC: 0.537682 (Simulation time: 0 hr 49 min 13 sec) 
Heartbeat CPU 0 instructions: 70000000 cycles: 64564593 heartbeat IPC: 0.599992 cumulative IPC: 0.540489 (Simulation time: 0 hr 49 min 54 sec) 
Heartbeat CPU 0 instructions: 71000002 cycles: 66232423 heartbeat IPC: 0.599583 cumulative IPC: 0.543037 (Simulation time: 0 hr 50 min 33 sec) 
Heartbeat CPU 0 instructions: 72000000 cycles: 67900951 heartbeat IPC: 0.599329 cumulative IPC: 0.545366 (Simulation time: 0 hr 51 min 11 sec) 
Heartbeat CPU 0 instructions: 73000003 cycles: 69565876 heartbeat IPC: 0.600629 cumulative IPC: 0.547556 (Simulation time: 0 hr 51 min 52 sec) 
Heartbeat CPU 0 instructions: 74000002 cycles: 71240295 heartbeat IPC: 0.597221 cumulative IPC: 0.54946 (Simulation time: 0 hr 52 min 32 sec) 
Heartbeat CPU 0 instructions: 75000003 cycles: 72904442 heartbeat IPC: 0.600909 cumulative IPC: 0.551348 (Simulation time: 0 hr 53 min 14 sec) 
Heartbeat CPU 0 instructions: 76000000 cycles: 74574619 heartbeat IPC: 0.598737 cumulative IPC: 0.553032 (Simulation time: 0 hr 53 min 55 sec) 
Heartbeat CPU 0 instructions: 77000003 cycles: 76243945 heartbeat IPC: 0.599046 cumulative IPC: 0.554609 (Simulation time: 0 hr 54 min 39 sec) 
Heartbeat CPU 0 instructions: 78000000 cycles: 77908113 heartbeat IPC: 0.600899 cumulative IPC: 0.556139 (Simulation time: 0 hr 55 min 22 sec) 
Heartbeat CPU 0 instructions: 79000000 cycles: 79579972 heartbeat IPC: 0.598137 cumulative IPC: 0.557489 (Simulation time: 0 hr 56 min 1 sec) 
Heartbeat CPU 0 instructions: 80000000 cycles: 81241246 heartbeat IPC: 0.601948 cumulative IPC: 0.558865 (Simulation time: 0 hr 56 min 40 sec) 
Heartbeat CPU 0 instructions: 81000000 cycles: 82913462 heartbeat IPC: 0.598009 cumulative IPC: 0.560048 (Simulation time: 0 hr 57 min 21 sec) 
Heartbeat CPU 0 instructions: 82000002 cycles: 84572424 heartbeat IPC: 0.602788 cumulative IPC: 0.561291 (Simulation time: 0 hr 58 min 3 sec) 
Heartbeat CPU 0 instructions: 83000003 cycles: 86231499 heartbeat IPC: 0.602746 cumulative IPC: 0.562464 (Simulation time: 0 hr 58 min 44 sec) 
Heartbeat CPU 0 instructions: 84000000 cycles: 87885824 heartbeat IPC: 0.604474 cumulative IPC: 0.563616 (Simulation time: 0 hr 59 min 25 sec) 
Heartbeat CPU 0 instructions: 85000001 cycles: 89546040 heartbeat IPC: 0.602332 cumulative IPC: 0.564653 (Simulation time: 1 hr 0 min 6 sec) 
Heartbeat CPU 0 instructions: 86000002 cycles: 91205317 heartbeat IPC: 0.602673 cumulative IPC: 0.565644 (Simulation time: 1 hr 0 min 47 sec) 
Heartbeat CPU 0 instructions: 87000003 cycles: 92863709 heartbeat IPC: 0.602994 cumulative IPC: 0.566592 (Simulation time: 1 hr 1 min 29 sec) 
Heartbeat CPU 0 instructions: 88000000 cycles: 94529211 heartbeat IPC: 0.600418 cumulative IPC: 0.567434 (Simulation time: 1 hr 2 min 11 sec) 
Heartbeat CPU 0 instructions: 89000001 cycles: 96190228 heartbeat IPC: 0.602041 cumulative IPC: 0.568271 (Simulation time: 1 hr 2 min 52 sec) 
Heartbeat CPU 0 instructions: 90000002 cycles: 97852618 heartbeat IPC: 0.601544 cumulative IPC: 0.569058 (Simulation time: 1 hr 3 min 34 sec) 
Heartbeat CPU 0 instructions: 91000000 cycles: 99507432 heartbeat IPC: 0.604296 cumulative IPC: 0.569869 (Simulation time: 1 hr 4 min 18 sec) 
Heartbeat CPU 0 instructions: 92000000 cycles: 101160197 heartbeat IPC: 0.605047 cumulative IPC: 0.570659 (Simulation time: 1 hr 5 min 4 sec) 
Heartbeat CPU 0 instructions: 93000003 cycles: 102814125 heartbeat IPC: 0.604623 cumulative IPC: 0.571405 (Simulation time: 1 hr 5 min 50 sec) 
Heartbeat CPU 0 instructions: 94000002 cycles: 104468104 heartbeat IPC: 0.604602 cumulative IPC: 0.572119 (Simulation time: 1 hr 6 min 34 sec) 
Heartbeat CPU 0 instructions: 95000003 cycles: 106120471 heartbeat IPC: 0.605193 cumulative IPC: 0.572815 (Simulation time: 1 hr 7 min 22 sec) 
Heartbeat CPU 0 instructions: 96000000 cycles: 107771181 heartbeat IPC: 0.605798 cumulative IPC: 0.573494 (Simulation time: 1 hr 8 min 8 sec) 
Heartbeat CPU 0 instructions: 97000001 cycles: 109425387 heartbeat IPC: 0.60452 cumulative IPC: 0.57412 (Simulation time: 1 hr 9 min 1 sec) 
Heartbeat CPU 0 instructions: 98000002 cycles: 111075123 heartbeat IPC: 0.606158 cumulative IPC: 0.574753 (Simulation time: 1 hr 9 min 45 sec) 
Heartbeat CPU 0 instructions: 99000003 cycles: 112722897 heartbeat IPC: 0.60688 cumulative IPC: 0.575375 (Simulation time: 1 hr 10 min 31 sec) 
Heartbeat CPU 0 instructions: 100000000 cycles: 114379072 heartbeat IPC: 0.603799 cumulative IPC: 0.575917 (Simulation time: 1 hr 11 min 15 sec) 
Heartbeat CPU 0 instructions: 101000001 cycles: 116026974 heartbeat IPC: 0.606833 cumulative IPC: 0.576493 (Simulation time: 1 hr 11 min 51 sec) 
Heartbeat CPU 0 instructions: 102000002 cycles: 117682371 heartbeat IPC: 0.604085 cumulative IPC: 0.577 (Simulation time: 1 hr 12 min 30 sec) 
Heartbeat CPU 0 instructions: 103000000 cycles: 119334050 heartbeat IPC: 0.605443 cumulative IPC: 0.577512 (Simulation time: 1 hr 13 min 11 sec) 
Heartbeat CPU 0 instructions: 104000000 cycles: 120987148 heartbeat IPC: 0.604925 cumulative IPC: 0.577997 (Simulation time: 1 hr 13 min 46 sec) 
Heartbeat CPU 0 instructions: 105000003 cycles: 122979203 heartbeat IPC: 0.501996 cumulative IPC: 0.57641 (Simulation time: 1 hr 14 min 26 sec) 
Heartbeat CPU 0 instructions: 106000003 cycles: 126860376 heartbeat IPC: 0.257654 cumulative IPC: 0.563951 (Simulation time: 1 hr 15 min 28 sec) 
Heartbeat CPU 0 instructions: 107000000 cycles: 128611171 heartbeat IPC: 0.571167 cumulative IPC: 0.564076 (Simulation time: 1 hr 15 min 59 sec) 
Heartbeat CPU 0 instructions: 108000000 cycles: 130341611 heartbeat IPC: 0.577888 cumulative IPC: 0.564309 (Simulation time: 1 hr 16 min 29 sec) 
Heartbeat CPU 0 instructions: 109000001 cycles: 132063357 heartbeat IPC: 0.580806 cumulative IPC: 0.564581 (Simulation time: 1 hr 16 min 58 sec) 
Heartbeat CPU 0 instructions: 110000001 cycles: 133784491 heartbeat IPC: 0.581012 cumulative IPC: 0.564847 (Simulation time: 1 hr 17 min 28 sec) 
Heartbeat CPU 0 instructions: 111000000 cycles: 135513535 heartbeat IPC: 0.578354 cumulative IPC: 0.565063 (Simulation time: 1 hr 18 min 2 sec) 
Heartbeat CPU 0 instructions: 112000000 cycles: 137278475 heartbeat IPC: 0.566592 cumulative IPC: 0.565088 (Simulation time: 1 hr 18 min 30 sec) 
Heartbeat CPU 0 instructions: 113000003 cycles: 139053079 heartbeat IPC: 0.563508 cumulative IPC: 0.565063 (Simulation time: 1 hr 18 min 59 sec) 
Heartbeat CPU 0 instructions: 114000003 cycles: 140826190 heartbeat IPC: 0.56398 cumulative IPC: 0.565046 (Simulation time: 1 hr 19 min 28 sec) 
Heartbeat CPU 0 instructions: 115000001 cycles: 142592824 heartbeat IPC: 0.566047 cumulative IPC: 0.565061 (Simulation time: 1 hr 19 min 56 sec) 
Heartbeat CPU 0 instructions: 116000000 cycles: 144368912 heartbeat IPC: 0.563035 cumulative IPC: 0.56503 (Simulation time: 1 hr 20 min 24 sec) 
Heartbeat CPU 0 instructions: 117000001 cycles: 146144609 heartbeat IPC: 0.56316 cumulative IPC: 0.565002 (Simulation time: 1 hr 20 min 53 sec) 
Heartbeat CPU 0 instructions: 118000003 cycles: 147918072 heartbeat IPC: 0.56387 cumulative IPC: 0.564986 (Simulation time: 1 hr 21 min 23 sec) 
Heartbeat CPU 0 instructions: 119000001 cycles: 149689348 heartbeat IPC: 0.564564 cumulative IPC: 0.56498 (Simulation time: 1 hr 21 min 52 sec) 
Heartbeat CPU 0 instructions: 120000000 cycles: 151458557 heartbeat IPC: 0.565224 cumulative IPC: 0.564983 (Simulation time: 1 hr 22 min 22 sec) 
Heartbeat CPU 0 instructions: 121000003 cycles: 153228678 heartbeat IPC: 0.564935 cumulative IPC: 0.564982 (Simulation time: 1 hr 22 min 48 sec) 
Heartbeat CPU 0 instructions: 122000001 cycles: 155002881 heartbeat IPC: 0.563632 cumulative IPC: 0.564964 (Simulation time: 1 hr 23 min 15 sec) 
Heartbeat CPU 0 instructions: 123000003 cycles: 156778012 heartbeat IPC: 0.56334 cumulative IPC: 0.564941 (Simulation time: 1 hr 23 min 42 sec) 
Heartbeat CPU 0 instructions: 124000000 cycles: 158548833 heartbeat IPC: 0.564708 cumulative IPC: 0.564938 (Simulation time: 1 hr 24 min 6 sec) 
Heartbeat CPU 0 instructions: 125000003 cycles: 160319965 heartbeat IPC: 0.564612 cumulative IPC: 0.564934 (Simulation time: 1 hr 24 min 31 sec) 
Heartbeat CPU 0 instructions: 126000000 cycles: 162093345 heartbeat IPC: 0.563893 cumulative IPC: 0.56492 (Simulation time: 1 hr 24 min 57 sec) 
Heartbeat CPU 0 instructions: 127000001 cycles: 163868340 heartbeat IPC: 0.563382 cumulative IPC: 0.5649 (Simulation time: 1 hr 25 min 21 sec) 
Heartbeat CPU 0 instructions: 128000000 cycles: 165642503 heartbeat IPC: 0.563645 cumulative IPC: 0.564884 (Simulation time: 1 hr 25 min 48 sec) 
Heartbeat CPU 0 instructions: 129000001 cycles: 167419068 heartbeat IPC: 0.562885 cumulative IPC: 0.564858 (Simulation time: 1 hr 26 min 12 sec) 
Heartbeat CPU 0 instructions: 130000000 cycles: 169197369 heartbeat IPC: 0.562334 cumulative IPC: 0.564827 (Simulation time: 1 hr 26 min 32 sec) 
Heartbeat CPU 0 instructions: 131000001 cycles: 170972244 heartbeat IPC: 0.563421 cumulative IPC: 0.564809 (Simulation time: 1 hr 26 min 53 sec) 
Heartbeat CPU 0 instructions: 132000000 cycles: 172742139 heartbeat IPC: 0.565005 cumulative IPC: 0.564812 (Simulation time: 1 hr 27 min 17 sec) 
Heartbeat CPU 0 instructions: 133000003 cycles: 174517180 heartbeat IPC: 0.563369 cumulative IPC: 0.564794 (Simulation time: 1 hr 27 min 40 sec) 
Heartbeat CPU 0 instructions: 134000001 cycles: 176288455 heartbeat IPC: 0.564564 cumulative IPC: 0.564792 (Simulation time: 1 hr 27 min 59 sec) 
Heartbeat CPU 0 instructions: 135000003 cycles: 178050732 heartbeat IPC: 0.567449 cumulative IPC: 0.564823 (Simulation time: 1 hr 28 min 19 sec) 
Heartbeat CPU 0 instructions: 136000000 cycles: 179808269 heartbeat IPC: 0.568976 cumulative IPC: 0.564871 (Simulation time: 1 hr 28 min 38 sec) 
Heartbeat CPU 0 instructions: 137000001 cycles: 181014765 heartbeat IPC: 0.828847 cumulative IPC: 0.566946 (Simulation time: 1 hr 29 min 0 sec) 
Heartbeat CPU 0 instructions: 138000000 cycles: 182702124 heartbeat IPC: 0.592642 cumulative IPC: 0.567226 (Simulation time: 1 hr 29 min 23 sec) 
Heartbeat CPU 0 instructions: 139000002 cycles: 185930828 heartbeat IPC: 0.309722 cumulative IPC: 0.561976 (Simulation time: 1 hr 29 min 56 sec) 
Heartbeat CPU 0 instructions: 140000000 cycles: 189122271 heartbeat IPC: 0.313337 cumulative IPC: 0.557064 (Simulation time: 1 hr 30 min 28 sec) 
Heartbeat CPU 0 instructions: 141000003 cycles: 192604858 heartbeat IPC: 0.287144 cumulative IPC: 0.551369 (Simulation time: 1 hr 31 min 1 sec) 
Heartbeat CPU 0 instructions: 142000003 cycles: 195100430 heartbeat IPC: 0.40071 cumulative IPC: 0.549125 (Simulation time: 1 hr 31 min 24 sec) 
Heartbeat CPU 0 instructions: 143000001 cycles: 196904417 heartbeat IPC: 0.554327 cumulative IPC: 0.54918 (Simulation time: 1 hr 31 min 40 sec) 
Heartbeat CPU 0 instructions: 144000000 cycles: 198703701 heartbeat IPC: 0.555776 cumulative IPC: 0.549249 (Simulation time: 1 hr 31 min 57 sec) 
Heartbeat CPU 0 instructions: 145000001 cycles: 200499707 heartbeat IPC: 0.556792 cumulative IPC: 0.549328 (Simulation time: 1 hr 32 min 14 sec) 
Heartbeat CPU 0 instructions: 146000003 cycles: 202291458 heartbeat IPC: 0.558114 cumulative IPC: 0.549418 (Simulation time: 1 hr 32 min 31 sec) 
Heartbeat CPU 0 instructions: 147000003 cycles: 204083626 heartbeat IPC: 0.557983 cumulative IPC: 0.549505 (Simulation time: 1 hr 32 min 47 sec) 
Heartbeat CPU 0 instructions: 148000000 cycles: 205879810 heartbeat IPC: 0.556734 cumulative IPC: 0.549578 (Simulation time: 1 hr 33 min 2 sec) 
Heartbeat CPU 0 instructions: 149000003 cycles: 207678282 heartbeat IPC: 0.556029 cumulative IPC: 0.549642 (Simulation time: 1 hr 33 min 17 sec) 
Heartbeat CPU 0 instructions: 150000003 cycles: 209475911 heartbeat IPC: 0.556288 cumulative IPC: 0.549708 (Simulation time: 1 hr 33 min 30 sec) 
Finished CPU 0 instructions: 100000002 cycles: 181914877 cummulative IPC: 0.549708 (Simulation time: 1 hr 33 min 30 sec) 

ChampSim completed all CPUs

Region of Interest Statistics

CPU 0 cummulative IPC: 0.549708 instructions: 100000002 cycles: 181914877
LLC TOTAL     ACCESS:    3965925  HIT:     308966  MISS:    3656959
LLC LOAD      ACCESS:    1062156  HIT:       8757  MISS:    1053399
LLC RFO       ACCESS:     534380  HIT:      56872  MISS:     477508
LLC PREFETCH  ACCESS:    1386648  HIT:      37564  MISS:    1349084
LLC WRITEBACK ACCESS:     982741  HIT:     205773  MISS:     776968
OPTgen accesses: 32593
OPTgen hits: 971
OPTgen hit rate: 2.97917


