
*** ChampSim Multicore Out-of-Order Simulator ***

Warmup Instructions: 50000000
Simulation Instructions: 100000000
Configuration: 2
Number of CPUs: 1
LLC sets: 2048
LLC ways: 16
Off-chip DRAM Channels: 1 Width: 64-bit Data Rate: 1600 MT/s

CPU 0 runs /datasets/cs240c-wi22-a00-public/data/Assignment2-gz/libquantum_1735B.trace.gz
CPU 0 L1D next line prefetcher
CPU 0 L2C IP-based stride prefetcher
Initialize Hawkeye state
Heartbeat CPU 0 instructions: 1000001 cycles: 333341 heartbeat IPC: 2.99993 cumulative IPC: 2.99993 (Simulation time: 0 hr 0 min 22 sec) 
Heartbeat CPU 0 instructions: 2000000 cycles: 666674 heartbeat IPC: 3 cumulative IPC: 2.99997 (Simulation time: 0 hr 0 min 44 sec) 
Heartbeat CPU 0 instructions: 3000000 cycles: 989045 heartbeat IPC: 3.10202 cumulative IPC: 3.03323 (Simulation time: 0 hr 1 min 7 sec) 
Heartbeat CPU 0 instructions: 4000000 cycles: 1290770 heartbeat IPC: 3.31428 cumulative IPC: 3.09893 (Simulation time: 0 hr 1 min 29 sec) 
Heartbeat CPU 0 instructions: 5000001 cycles: 1592495 heartbeat IPC: 3.31428 cumulative IPC: 3.13973 (Simulation time: 0 hr 1 min 52 sec) 
Heartbeat CPU 0 instructions: 6000001 cycles: 1894219 heartbeat IPC: 3.31429 cumulative IPC: 3.16753 (Simulation time: 0 hr 2 min 14 sec) 
Heartbeat CPU 0 instructions: 7000002 cycles: 2195942 heartbeat IPC: 3.3143 cumulative IPC: 3.1877 (Simulation time: 0 hr 2 min 36 sec) 
Heartbeat CPU 0 instructions: 8000000 cycles: 2501897 heartbeat IPC: 3.26845 cumulative IPC: 3.19757 (Simulation time: 0 hr 2 min 58 sec) 
Heartbeat CPU 0 instructions: 9000000 cycles: 2835230 heartbeat IPC: 3 cumulative IPC: 3.17435 (Simulation time: 0 hr 3 min 22 sec) 
Heartbeat CPU 0 instructions: 10000002 cycles: 3168564 heartbeat IPC: 3 cumulative IPC: 3.156 (Simulation time: 0 hr 3 min 46 sec) 
Heartbeat CPU 0 instructions: 11000001 cycles: 3501897 heartbeat IPC: 3 cumulative IPC: 3.14116 (Simulation time: 0 hr 4 min 11 sec) 
Heartbeat CPU 0 instructions: 12000000 cycles: 3835230 heartbeat IPC: 3 cumulative IPC: 3.12889 (Simulation time: 0 hr 4 min 33 sec) 
Heartbeat CPU 0 instructions: 13000000 cycles: 4159530 heartbeat IPC: 3.08356 cumulative IPC: 3.12535 (Simulation time: 0 hr 4 min 57 sec) 
Heartbeat CPU 0 instructions: 14000002 cycles: 4471102 heartbeat IPC: 3.20954 cumulative IPC: 3.13122 (Simulation time: 0 hr 5 min 18 sec) 
Heartbeat CPU 0 instructions: 15000000 cycles: 4782674 heartbeat IPC: 3.20952 cumulative IPC: 3.13632 (Simulation time: 0 hr 5 min 42 sec) 
Heartbeat CPU 0 instructions: 16000000 cycles: 5094247 heartbeat IPC: 3.20952 cumulative IPC: 3.1408 (Simulation time: 0 hr 6 min 5 sec) 
Heartbeat CPU 0 instructions: 17000000 cycles: 5405820 heartbeat IPC: 3.20952 cumulative IPC: 3.14476 (Simulation time: 0 hr 6 min 27 sec) 
Heartbeat CPU 0 instructions: 18000001 cycles: 5725379 heartbeat IPC: 3.12932 cumulative IPC: 3.1439 (Simulation time: 0 hr 6 min 49 sec) 
Heartbeat CPU 0 instructions: 19000000 cycles: 6058712 heartbeat IPC: 3 cumulative IPC: 3.13598 (Simulation time: 0 hr 7 min 11 sec) 
Heartbeat CPU 0 instructions: 20000000 cycles: 6392046 heartbeat IPC: 2.99999 cumulative IPC: 3.12889 (Simulation time: 0 hr 7 min 34 sec) 
Heartbeat CPU 0 instructions: 21000001 cycles: 6725379 heartbeat IPC: 3.00001 cumulative IPC: 3.1225 (Simulation time: 0 hr 7 min 56 sec) 
Heartbeat CPU 0 instructions: 22000000 cycles: 7058712 heartbeat IPC: 3 cumulative IPC: 3.11672 (Simulation time: 0 hr 8 min 18 sec) 
Heartbeat CPU 0 instructions: 23000001 cycles: 7377935 heartbeat IPC: 3.13261 cumulative IPC: 3.1174 (Simulation time: 0 hr 8 min 41 sec) 
Heartbeat CPU 0 instructions: 24000000 cycles: 7689508 heartbeat IPC: 3.20952 cumulative IPC: 3.12114 (Simulation time: 0 hr 9 min 5 sec) 
Heartbeat CPU 0 instructions: 25000002 cycles: 8001081 heartbeat IPC: 3.20953 cumulative IPC: 3.12458 (Simulation time: 0 hr 9 min 26 sec) 
Heartbeat CPU 0 instructions: 26000000 cycles: 8312653 heartbeat IPC: 3.20952 cumulative IPC: 3.12776 (Simulation time: 0 hr 9 min 50 sec) 
Heartbeat CPU 0 instructions: 27000003 cycles: 8624226 heartbeat IPC: 3.20953 cumulative IPC: 3.13072 (Simulation time: 0 hr 10 min 13 sec) 
Heartbeat CPU 0 instructions: 28000000 cycles: 8948866 heartbeat IPC: 3.08033 cumulative IPC: 3.12889 (Simulation time: 0 hr 10 min 36 sec) 
Heartbeat CPU 0 instructions: 29000000 cycles: 9282199 heartbeat IPC: 3 cumulative IPC: 3.12426 (Simulation time: 0 hr 10 min 58 sec) 
Heartbeat CPU 0 instructions: 30000001 cycles: 9615533 heartbeat IPC: 3 cumulative IPC: 3.11995 (Simulation time: 0 hr 11 min 21 sec) 
Heartbeat CPU 0 instructions: 31000000 cycles: 9948866 heartbeat IPC: 3 cumulative IPC: 3.11593 (Simulation time: 0 hr 11 min 44 sec) 
Heartbeat CPU 0 instructions: 32000000 cycles: 10282200 heartbeat IPC: 2.99999 cumulative IPC: 3.11217 (Simulation time: 0 hr 12 min 7 sec) 
Heartbeat CPU 0 instructions: 33000003 cycles: 10587669 heartbeat IPC: 3.27366 cumulative IPC: 3.11683 (Simulation time: 0 hr 12 min 30 sec) 
Heartbeat CPU 0 instructions: 34000002 cycles: 10889391 heartbeat IPC: 3.31431 cumulative IPC: 3.12231 (Simulation time: 0 hr 12 min 52 sec) 
Heartbeat CPU 0 instructions: 35000002 cycles: 11191114 heartbeat IPC: 3.3143 cumulative IPC: 3.12748 (Simulation time: 0 hr 13 min 15 sec) 
Heartbeat CPU 0 instructions: 36000000 cycles: 11492840 heartbeat IPC: 3.31426 cumulative IPC: 3.13239 (Simulation time: 0 hr 13 min 38 sec) 
Heartbeat CPU 0 instructions: 37000002 cycles: 11794564 heartbeat IPC: 3.31429 cumulative IPC: 3.13704 (Simulation time: 0 hr 14 min 0 sec) 
Heartbeat CPU 0 instructions: 38000003 cycles: 12117424 heartbeat IPC: 3.09732 cumulative IPC: 3.13598 (Simulation time: 0 hr 14 min 23 sec) 
Heartbeat CPU 0 instructions: 39000002 cycles: 12450757 heartbeat IPC: 3 cumulative IPC: 3.13234 (Simulation time: 0 hr 14 min 45 sec) 
Heartbeat CPU 0 instructions: 40000000 cycles: 12784090 heartbeat IPC: 3 cumulative IPC: 3.12889 (Simulation time: 0 hr 15 min 6 sec) 
Heartbeat CPU 0 instructions: 41000000 cycles: 13117423 heartbeat IPC: 3 cumulative IPC: 3.12561 (Simulation time: 0 hr 15 min 27 sec) 
Heartbeat CPU 0 instructions: 42000001 cycles: 13450757 heartbeat IPC: 3 cumulative IPC: 3.1225 (Simulation time: 0 hr 15 min 49 sec) 
Heartbeat CPU 0 instructions: 43000003 cycles: 13754059 heartbeat IPC: 3.29705 cumulative IPC: 3.12635 (Simulation time: 0 hr 16 min 12 sec) 
Heartbeat CPU 0 instructions: 44000000 cycles: 14055784 heartbeat IPC: 3.31427 cumulative IPC: 3.13038 (Simulation time: 0 hr 16 min 35 sec) 
Heartbeat CPU 0 instructions: 45000000 cycles: 14357508 heartbeat IPC: 3.31429 cumulative IPC: 3.13425 (Simulation time: 0 hr 16 min 56 sec) 
Heartbeat CPU 0 instructions: 46000002 cycles: 14659231 heartbeat IPC: 3.3143 cumulative IPC: 3.13795 (Simulation time: 0 hr 17 min 20 sec) 
Heartbeat CPU 0 instructions: 47000002 cycles: 14960955 heartbeat IPC: 3.31429 cumulative IPC: 3.14151 (Simulation time: 0 hr 17 min 43 sec) 
Heartbeat CPU 0 instructions: 48000000 cycles: 15285989 heartbeat IPC: 3.0766 cumulative IPC: 3.14013 (Simulation time: 0 hr 18 min 7 sec) 
Heartbeat CPU 0 instructions: 49000002 cycles: 15619323 heartbeat IPC: 3 cumulative IPC: 3.13714 (Simulation time: 0 hr 18 min 31 sec) 
Heartbeat CPU 0 instructions: 50000001 cycles: 15952656 heartbeat IPC: 3 cumulative IPC: 3.13427 (Simulation time: 0 hr 18 min 53 sec) 

Warmup complete CPU 0 instructions: 50000001 cycles: 15952656 (Simulation time: 0 hr 18 min 53 sec) 

Heartbeat CPU 0 instructions: 51000000 cycles: 17454883 heartbeat IPC: 0.665678 cumulative IPC: 0.665678 (Simulation time: 0 hr 19 min 31 sec) 
Heartbeat CPU 0 instructions: 52000000 cycles: 18974557 heartbeat IPC: 0.658036 cumulative IPC: 0.661835 (Simulation time: 0 hr 20 min 11 sec) 
Heartbeat CPU 0 instructions: 53000002 cycles: 20485564 heartbeat IPC: 0.661812 cumulative IPC: 0.661827 (Simulation time: 0 hr 20 min 50 sec) 
Heartbeat CPU 0 instructions: 54000001 cycles: 22004704 heartbeat IPC: 0.658267 cumulative IPC: 0.660933 (Simulation time: 0 hr 21 min 30 sec) 
Heartbeat CPU 0 instructions: 55000000 cycles: 23524356 heartbeat IPC: 0.658045 cumulative IPC: 0.660354 (Simulation time: 0 hr 22 min 11 sec) 
Heartbeat CPU 0 instructions: 56000000 cycles: 25043825 heartbeat IPC: 0.658125 cumulative IPC: 0.659981 (Simulation time: 0 hr 22 min 50 sec) 
Heartbeat CPU 0 instructions: 57000000 cycles: 26563418 heartbeat IPC: 0.658071 cumulative IPC: 0.659707 (Simulation time: 0 hr 23 min 29 sec) 
Heartbeat CPU 0 instructions: 58000002 cycles: 28082889 heartbeat IPC: 0.658125 cumulative IPC: 0.659509 (Simulation time: 0 hr 24 min 9 sec) 
Heartbeat CPU 0 instructions: 59000001 cycles: 29590099 heartbeat IPC: 0.663477 cumulative IPC: 0.659948 (Simulation time: 0 hr 24 min 49 sec) 
Heartbeat CPU 0 instructions: 60000000 cycles: 31029733 heartbeat IPC: 0.69462 cumulative IPC: 0.663258 (Simulation time: 0 hr 25 min 32 sec) 
Heartbeat CPU 0 instructions: 61000003 cycles: 32513648 heartbeat IPC: 0.673895 cumulative IPC: 0.664212 (Simulation time: 0 hr 26 min 14 sec) 
Heartbeat CPU 0 instructions: 62000002 cycles: 34010740 heartbeat IPC: 0.667961 cumulative IPC: 0.664522 (Simulation time: 0 hr 26 min 57 sec) 
Heartbeat CPU 0 instructions: 63000001 cycles: 35510388 heartbeat IPC: 0.666822 cumulative IPC: 0.664699 (Simulation time: 0 hr 27 min 36 sec) 
Heartbeat CPU 0 instructions: 64000000 cycles: 37031151 heartbeat IPC: 0.657564 cumulative IPC: 0.664184 (Simulation time: 0 hr 28 min 14 sec) 
Heartbeat CPU 0 instructions: 65000001 cycles: 38550639 heartbeat IPC: 0.658117 cumulative IPC: 0.663776 (Simulation time: 0 hr 28 min 53 sec) 
Heartbeat CPU 0 instructions: 66000000 cycles: 40070202 heartbeat IPC: 0.658083 cumulative IPC: 0.663417 (Simulation time: 0 hr 29 min 33 sec) 
Heartbeat CPU 0 instructions: 67000001 cycles: 41299652 heartbeat IPC: 0.813373 cumulative IPC: 0.670691 (Simulation time: 0 hr 30 min 15 sec) 
Heartbeat CPU 0 instructions: 68000000 cycles: 42516664 heartbeat IPC: 0.821684 cumulative IPC: 0.677609 (Simulation time: 0 hr 30 min 52 sec) 
Heartbeat CPU 0 instructions: 69000002 cycles: 44002792 heartbeat IPC: 0.672891 cumulative IPC: 0.677359 (Simulation time: 0 hr 31 min 33 sec) 
Heartbeat CPU 0 instructions: 70000001 cycles: 45483729 heartbeat IPC: 0.675247 cumulative IPC: 0.677253 (Simulation time: 0 hr 32 min 11 sec) 
Heartbeat CPU 0 instructions: 71000003 cycles: 47033621 heartbeat IPC: 0.645208 cumulative IPC: 0.675655 (Simulation time: 0 hr 32 min 49 sec) 
Heartbeat CPU 0 instructions: 72000000 cycles: 49294626 heartbeat IPC: 0.44228 cumulative IPC: 0.659829 (Simulation time: 0 hr 33 min 22 sec) 
Heartbeat CPU 0 instructions: 73000000 cycles: 51594700 heartbeat IPC: 0.434769 cumulative IPC: 0.645305 (Simulation time: 0 hr 33 min 55 sec) 
Heartbeat CPU 0 instructions: 74000000 cycles: 53881237 heartbeat IPC: 0.437343 cumulative IPC: 0.632768 (Simulation time: 0 hr 34 min 28 sec) 
Heartbeat CPU 0 instructions: 75000000 cycles: 56176517 heartbeat IPC: 0.435677 cumulative IPC: 0.621522 (Simulation time: 0 hr 35 min 1 sec) 
Heartbeat CPU 0 instructions: 76000000 cycles: 58486604 heartbeat IPC: 0.432884 cumulative IPC: 0.611276 (Simulation time: 0 hr 35 min 37 sec) 
Heartbeat CPU 0 instructions: 77000001 cycles: 60119317 heartbeat IPC: 0.612478 cumulative IPC: 0.611321 (Simulation time: 0 hr 36 min 18 sec) 
Heartbeat CPU 0 instructions: 78000000 cycles: 61620740 heartbeat IPC: 0.666034 cumulative IPC: 0.61312 (Simulation time: 0 hr 36 min 57 sec) 
Heartbeat CPU 0 instructions: 79000001 cycles: 63060689 heartbeat IPC: 0.69447 cumulative IPC: 0.615606 (Simulation time: 0 hr 37 min 35 sec) 
Heartbeat CPU 0 instructions: 80000000 cycles: 64507187 heartbeat IPC: 0.691324 cumulative IPC: 0.617862 (Simulation time: 0 hr 38 min 14 sec) 
Heartbeat CPU 0 instructions: 81000002 cycles: 66107674 heartbeat IPC: 0.624811 cumulative IPC: 0.618084 (Simulation time: 0 hr 38 min 57 sec) 
Heartbeat CPU 0 instructions: 82000003 cycles: 68319595 heartbeat IPC: 0.452096 cumulative IPC: 0.611073 (Simulation time: 0 hr 39 min 31 sec) 
Heartbeat CPU 0 instructions: 83000000 cycles: 70566823 heartbeat IPC: 0.444991 cumulative IPC: 0.604239 (Simulation time: 0 hr 40 min 5 sec) 
Heartbeat CPU 0 instructions: 84000000 cycles: 72849725 heartbeat IPC: 0.438039 cumulative IPC: 0.59757 (Simulation time: 0 hr 40 min 36 sec) 
Heartbeat CPU 0 instructions: 85000002 cycles: 75151596 heartbeat IPC: 0.43443 cumulative IPC: 0.591227 (Simulation time: 0 hr 41 min 9 sec) 
Heartbeat CPU 0 instructions: 86000002 cycles: 77452768 heartbeat IPC: 0.434561 cumulative IPC: 0.585365 (Simulation time: 0 hr 41 min 40 sec) 
Heartbeat CPU 0 instructions: 87000002 cycles: 79037940 heartbeat IPC: 0.630846 cumulative IPC: 0.586508 (Simulation time: 0 hr 42 min 20 sec) 
Heartbeat CPU 0 instructions: 88000000 cycles: 80613481 heartbeat IPC: 0.634701 cumulative IPC: 0.587682 (Simulation time: 0 hr 42 min 58 sec) 
Heartbeat CPU 0 instructions: 89000000 cycles: 82178262 heartbeat IPC: 0.639067 cumulative IPC: 0.588896 (Simulation time: 0 hr 43 min 40 sec) 
Heartbeat CPU 0 instructions: 90000000 cycles: 84106650 heartbeat IPC: 0.518568 cumulative IPC: 0.586906 (Simulation time: 0 hr 44 min 18 sec) 
Heartbeat CPU 0 instructions: 91000001 cycles: 87042861 heartbeat IPC: 0.340575 cumulative IPC: 0.576732 (Simulation time: 0 hr 44 min 53 sec) 
Heartbeat CPU 0 instructions: 92000000 cycles: 89947191 heartbeat IPC: 0.344313 cumulative IPC: 0.567609 (Simulation time: 0 hr 45 min 27 sec) 
Heartbeat CPU 0 instructions: 93000001 cycles: 92882668 heartbeat IPC: 0.34066 cumulative IPC: 0.55895 (Simulation time: 0 hr 46 min 2 sec) 
Heartbeat CPU 0 instructions: 94000001 cycles: 95598662 heartbeat IPC: 0.368189 cumulative IPC: 0.552445 (Simulation time: 0 hr 46 min 38 sec) 
Heartbeat CPU 0 instructions: 95000000 cycles: 97175348 heartbeat IPC: 0.634241 cumulative IPC: 0.554032 (Simulation time: 0 hr 47 min 18 sec) 
Heartbeat CPU 0 instructions: 96000000 cycles: 98732538 heartbeat IPC: 0.642182 cumulative IPC: 0.555691 (Simulation time: 0 hr 47 min 59 sec) 
Heartbeat CPU 0 instructions: 97000002 cycles: 100303376 heartbeat IPC: 0.636604 cumulative IPC: 0.557197 (Simulation time: 0 hr 48 min 40 sec) 
Heartbeat CPU 0 instructions: 98000001 cycles: 102457236 heartbeat IPC: 0.464282 cumulative IPC: 0.554884 (Simulation time: 0 hr 49 min 15 sec) 
Heartbeat CPU 0 instructions: 99000003 cycles: 105328456 heartbeat IPC: 0.348285 cumulative IPC: 0.548247 (Simulation time: 0 hr 49 min 50 sec) 
Heartbeat CPU 0 instructions: 100000000 cycles: 108211313 heartbeat IPC: 0.346877 cumulative IPC: 0.541955 (Simulation time: 0 hr 50 min 23 sec) 
Heartbeat CPU 0 instructions: 101000000 cycles: 111113969 heartbeat IPC: 0.344512 cumulative IPC: 0.535932 (Simulation time: 0 hr 50 min 59 sec) 
Heartbeat CPU 0 instructions: 102000000 cycles: 113173913 heartbeat IPC: 0.48545 cumulative IPC: 0.534862 (Simulation time: 0 hr 51 min 34 sec) 
Heartbeat CPU 0 instructions: 103000002 cycles: 114468283 heartbeat IPC: 0.772578 cumulative IPC: 0.537986 (Simulation time: 0 hr 52 min 10 sec) 
Heartbeat CPU 0 instructions: 104000000 cycles: 115936662 heartbeat IPC: 0.681022 cumulative IPC: 0.540086 (Simulation time: 0 hr 52 min 47 sec) 
Heartbeat CPU 0 instructions: 105000000 cycles: 117397579 heartbeat IPC: 0.684502 cumulative IPC: 0.542166 (Simulation time: 0 hr 53 min 26 sec) 
Heartbeat CPU 0 instructions: 106000003 cycles: 118867668 heartbeat IPC: 0.680233 cumulative IPC: 0.544138 (Simulation time: 0 hr 54 min 3 sec) 
Heartbeat CPU 0 instructions: 107000000 cycles: 121052878 heartbeat IPC: 0.457621 cumulative IPC: 0.542339 (Simulation time: 0 hr 54 min 35 sec) 
Heartbeat CPU 0 instructions: 108000000 cycles: 123629321 heartbeat IPC: 0.388132 cumulative IPC: 0.53865 (Simulation time: 0 hr 55 min 8 sec) 
Heartbeat CPU 0 instructions: 109000002 cycles: 126184371 heartbeat IPC: 0.391383 cumulative IPC: 0.535236 (Simulation time: 0 hr 55 min 37 sec) 
Heartbeat CPU 0 instructions: 110000002 cycles: 128766847 heartbeat IPC: 0.387225 cumulative IPC: 0.531848 (Simulation time: 0 hr 56 min 8 sec) 
Heartbeat CPU 0 instructions: 111000001 cycles: 131365806 heartbeat IPC: 0.384769 cumulative IPC: 0.528536 (Simulation time: 0 hr 56 min 38 sec) 
Heartbeat CPU 0 instructions: 112000000 cycles: 133307379 heartbeat IPC: 0.515046 cumulative IPC: 0.528313 (Simulation time: 0 hr 57 min 13 sec) 
Heartbeat CPU 0 instructions: 113000002 cycles: 134808206 heartbeat IPC: 0.666301 cumulative IPC: 0.530055 (Simulation time: 0 hr 57 min 46 sec) 
Heartbeat CPU 0 instructions: 114000001 cycles: 136291653 heartbeat IPC: 0.674105 cumulative IPC: 0.531831 (Simulation time: 0 hr 58 min 21 sec) 
Heartbeat CPU 0 instructions: 115000000 cycles: 137777043 heartbeat IPC: 0.673223 cumulative IPC: 0.533555 (Simulation time: 0 hr 58 min 56 sec) 
Heartbeat CPU 0 instructions: 116000000 cycles: 139275502 heartbeat IPC: 0.667352 cumulative IPC: 0.535181 (Simulation time: 0 hr 59 min 32 sec) 
Heartbeat CPU 0 instructions: 117000000 cycles: 141837386 heartbeat IPC: 0.390338 cumulative IPC: 0.532233 (Simulation time: 1 hr 0 min 3 sec) 
Heartbeat CPU 0 instructions: 118000001 cycles: 144586379 heartbeat IPC: 0.36377 cumulative IPC: 0.528633 (Simulation time: 1 hr 0 min 31 sec) 
Heartbeat CPU 0 instructions: 119000001 cycles: 147357019 heartbeat IPC: 0.360927 cumulative IPC: 0.525097 (Simulation time: 1 hr 1 min 3 sec) 
Heartbeat CPU 0 instructions: 120000000 cycles: 150133315 heartbeat IPC: 0.360192 cumulative IPC: 0.521685 (Simulation time: 1 hr 1 min 33 sec) 
Heartbeat CPU 0 instructions: 121000000 cycles: 152868264 heartbeat IPC: 0.365638 cumulative IPC: 0.518568 (Simulation time: 1 hr 2 min 4 sec) 
Heartbeat CPU 0 instructions: 122000000 cycles: 154127197 heartbeat IPC: 0.794323 cumulative IPC: 0.52108 (Simulation time: 1 hr 2 min 39 sec) 
Heartbeat CPU 0 instructions: 123000001 cycles: 155555952 heartbeat IPC: 0.699911 cumulative IPC: 0.52291 (Simulation time: 1 hr 3 min 15 sec) 
Heartbeat CPU 0 instructions: 124000000 cycles: 157015699 heartbeat IPC: 0.68505 cumulative IPC: 0.524588 (Simulation time: 1 hr 3 min 51 sec) 
Heartbeat CPU 0 instructions: 125000002 cycles: 158476830 heartbeat IPC: 0.684403 cumulative IPC: 0.526227 (Simulation time: 1 hr 4 min 27 sec) 
Heartbeat CPU 0 instructions: 126000001 cycles: 160016370 heartbeat IPC: 0.649544 cumulative IPC: 0.527544 (Simulation time: 1 hr 5 min 4 sec) 
Heartbeat CPU 0 instructions: 127000000 cycles: 162290942 heartbeat IPC: 0.439643 cumulative IPC: 0.526178 (Simulation time: 1 hr 5 min 38 sec) 
Heartbeat CPU 0 instructions: 128000000 cycles: 164573276 heartbeat IPC: 0.438148 cumulative IPC: 0.524826 (Simulation time: 1 hr 6 min 10 sec) 
Heartbeat CPU 0 instructions: 129000002 cycles: 166865336 heartbeat IPC: 0.43629 cumulative IPC: 0.523482 (Simulation time: 1 hr 6 min 42 sec) 
Heartbeat CPU 0 instructions: 130000003 cycles: 169164051 heartbeat IPC: 0.435026 cumulative IPC: 0.522154 (Simulation time: 1 hr 7 min 15 sec) 
Heartbeat CPU 0 instructions: 131000001 cycles: 171473077 heartbeat IPC: 0.433082 cumulative IPC: 0.520832 (Simulation time: 1 hr 7 min 48 sec) 
Heartbeat CPU 0 instructions: 132000000 cycles: 173050150 heartbeat IPC: 0.634085 cumulative IPC: 0.521969 (Simulation time: 1 hr 8 min 28 sec) 
Heartbeat CPU 0 instructions: 133000001 cycles: 174507351 heartbeat IPC: 0.686248 cumulative IPC: 0.523479 (Simulation time: 1 hr 9 min 3 sec) 
Heartbeat CPU 0 instructions: 134000000 cycles: 175954015 heartbeat IPC: 0.691245 cumulative IPC: 0.524996 (Simulation time: 1 hr 9 min 38 sec) 
Heartbeat CPU 0 instructions: 135000001 cycles: 177420820 heartbeat IPC: 0.681755 cumulative IPC: 0.52642 (Simulation time: 1 hr 10 min 17 sec) 
Heartbeat CPU 0 instructions: 136000000 cycles: 179004806 heartbeat IPC: 0.631318 cumulative IPC: 0.527439 (Simulation time: 1 hr 10 min 52 sec) 
Heartbeat CPU 0 instructions: 137000001 cycles: 181247507 heartbeat IPC: 0.445891 cumulative IPC: 0.526332 (Simulation time: 1 hr 11 min 21 sec) 
Heartbeat CPU 0 instructions: 138000001 cycles: 183539045 heartbeat IPC: 0.436388 cumulative IPC: 0.525102 (Simulation time: 1 hr 11 min 55 sec) 
Heartbeat CPU 0 instructions: 139000000 cycles: 185836715 heartbeat IPC: 0.435223 cumulative IPC: 0.523887 (Simulation time: 1 hr 12 min 26 sec) 
Heartbeat CPU 0 instructions: 140000000 cycles: 188149172 heartbeat IPC: 0.43244 cumulative IPC: 0.522659 (Simulation time: 1 hr 12 min 52 sec) 
Heartbeat CPU 0 instructions: 141000000 cycles: 190377028 heartbeat IPC: 0.448862 cumulative IPC: 0.521716 (Simulation time: 1 hr 13 min 20 sec) 
Heartbeat CPU 0 instructions: 142000002 cycles: 191509539 heartbeat IPC: 0.882995 cumulative IPC: 0.524047 (Simulation time: 1 hr 13 min 52 sec) 
Heartbeat CPU 0 instructions: 143000001 cycles: 192899072 heartbeat IPC: 0.719666 cumulative IPC: 0.525583 (Simulation time: 1 hr 14 min 24 sec) 
Heartbeat CPU 0 instructions: 144000000 cycles: 194317136 heartbeat IPC: 0.705186 cumulative IPC: 0.527011 (Simulation time: 1 hr 14 min 56 sec) 
Heartbeat CPU 0 instructions: 145000003 cycles: 195745321 heartbeat IPC: 0.700191 cumulative IPC: 0.528386 (Simulation time: 1 hr 15 min 25 sec) 
Heartbeat CPU 0 instructions: 146000002 cycles: 197171118 heartbeat IPC: 0.701361 cumulative IPC: 0.529747 (Simulation time: 1 hr 15 min 55 sec) 
Heartbeat CPU 0 instructions: 147000001 cycles: 198599522 heartbeat IPC: 0.700081 cumulative IPC: 0.531079 (Simulation time: 1 hr 16 min 27 sec) 
Heartbeat CPU 0 instructions: 148000000 cycles: 200027716 heartbeat IPC: 0.700184 cumulative IPC: 0.532391 (Simulation time: 1 hr 16 min 56 sec) 
Heartbeat CPU 0 instructions: 149000001 cycles: 201456064 heartbeat IPC: 0.70011 cumulative IPC: 0.533683 (Simulation time: 1 hr 17 min 24 sec) 
Heartbeat CPU 0 instructions: 150000000 cycles: 202884487 heartbeat IPC: 0.700072 cumulative IPC: 0.534954 (Simulation time: 1 hr 18 min 0 sec) 
Finished CPU 0 instructions: 100000002 cycles: 186931832 cummulative IPC: 0.534954 (Simulation time: 1 hr 18 min 0 sec) 

ChampSim completed all CPUs

Region of Interest Statistics

CPU 0 cummulative IPC: 0.534954 instructions: 100000002 cycles: 186931832
LLC TOTAL     ACCESS:    3739906  HIT:     153663  MISS:    3586243
LLC LOAD      ACCESS:     679673  HIT:      33045  MISS:     646628
LLC RFO       ACCESS:         20  HIT:         20  MISS:          0
LLC PREFETCH  ACCESS:    2116466  HIT:      94016  MISS:    2022450
LLC WRITEBACK ACCESS:     943747  HIT:      26582  MISS:     917165
OPTgen accesses: 11278
OPTgen hits: 96
OPTgen hit rate: 0.851215


