
*** ChampSim Multicore Out-of-Order Simulator ***

Warmup Instructions: 50000000
Simulation Instructions: 100000000
Configuration: 2
Number of CPUs: 1
LLC sets: 2048
LLC ways: 16
Off-chip DRAM Channels: 1 Width: 64-bit Data Rate: 1600 MT/s

CPU 0 runs /datasets/cs240c-wi22-a00-public/data/Assignment2-gz/gcc_13B.trace.gz
CPU 0 L1D next line prefetcher
CPU 0 L2C IP-based stride prefetcher
Initialize Hawkeye state
Heartbeat CPU 0 instructions: 1000000 cycles: 633312 heartbeat IPC: 1.579 cumulative IPC: 1.579 (Simulation time: 0 hr 0 min 44 sec) 
Heartbeat CPU 0 instructions: 2000001 cycles: 1243574 heartbeat IPC: 1.63864 cumulative IPC: 1.60827 (Simulation time: 0 hr 1 min 26 sec) 
Heartbeat CPU 0 instructions: 3000001 cycles: 1717445 heartbeat IPC: 2.11028 cumulative IPC: 1.74678 (Simulation time: 0 hr 2 min 8 sec) 
Heartbeat CPU 0 instructions: 4000000 cycles: 2191038 heartbeat IPC: 2.11152 cumulative IPC: 1.82562 (Simulation time: 0 hr 2 min 50 sec) 
Heartbeat CPU 0 instructions: 5000002 cycles: 2665153 heartbeat IPC: 2.1092 cumulative IPC: 1.87607 (Simulation time: 0 hr 3 min 33 sec) 
Heartbeat CPU 0 instructions: 6000002 cycles: 3139017 heartbeat IPC: 2.11031 cumulative IPC: 1.91143 (Simulation time: 0 hr 4 min 17 sec) 
Heartbeat CPU 0 instructions: 7000001 cycles: 3614392 heartbeat IPC: 2.1036 cumulative IPC: 1.9367 (Simulation time: 0 hr 4 min 58 sec) 
Heartbeat CPU 0 instructions: 8000000 cycles: 4091520 heartbeat IPC: 2.09587 cumulative IPC: 1.95526 (Simulation time: 0 hr 5 min 38 sec) 
Heartbeat CPU 0 instructions: 9000001 cycles: 4832514 heartbeat IPC: 1.34954 cumulative IPC: 1.86238 (Simulation time: 0 hr 6 min 25 sec) 
Heartbeat CPU 0 instructions: 10000001 cycles: 5537347 heartbeat IPC: 1.41878 cumulative IPC: 1.80592 (Simulation time: 0 hr 7 min 14 sec) 
Heartbeat CPU 0 instructions: 11000002 cycles: 6158354 heartbeat IPC: 1.61029 cumulative IPC: 1.78619 (Simulation time: 0 hr 8 min 3 sec) 
Heartbeat CPU 0 instructions: 12000000 cycles: 6772189 heartbeat IPC: 1.6291 cumulative IPC: 1.77195 (Simulation time: 0 hr 8 min 48 sec) 
Heartbeat CPU 0 instructions: 13000000 cycles: 7378187 heartbeat IPC: 1.65017 cumulative IPC: 1.76195 (Simulation time: 0 hr 9 min 33 sec) 
Heartbeat CPU 0 instructions: 14000000 cycles: 8017914 heartbeat IPC: 1.56317 cumulative IPC: 1.74609 (Simulation time: 0 hr 10 min 17 sec) 
Heartbeat CPU 0 instructions: 15000001 cycles: 8617297 heartbeat IPC: 1.66838 cumulative IPC: 1.74069 (Simulation time: 0 hr 11 min 2 sec) 
Heartbeat CPU 0 instructions: 16000000 cycles: 9090753 heartbeat IPC: 2.11213 cumulative IPC: 1.76003 (Simulation time: 0 hr 11 min 43 sec) 
Heartbeat CPU 0 instructions: 17000000 cycles: 9564746 heartbeat IPC: 2.10974 cumulative IPC: 1.77736 (Simulation time: 0 hr 12 min 25 sec) 
Heartbeat CPU 0 instructions: 18000000 cycles: 10038643 heartbeat IPC: 2.11016 cumulative IPC: 1.79307 (Simulation time: 0 hr 13 min 6 sec) 
Heartbeat CPU 0 instructions: 19000002 cycles: 10512534 heartbeat IPC: 2.11019 cumulative IPC: 1.80737 (Simulation time: 0 hr 13 min 49 sec) 
Heartbeat CPU 0 instructions: 20000000 cycles: 10988364 heartbeat IPC: 2.10159 cumulative IPC: 1.82011 (Simulation time: 0 hr 14 min 32 sec) 
Heartbeat CPU 0 instructions: 21000001 cycles: 11469690 heartbeat IPC: 2.0776 cumulative IPC: 1.83091 (Simulation time: 0 hr 15 min 16 sec) 
Heartbeat CPU 0 instructions: 22000000 cycles: 12206797 heartbeat IPC: 1.35665 cumulative IPC: 1.80227 (Simulation time: 0 hr 16 min 6 sec) 
Heartbeat CPU 0 instructions: 23000002 cycles: 12904021 heartbeat IPC: 1.43426 cumulative IPC: 1.78239 (Simulation time: 0 hr 16 min 49 sec) 
Heartbeat CPU 0 instructions: 24000000 cycles: 13523640 heartbeat IPC: 1.61389 cumulative IPC: 1.77467 (Simulation time: 0 hr 17 min 35 sec) 
Heartbeat CPU 0 instructions: 25000000 cycles: 14138463 heartbeat IPC: 1.62648 cumulative IPC: 1.76823 (Simulation time: 0 hr 18 min 20 sec) 
Heartbeat CPU 0 instructions: 26000002 cycles: 14745467 heartbeat IPC: 1.64744 cumulative IPC: 1.76325 (Simulation time: 0 hr 19 min 2 sec) 
Heartbeat CPU 0 instructions: 27000001 cycles: 15396025 heartbeat IPC: 1.53714 cumulative IPC: 1.7537 (Simulation time: 0 hr 19 min 48 sec) 
Heartbeat CPU 0 instructions: 28000000 cycles: 15978604 heartbeat IPC: 1.7165 cumulative IPC: 1.75234 (Simulation time: 0 hr 20 min 33 sec) 
Heartbeat CPU 0 instructions: 29000001 cycles: 16452319 heartbeat IPC: 2.11098 cumulative IPC: 1.76267 (Simulation time: 0 hr 21 min 17 sec) 
Heartbeat CPU 0 instructions: 30000000 cycles: 16926050 heartbeat IPC: 2.1109 cumulative IPC: 1.77242 (Simulation time: 0 hr 22 min 0 sec) 
Heartbeat CPU 0 instructions: 31000000 cycles: 17400110 heartbeat IPC: 2.10944 cumulative IPC: 1.7816 (Simulation time: 0 hr 22 min 41 sec) 
Heartbeat CPU 0 instructions: 32000000 cycles: 17874050 heartbeat IPC: 2.10997 cumulative IPC: 1.7903 (Simulation time: 0 hr 23 min 23 sec) 
Heartbeat CPU 0 instructions: 33000002 cycles: 18349758 heartbeat IPC: 2.10213 cumulative IPC: 1.79839 (Simulation time: 0 hr 24 min 3 sec) 
Heartbeat CPU 0 instructions: 34000001 cycles: 18823728 heartbeat IPC: 2.10984 cumulative IPC: 1.80623 (Simulation time: 0 hr 24 min 44 sec) 
Heartbeat CPU 0 instructions: 35000000 cycles: 19468517 heartbeat IPC: 1.55089 cumulative IPC: 1.79777 (Simulation time: 0 hr 25 min 33 sec) 
Heartbeat CPU 0 instructions: 36000000 cycles: 20152959 heartbeat IPC: 1.46104 cumulative IPC: 1.78634 (Simulation time: 0 hr 26 min 18 sec) 
Heartbeat CPU 0 instructions: 37000003 cycles: 20837721 heartbeat IPC: 1.46037 cumulative IPC: 1.77563 (Simulation time: 0 hr 27 min 4 sec) 
Heartbeat CPU 0 instructions: 38000000 cycles: 21522937 heartbeat IPC: 1.45939 cumulative IPC: 1.76556 (Simulation time: 0 hr 27 min 46 sec) 
Heartbeat CPU 0 instructions: 39000002 cycles: 22207590 heartbeat IPC: 1.4606 cumulative IPC: 1.75616 (Simulation time: 0 hr 28 min 29 sec) 
Heartbeat CPU 0 instructions: 40000000 cycles: 22892771 heartbeat IPC: 1.45947 cumulative IPC: 1.74728 (Simulation time: 0 hr 29 min 13 sec) 
Heartbeat CPU 0 instructions: 41000000 cycles: 23577685 heartbeat IPC: 1.46004 cumulative IPC: 1.73893 (Simulation time: 0 hr 29 min 57 sec) 
Heartbeat CPU 0 instructions: 42000000 cycles: 24262350 heartbeat IPC: 1.46057 cumulative IPC: 1.73108 (Simulation time: 0 hr 30 min 42 sec) 
Heartbeat CPU 0 instructions: 43000002 cycles: 24947428 heartbeat IPC: 1.45969 cumulative IPC: 1.72362 (Simulation time: 0 hr 31 min 25 sec) 
Heartbeat CPU 0 instructions: 44000000 cycles: 25632503 heartbeat IPC: 1.45969 cumulative IPC: 1.71657 (Simulation time: 0 hr 32 min 8 sec) 
Heartbeat CPU 0 instructions: 45000000 cycles: 26318257 heartbeat IPC: 1.45825 cumulative IPC: 1.70984 (Simulation time: 0 hr 32 min 51 sec) 
Heartbeat CPU 0 instructions: 46000002 cycles: 27003509 heartbeat IPC: 1.45932 cumulative IPC: 1.70348 (Simulation time: 0 hr 33 min 31 sec) 
Heartbeat CPU 0 instructions: 47000001 cycles: 27688200 heartbeat IPC: 1.46051 cumulative IPC: 1.69747 (Simulation time: 0 hr 34 min 12 sec) 
Heartbeat CPU 0 instructions: 48000000 cycles: 28372492 heartbeat IPC: 1.46136 cumulative IPC: 1.69178 (Simulation time: 0 hr 34 min 56 sec) 
Heartbeat CPU 0 instructions: 49000000 cycles: 29057692 heartbeat IPC: 1.45943 cumulative IPC: 1.6863 (Simulation time: 0 hr 35 min 39 sec) 
Heartbeat CPU 0 instructions: 50000003 cycles: 29741991 heartbeat IPC: 1.46135 cumulative IPC: 1.68112 (Simulation time: 0 hr 36 min 19 sec) 

Warmup complete CPU 0 instructions: 50000003 cycles: 29741991 (Simulation time: 0 hr 36 min 19 sec) 

Heartbeat CPU 0 instructions: 51000001 cycles: 33320840 heartbeat IPC: 0.279419 cumulative IPC: 0.279419 (Simulation time: 0 hr 37 min 5 sec) 
Heartbeat CPU 0 instructions: 52000000 cycles: 36885736 heartbeat IPC: 0.280513 cumulative IPC: 0.279965 (Simulation time: 0 hr 37 min 49 sec) 
Heartbeat CPU 0 instructions: 53000001 cycles: 40466149 heartbeat IPC: 0.279298 cumulative IPC: 0.279742 (Simulation time: 0 hr 38 min 36 sec) 
Heartbeat CPU 0 instructions: 54000000 cycles: 44039686 heartbeat IPC: 0.279835 cumulative IPC: 0.279765 (Simulation time: 0 hr 39 min 25 sec) 
Heartbeat CPU 0 instructions: 55000000 cycles: 47623699 heartbeat IPC: 0.279017 cumulative IPC: 0.279615 (Simulation time: 0 hr 40 min 14 sec) 
Heartbeat CPU 0 instructions: 56000000 cycles: 51194969 heartbeat IPC: 0.280012 cumulative IPC: 0.279681 (Simulation time: 0 hr 41 min 2 sec) 
Heartbeat CPU 0 instructions: 57000002 cycles: 54734553 heartbeat IPC: 0.28252 cumulative IPC: 0.280083 (Simulation time: 0 hr 41 min 47 sec) 
Heartbeat CPU 0 instructions: 58000001 cycles: 58279798 heartbeat IPC: 0.282068 cumulative IPC: 0.28033 (Simulation time: 0 hr 42 min 36 sec) 
Heartbeat CPU 0 instructions: 59000003 cycles: 61798036 heartbeat IPC: 0.284234 cumulative IPC: 0.280758 (Simulation time: 0 hr 43 min 23 sec) 
Heartbeat CPU 0 instructions: 60000000 cycles: 65313073 heartbeat IPC: 0.284491 cumulative IPC: 0.281127 (Simulation time: 0 hr 44 min 12 sec) 
Heartbeat CPU 0 instructions: 61000000 cycles: 68823785 heartbeat IPC: 0.284842 cumulative IPC: 0.281461 (Simulation time: 0 hr 45 min 1 sec) 
Heartbeat CPU 0 instructions: 62000003 cycles: 72330756 heartbeat IPC: 0.285147 cumulative IPC: 0.281764 (Simulation time: 0 hr 45 min 45 sec) 
Heartbeat CPU 0 instructions: 63000001 cycles: 75839851 heartbeat IPC: 0.284973 cumulative IPC: 0.282009 (Simulation time: 0 hr 46 min 32 sec) 
Heartbeat CPU 0 instructions: 64000000 cycles: 79368788 heartbeat IPC: 0.283371 cumulative IPC: 0.282106 (Simulation time: 0 hr 47 min 18 sec) 
Heartbeat CPU 0 instructions: 65000000 cycles: 82935586 heartbeat IPC: 0.280364 cumulative IPC: 0.281989 (Simulation time: 0 hr 48 min 3 sec) 
Heartbeat CPU 0 instructions: 66000000 cycles: 86494643 heartbeat IPC: 0.280973 cumulative IPC: 0.281925 (Simulation time: 0 hr 48 min 49 sec) 
Heartbeat CPU 0 instructions: 67000001 cycles: 90045127 heartbeat IPC: 0.281652 cumulative IPC: 0.281909 (Simulation time: 0 hr 49 min 40 sec) 
Heartbeat CPU 0 instructions: 68000000 cycles: 93619680 heartbeat IPC: 0.279755 cumulative IPC: 0.281788 (Simulation time: 0 hr 50 min 32 sec) 
Heartbeat CPU 0 instructions: 69000003 cycles: 97268949 heartbeat IPC: 0.274028 cumulative IPC: 0.281369 (Simulation time: 0 hr 51 min 20 sec) 
Heartbeat CPU 0 instructions: 70000000 cycles: 101062752 heartbeat IPC: 0.263587 cumulative IPC: 0.280423 (Simulation time: 0 hr 52 min 10 sec) 
Heartbeat CPU 0 instructions: 71000000 cycles: 104654121 heartbeat IPC: 0.278445 cumulative IPC: 0.280328 (Simulation time: 0 hr 53 min 2 sec) 
Heartbeat CPU 0 instructions: 72000000 cycles: 108196116 heartbeat IPC: 0.282327 cumulative IPC: 0.280419 (Simulation time: 0 hr 53 min 53 sec) 
Heartbeat CPU 0 instructions: 73000003 cycles: 111779469 heartbeat IPC: 0.279069 cumulative IPC: 0.28036 (Simulation time: 0 hr 54 min 39 sec) 
Heartbeat CPU 0 instructions: 74000000 cycles: 115384937 heartbeat IPC: 0.277356 cumulative IPC: 0.280233 (Simulation time: 0 hr 55 min 29 sec) 
Heartbeat CPU 0 instructions: 75000000 cycles: 118989266 heartbeat IPC: 0.277444 cumulative IPC: 0.280121 (Simulation time: 0 hr 56 min 16 sec) 
Heartbeat CPU 0 instructions: 76000000 cycles: 122621886 heartbeat IPC: 0.275283 cumulative IPC: 0.279931 (Simulation time: 0 hr 57 min 4 sec) 
Heartbeat CPU 0 instructions: 77000000 cycles: 126224994 heartbeat IPC: 0.277538 cumulative IPC: 0.279842 (Simulation time: 0 hr 57 min 53 sec) 
Heartbeat CPU 0 instructions: 78000003 cycles: 129777205 heartbeat IPC: 0.281516 cumulative IPC: 0.279901 (Simulation time: 0 hr 58 min 41 sec) 
Heartbeat CPU 0 instructions: 79000000 cycles: 133357186 heartbeat IPC: 0.27933 cumulative IPC: 0.279882 (Simulation time: 0 hr 59 min 27 sec) 
Heartbeat CPU 0 instructions: 80000000 cycles: 136903973 heartbeat IPC: 0.281945 cumulative IPC: 0.27995 (Simulation time: 1 hr 0 min 14 sec) 
Heartbeat CPU 0 instructions: 81000001 cycles: 140438456 heartbeat IPC: 0.282927 cumulative IPC: 0.280045 (Simulation time: 1 hr 1 min 0 sec) 
Heartbeat CPU 0 instructions: 82000000 cycles: 143977263 heartbeat IPC: 0.282581 cumulative IPC: 0.280124 (Simulation time: 1 hr 1 min 48 sec) 
Heartbeat CPU 0 instructions: 83000003 cycles: 147534760 heartbeat IPC: 0.281097 cumulative IPC: 0.280153 (Simulation time: 1 hr 2 min 38 sec) 
Heartbeat CPU 0 instructions: 84000000 cycles: 151074414 heartbeat IPC: 0.282513 cumulative IPC: 0.280222 (Simulation time: 1 hr 3 min 26 sec) 
Heartbeat CPU 0 instructions: 85000000 cycles: 154609461 heartbeat IPC: 0.282882 cumulative IPC: 0.280297 (Simulation time: 1 hr 4 min 16 sec) 
Heartbeat CPU 0 instructions: 86000001 cycles: 158153924 heartbeat IPC: 0.28213 cumulative IPC: 0.280348 (Simulation time: 1 hr 5 min 7 sec) 
Heartbeat CPU 0 instructions: 87000001 cycles: 161705345 heartbeat IPC: 0.281577 cumulative IPC: 0.280381 (Simulation time: 1 hr 5 min 56 sec) 
Heartbeat CPU 0 instructions: 88000000 cycles: 165245859 heartbeat IPC: 0.282445 cumulative IPC: 0.280435 (Simulation time: 1 hr 6 min 48 sec) 
Heartbeat CPU 0 instructions: 89000003 cycles: 168786530 heartbeat IPC: 0.282433 cumulative IPC: 0.280486 (Simulation time: 1 hr 7 min 41 sec) 
Heartbeat CPU 0 instructions: 90000000 cycles: 172325088 heartbeat IPC: 0.2826 cumulative IPC: 0.280538 (Simulation time: 1 hr 8 min 35 sec) 
Heartbeat CPU 0 instructions: 91000000 cycles: 175852104 heartbeat IPC: 0.283526 cumulative IPC: 0.28061 (Simulation time: 1 hr 9 min 23 sec) 
Heartbeat CPU 0 instructions: 92000000 cycles: 179363233 heartbeat IPC: 0.284809 cumulative IPC: 0.280709 (Simulation time: 1 hr 10 min 15 sec) 
Heartbeat CPU 0 instructions: 93000001 cycles: 182878587 heartbeat IPC: 0.284467 cumulative IPC: 0.280795 (Simulation time: 1 hr 11 min 3 sec) 
Heartbeat CPU 0 instructions: 94000003 cycles: 186384292 heartbeat IPC: 0.28525 cumulative IPC: 0.280895 (Simulation time: 1 hr 11 min 51 sec) 
Heartbeat CPU 0 instructions: 95000002 cycles: 189896838 heartbeat IPC: 0.284694 cumulative IPC: 0.280978 (Simulation time: 1 hr 12 min 36 sec) 
Heartbeat CPU 0 instructions: 96000000 cycles: 193391558 heartbeat IPC: 0.286145 cumulative IPC: 0.281088 (Simulation time: 1 hr 13 min 19 sec) 
Heartbeat CPU 0 instructions: 97000000 cycles: 196882032 heartbeat IPC: 0.286494 cumulative IPC: 0.281201 (Simulation time: 1 hr 14 min 5 sec) 
Heartbeat CPU 0 instructions: 98000000 cycles: 200365691 heartbeat IPC: 0.287055 cumulative IPC: 0.281321 (Simulation time: 1 hr 14 min 46 sec) 
Heartbeat CPU 0 instructions: 99000000 cycles: 203870238 heartbeat IPC: 0.285344 cumulative IPC: 0.281402 (Simulation time: 1 hr 15 min 27 sec) 
Heartbeat CPU 0 instructions: 100000000 cycles: 207403297 heartbeat IPC: 0.283041 cumulative IPC: 0.281434 (Simulation time: 1 hr 16 min 6 sec) 
Heartbeat CPU 0 instructions: 101000003 cycles: 210911223 heartbeat IPC: 0.28507 cumulative IPC: 0.281505 (Simulation time: 1 hr 16 min 46 sec) 
Heartbeat CPU 0 instructions: 102000000 cycles: 214679519 heartbeat IPC: 0.265371 cumulative IPC: 0.281176 (Simulation time: 1 hr 17 min 26 sec) 
Heartbeat CPU 0 instructions: 103000002 cycles: 218780124 heartbeat IPC: 0.243867 cumulative IPC: 0.280367 (Simulation time: 1 hr 18 min 9 sec) 
Heartbeat CPU 0 instructions: 104000000 cycles: 222869728 heartbeat IPC: 0.244522 cumulative IPC: 0.279608 (Simulation time: 1 hr 18 min 48 sec) 
Heartbeat CPU 0 instructions: 105000000 cycles: 226734322 heartbeat IPC: 0.258759 cumulative IPC: 0.279199 (Simulation time: 1 hr 19 min 24 sec) 
Heartbeat CPU 0 instructions: 106000002 cycles: 230591861 heartbeat IPC: 0.259233 cumulative IPC: 0.278815 (Simulation time: 1 hr 19 min 59 sec) 
Heartbeat CPU 0 instructions: 107000001 cycles: 234501180 heartbeat IPC: 0.255799 cumulative IPC: 0.278376 (Simulation time: 1 hr 20 min 35 sec) 
Heartbeat CPU 0 instructions: 108000000 cycles: 238308344 heartbeat IPC: 0.262662 cumulative IPC: 0.278089 (Simulation time: 1 hr 21 min 17 sec) 
Heartbeat CPU 0 instructions: 109000000 cycles: 242032771 heartbeat IPC: 0.268498 cumulative IPC: 0.277921 (Simulation time: 1 hr 21 min 50 sec) 
Heartbeat CPU 0 instructions: 110000002 cycles: 245732272 heartbeat IPC: 0.270307 cumulative IPC: 0.27779 (Simulation time: 1 hr 22 min 23 sec) 
Heartbeat CPU 0 instructions: 111000000 cycles: 249413047 heartbeat IPC: 0.271681 cumulative IPC: 0.277688 (Simulation time: 1 hr 22 min 56 sec) 
Heartbeat CPU 0 instructions: 112000000 cycles: 253095713 heartbeat IPC: 0.271542 cumulative IPC: 0.277587 (Simulation time: 1 hr 23 min 28 sec) 
Heartbeat CPU 0 instructions: 113000001 cycles: 256794262 heartbeat IPC: 0.270377 cumulative IPC: 0.277469 (Simulation time: 1 hr 24 min 0 sec) 
Heartbeat CPU 0 instructions: 114000000 cycles: 260476148 heartbeat IPC: 0.2716 cumulative IPC: 0.277375 (Simulation time: 1 hr 24 min 29 sec) 
Heartbeat CPU 0 instructions: 115000003 cycles: 264042068 heartbeat IPC: 0.280433 cumulative IPC: 0.277422 (Simulation time: 1 hr 24 min 58 sec) 
Heartbeat CPU 0 instructions: 116000000 cycles: 267569917 heartbeat IPC: 0.283458 cumulative IPC: 0.277512 (Simulation time: 1 hr 25 min 25 sec) 
Heartbeat CPU 0 instructions: 117000001 cycles: 271085669 heartbeat IPC: 0.284434 cumulative IPC: 0.277612 (Simulation time: 1 hr 25 min 51 sec) 
Heartbeat CPU 0 instructions: 118000000 cycles: 274603904 heartbeat IPC: 0.284233 cumulative IPC: 0.277708 (Simulation time: 1 hr 26 min 19 sec) 
Heartbeat CPU 0 instructions: 119000001 cycles: 278309380 heartbeat IPC: 0.269871 cumulative IPC: 0.277591 (Simulation time: 1 hr 26 min 44 sec) 
Heartbeat CPU 0 instructions: 120000000 cycles: 283237586 heartbeat IPC: 0.202913 cumulative IPC: 0.276139 (Simulation time: 1 hr 27 min 14 sec) 
Heartbeat CPU 0 instructions: 121000001 cycles: 289173273 heartbeat IPC: 0.168473 cumulative IPC: 0.273676 (Simulation time: 1 hr 27 min 45 sec) 
Heartbeat CPU 0 instructions: 122000000 cycles: 294785112 heartbeat IPC: 0.178195 cumulative IPC: 0.271654 (Simulation time: 1 hr 28 min 15 sec) 
Heartbeat CPU 0 instructions: 123000001 cycles: 300402995 heartbeat IPC: 0.178003 cumulative IPC: 0.26971 (Simulation time: 1 hr 28 min 44 sec) 
Heartbeat CPU 0 instructions: 124000000 cycles: 305957245 heartbeat IPC: 0.180042 cumulative IPC: 0.267907 (Simulation time: 1 hr 29 min 12 sec) 
Heartbeat CPU 0 instructions: 125000003 cycles: 311416845 heartbeat IPC: 0.183164 cumulative IPC: 0.266264 (Simulation time: 1 hr 29 min 41 sec) 
Heartbeat CPU 0 instructions: 126000000 cycles: 316867852 heartbeat IPC: 0.183452 cumulative IPC: 0.264692 (Simulation time: 1 hr 30 min 9 sec) 
Heartbeat CPU 0 instructions: 127000003 cycles: 322328271 heartbeat IPC: 0.183137 cumulative IPC: 0.26317 (Simulation time: 1 hr 30 min 36 sec) 
Heartbeat CPU 0 instructions: 128000000 cycles: 327671995 heartbeat IPC: 0.187135 cumulative IPC: 0.261806 (Simulation time: 1 hr 31 min 2 sec) 
Heartbeat CPU 0 instructions: 129000002 cycles: 332884485 heartbeat IPC: 0.191847 cumulative IPC: 0.260604 (Simulation time: 1 hr 31 min 29 sec) 
Heartbeat CPU 0 instructions: 130000000 cycles: 338056012 heartbeat IPC: 0.193366 cumulative IPC: 0.259476 (Simulation time: 1 hr 31 min 57 sec) 
Heartbeat CPU 0 instructions: 131000001 cycles: 343427631 heartbeat IPC: 0.186164 cumulative IPC: 0.25822 (Simulation time: 1 hr 32 min 23 sec) 
Heartbeat CPU 0 instructions: 132000000 cycles: 348890114 heartbeat IPC: 0.183067 cumulative IPC: 0.256934 (Simulation time: 1 hr 32 min 47 sec) 
Heartbeat CPU 0 instructions: 133000000 cycles: 354507959 heartbeat IPC: 0.178004 cumulative IPC: 0.255569 (Simulation time: 1 hr 33 min 10 sec) 
Heartbeat CPU 0 instructions: 134000002 cycles: 359698039 heartbeat IPC: 0.192676 cumulative IPC: 0.254579 (Simulation time: 1 hr 33 min 30 sec) 
Heartbeat CPU 0 instructions: 135000000 cycles: 364836189 heartbeat IPC: 0.194622 cumulative IPC: 0.25366 (Simulation time: 1 hr 33 min 49 sec) 
Heartbeat CPU 0 instructions: 136000000 cycles: 370008884 heartbeat IPC: 0.193323 cumulative IPC: 0.252743 (Simulation time: 1 hr 34 min 6 sec) 
Heartbeat CPU 0 instructions: 137000001 cycles: 375080023 heartbeat IPC: 0.197195 cumulative IPC: 0.251927 (Simulation time: 1 hr 34 min 22 sec) 
Heartbeat CPU 0 instructions: 138000002 cycles: 380049204 heartbeat IPC: 0.201241 cumulative IPC: 0.251208 (Simulation time: 1 hr 34 min 37 sec) 
Heartbeat CPU 0 instructions: 139000000 cycles: 385015926 heartbeat IPC: 0.20134 cumulative IPC: 0.250511 (Simulation time: 1 hr 34 min 50 sec) 
Heartbeat CPU 0 instructions: 140000000 cycles: 389982567 heartbeat IPC: 0.201343 cumulative IPC: 0.249833 (Simulation time: 1 hr 35 min 3 sec) 
Heartbeat CPU 0 instructions: 141000000 cycles: 394951220 heartbeat IPC: 0.201262 cumulative IPC: 0.249172 (Simulation time: 1 hr 35 min 16 sec) 
Heartbeat CPU 0 instructions: 142000000 cycles: 399864151 heartbeat IPC: 0.203544 cumulative IPC: 0.248567 (Simulation time: 1 hr 35 min 29 sec) 
Heartbeat CPU 0 instructions: 143000000 cycles: 404743510 heartbeat IPC: 0.204945 cumulative IPC: 0.247999 (Simulation time: 1 hr 35 min 42 sec) 
Heartbeat CPU 0 instructions: 144000000 cycles: 409589903 heartbeat IPC: 0.206339 cumulative IPC: 0.247467 (Simulation time: 1 hr 35 min 55 sec) 
Heartbeat CPU 0 instructions: 145000000 cycles: 414414545 heartbeat IPC: 0.207269 cumulative IPC: 0.246963 (Simulation time: 1 hr 36 min 7 sec) 
Heartbeat CPU 0 instructions: 146000000 cycles: 419335489 heartbeat IPC: 0.203213 cumulative IPC: 0.246411 (Simulation time: 1 hr 36 min 17 sec) 
Heartbeat CPU 0 instructions: 147000000 cycles: 422955423 heartbeat IPC: 0.276248 cumulative IPC: 0.246685 (Simulation time: 1 hr 36 min 28 sec) 
Heartbeat CPU 0 instructions: 148000000 cycles: 427869319 heartbeat IPC: 0.203505 cumulative IPC: 0.246152 (Simulation time: 1 hr 36 min 36 sec) 
Heartbeat CPU 0 instructions: 149000003 cycles: 432738238 heartbeat IPC: 0.205385 cumulative IPC: 0.24566 (Simulation time: 1 hr 36 min 45 sec) 
Heartbeat CPU 0 instructions: 150000001 cycles: 437083122 heartbeat IPC: 0.230155 cumulative IPC: 0.245494 (Simulation time: 1 hr 36 min 52 sec) 
Finished CPU 0 instructions: 100000002 cycles: 407341132 cummulative IPC: 0.245494 (Simulation time: 1 hr 36 min 52 sec) 

ChampSim completed all CPUs

Region of Interest Statistics

CPU 0 cummulative IPC: 0.245494 instructions: 100000002 cycles: 407341132
LLC TOTAL     ACCESS:    1690046  HIT:     139425  MISS:    1550621
LLC LOAD      ACCESS:     565223  HIT:      35780  MISS:     529443
LLC RFO       ACCESS:      88720  HIT:        636  MISS:      88084
LLC PREFETCH  ACCESS:     720300  HIT:      46627  MISS:     673673
LLC WRITEBACK ACCESS:     315803  HIT:      56382  MISS:     259421
OPTgen accesses: 23985
OPTgen hits: 2601
OPTgen hit rate: 10.8443


