
*** ChampSim Multicore Out-of-Order Simulator ***

Warmup Instructions: 50000000
Simulation Instructions: 100000000
Configuration: 2
Number of CPUs: 1
LLC sets: 2048
LLC ways: 16
Off-chip DRAM Channels: 1 Width: 64-bit Data Rate: 1600 MT/s

CPU 0 runs /datasets/cs240c-wi22-a00-public/data/Assignment2-gz/wrf_1650B.trace.gz
CPU 0 L1D next line prefetcher
CPU 0 L2C IP-based stride prefetcher
Initialize Hawkeye state
Heartbeat CPU 0 instructions: 1000000 cycles: 514299 heartbeat IPC: 1.94439 cumulative IPC: 1.94439 (Simulation time: 0 hr 0 min 37 sec) 
Heartbeat CPU 0 instructions: 2000000 cycles: 1028473 heartbeat IPC: 1.94487 cumulative IPC: 1.94463 (Simulation time: 0 hr 1 min 14 sec) 
Heartbeat CPU 0 instructions: 3000001 cycles: 1546184 heartbeat IPC: 1.93158 cumulative IPC: 1.94026 (Simulation time: 0 hr 1 min 52 sec) 
Heartbeat CPU 0 instructions: 4000000 cycles: 2063940 heartbeat IPC: 1.93141 cumulative IPC: 1.93804 (Simulation time: 0 hr 2 min 30 sec) 
Heartbeat CPU 0 instructions: 5000001 cycles: 2581687 heartbeat IPC: 1.93145 cumulative IPC: 1.93672 (Simulation time: 0 hr 3 min 7 sec) 
Heartbeat CPU 0 instructions: 6000003 cycles: 3099505 heartbeat IPC: 1.93118 cumulative IPC: 1.93579 (Simulation time: 0 hr 3 min 49 sec) 
Heartbeat CPU 0 instructions: 7000000 cycles: 3617214 heartbeat IPC: 1.93158 cumulative IPC: 1.93519 (Simulation time: 0 hr 4 min 29 sec) 
Heartbeat CPU 0 instructions: 8000000 cycles: 4135023 heartbeat IPC: 1.93121 cumulative IPC: 1.93469 (Simulation time: 0 hr 5 min 6 sec) 
Heartbeat CPU 0 instructions: 9000001 cycles: 4649336 heartbeat IPC: 1.94434 cumulative IPC: 1.93576 (Simulation time: 0 hr 5 min 43 sec) 
Heartbeat CPU 0 instructions: 10000001 cycles: 5163453 heartbeat IPC: 1.94508 cumulative IPC: 1.93669 (Simulation time: 0 hr 6 min 22 sec) 
Heartbeat CPU 0 instructions: 11000001 cycles: 5677587 heartbeat IPC: 1.94502 cumulative IPC: 1.93744 (Simulation time: 0 hr 7 min 0 sec) 
Heartbeat CPU 0 instructions: 12000000 cycles: 6193737 heartbeat IPC: 1.93742 cumulative IPC: 1.93744 (Simulation time: 0 hr 7 min 38 sec) 
Heartbeat CPU 0 instructions: 13000002 cycles: 6711432 heartbeat IPC: 1.93164 cumulative IPC: 1.93699 (Simulation time: 0 hr 8 min 17 sec) 
Heartbeat CPU 0 instructions: 14000002 cycles: 7229229 heartbeat IPC: 1.93126 cumulative IPC: 1.93658 (Simulation time: 0 hr 8 min 55 sec) 
Heartbeat CPU 0 instructions: 15000001 cycles: 7746913 heartbeat IPC: 1.93168 cumulative IPC: 1.93626 (Simulation time: 0 hr 9 min 35 sec) 
Heartbeat CPU 0 instructions: 16000000 cycles: 8264628 heartbeat IPC: 1.93156 cumulative IPC: 1.93596 (Simulation time: 0 hr 10 min 13 sec) 
Heartbeat CPU 0 instructions: 17000000 cycles: 8782346 heartbeat IPC: 1.93155 cumulative IPC: 1.9357 (Simulation time: 0 hr 10 min 55 sec) 
Heartbeat CPU 0 instructions: 18000001 cycles: 9298211 heartbeat IPC: 1.93849 cumulative IPC: 1.93586 (Simulation time: 0 hr 11 min 34 sec) 
Heartbeat CPU 0 instructions: 19000003 cycles: 9812269 heartbeat IPC: 1.94531 cumulative IPC: 1.93635 (Simulation time: 0 hr 12 min 11 sec) 
Heartbeat CPU 0 instructions: 20000000 cycles: 10326480 heartbeat IPC: 1.94472 cumulative IPC: 1.93677 (Simulation time: 0 hr 12 min 47 sec) 
Heartbeat CPU 0 instructions: 21000000 cycles: 10841175 heartbeat IPC: 1.9429 cumulative IPC: 1.93706 (Simulation time: 0 hr 13 min 25 sec) 
Heartbeat CPU 0 instructions: 22000000 cycles: 11358990 heartbeat IPC: 1.93119 cumulative IPC: 1.93679 (Simulation time: 0 hr 14 min 2 sec) 
Heartbeat CPU 0 instructions: 23000003 cycles: 11876757 heartbeat IPC: 1.93138 cumulative IPC: 1.93656 (Simulation time: 0 hr 14 min 39 sec) 
Heartbeat CPU 0 instructions: 24000000 cycles: 12394524 heartbeat IPC: 1.93136 cumulative IPC: 1.93634 (Simulation time: 0 hr 15 min 16 sec) 
Heartbeat CPU 0 instructions: 25000000 cycles: 12912214 heartbeat IPC: 1.93166 cumulative IPC: 1.93615 (Simulation time: 0 hr 15 min 55 sec) 
Heartbeat CPU 0 instructions: 26000001 cycles: 13429933 heartbeat IPC: 1.93155 cumulative IPC: 1.93597 (Simulation time: 0 hr 16 min 33 sec) 
Heartbeat CPU 0 instructions: 27000002 cycles: 13947348 heartbeat IPC: 1.93269 cumulative IPC: 1.93585 (Simulation time: 0 hr 17 min 9 sec) 
Heartbeat CPU 0 instructions: 28000000 cycles: 14461488 heartbeat IPC: 1.94499 cumulative IPC: 1.93618 (Simulation time: 0 hr 17 min 48 sec) 
Heartbeat CPU 0 instructions: 29000003 cycles: 14975725 heartbeat IPC: 1.94463 cumulative IPC: 1.93647 (Simulation time: 0 hr 18 min 27 sec) 
Heartbeat CPU 0 instructions: 30000002 cycles: 15489912 heartbeat IPC: 1.94482 cumulative IPC: 1.93674 (Simulation time: 0 hr 19 min 4 sec) 
Heartbeat CPU 0 instructions: 31000001 cycles: 16006549 heartbeat IPC: 1.93559 cumulative IPC: 1.93671 (Simulation time: 0 hr 19 min 43 sec) 
Heartbeat CPU 0 instructions: 32000000 cycles: 16524170 heartbeat IPC: 1.93191 cumulative IPC: 1.93656 (Simulation time: 0 hr 20 min 19 sec) 
Heartbeat CPU 0 instructions: 33000001 cycles: 17041842 heartbeat IPC: 1.93173 cumulative IPC: 1.93641 (Simulation time: 0 hr 20 min 58 sec) 
Heartbeat CPU 0 instructions: 34000002 cycles: 17559440 heartbeat IPC: 1.932 cumulative IPC: 1.93628 (Simulation time: 0 hr 21 min 36 sec) 
Heartbeat CPU 0 instructions: 35000001 cycles: 18077270 heartbeat IPC: 1.93113 cumulative IPC: 1.93613 (Simulation time: 0 hr 22 min 14 sec) 
Heartbeat CPU 0 instructions: 36000000 cycles: 18594991 heartbeat IPC: 1.93154 cumulative IPC: 1.93601 (Simulation time: 0 hr 22 min 51 sec) 
Heartbeat CPU 0 instructions: 37000003 cycles: 19110667 heartbeat IPC: 1.93921 cumulative IPC: 1.93609 (Simulation time: 0 hr 23 min 27 sec) 
Heartbeat CPU 0 instructions: 38000000 cycles: 19624818 heartbeat IPC: 1.94495 cumulative IPC: 1.93632 (Simulation time: 0 hr 24 min 3 sec) 
Heartbeat CPU 0 instructions: 39000001 cycles: 20138999 heartbeat IPC: 1.94484 cumulative IPC: 1.93654 (Simulation time: 0 hr 24 min 38 sec) 
Heartbeat CPU 0 instructions: 40000000 cycles: 20654040 heartbeat IPC: 1.94159 cumulative IPC: 1.93667 (Simulation time: 0 hr 25 min 15 sec) 
Heartbeat CPU 0 instructions: 41000000 cycles: 21171690 heartbeat IPC: 1.93181 cumulative IPC: 1.93655 (Simulation time: 0 hr 25 min 54 sec) 
Heartbeat CPU 0 instructions: 42000003 cycles: 21689691 heartbeat IPC: 1.9305 cumulative IPC: 1.9364 (Simulation time: 0 hr 26 min 31 sec) 
Heartbeat CPU 0 instructions: 43000001 cycles: 22207425 heartbeat IPC: 1.93149 cumulative IPC: 1.93629 (Simulation time: 0 hr 27 min 6 sec) 
Heartbeat CPU 0 instructions: 44000000 cycles: 22725175 heartbeat IPC: 1.93143 cumulative IPC: 1.93618 (Simulation time: 0 hr 27 min 40 sec) 
Heartbeat CPU 0 instructions: 45000000 cycles: 23242894 heartbeat IPC: 1.93155 cumulative IPC: 1.93608 (Simulation time: 0 hr 28 min 15 sec) 
Heartbeat CPU 0 instructions: 46000003 cycles: 23740902 heartbeat IPC: 2.00801 cumulative IPC: 1.93758 (Simulation time: 0 hr 28 min 53 sec) 
Heartbeat CPU 0 instructions: 47000002 cycles: 24391800 heartbeat IPC: 1.53634 cumulative IPC: 1.92688 (Simulation time: 0 hr 29 min 36 sec) 
Heartbeat CPU 0 instructions: 48000000 cycles: 25044140 heartbeat IPC: 1.53294 cumulative IPC: 1.91662 (Simulation time: 0 hr 30 min 19 sec) 
Heartbeat CPU 0 instructions: 49000001 cycles: 25692668 heartbeat IPC: 1.54195 cumulative IPC: 1.90716 (Simulation time: 0 hr 31 min 3 sec) 
Heartbeat CPU 0 instructions: 50000000 cycles: 26341304 heartbeat IPC: 1.5417 cumulative IPC: 1.89816 (Simulation time: 0 hr 31 min 43 sec) 

Warmup complete CPU 0 instructions: 50000001 cycles: 26341307 (Simulation time: 0 hr 31 min 43 sec) 

Heartbeat CPU 0 instructions: 51000000 cycles: 28244151 heartbeat IPC: 0.525528 cumulative IPC: 0.525529 (Simulation time: 0 hr 32 min 32 sec) 
Heartbeat CPU 0 instructions: 52000000 cycles: 30018434 heartbeat IPC: 0.563608 cumulative IPC: 0.543903 (Simulation time: 0 hr 33 min 16 sec) 
Heartbeat CPU 0 instructions: 53000002 cycles: 31072675 heartbeat IPC: 0.948552 cumulative IPC: 0.634066 (Simulation time: 0 hr 33 min 56 sec) 
Heartbeat CPU 0 instructions: 54000001 cycles: 32024612 heartbeat IPC: 1.05049 cumulative IPC: 0.703816 (Simulation time: 0 hr 34 min 36 sec) 
Heartbeat CPU 0 instructions: 55000000 cycles: 32937498 heartbeat IPC: 1.09543 cumulative IPC: 0.758013 (Simulation time: 0 hr 35 min 16 sec) 
Heartbeat CPU 0 instructions: 56000000 cycles: 33819702 heartbeat IPC: 1.13352 cumulative IPC: 0.802311 (Simulation time: 0 hr 35 min 55 sec) 
Heartbeat CPU 0 instructions: 57000001 cycles: 34702362 heartbeat IPC: 1.13294 cumulative IPC: 0.837215 (Simulation time: 0 hr 36 min 37 sec) 
Heartbeat CPU 0 instructions: 58000002 cycles: 35588277 heartbeat IPC: 1.12878 cumulative IPC: 0.865148 (Simulation time: 0 hr 37 min 16 sec) 
Heartbeat CPU 0 instructions: 59000003 cycles: 36477602 heartbeat IPC: 1.12445 cumulative IPC: 0.887899 (Simulation time: 0 hr 37 min 53 sec) 
Heartbeat CPU 0 instructions: 60000000 cycles: 37363222 heartbeat IPC: 1.12915 cumulative IPC: 0.907283 (Simulation time: 0 hr 38 min 35 sec) 
Heartbeat CPU 0 instructions: 61000003 cycles: 38658296 heartbeat IPC: 0.772159 cumulative IPC: 0.893076 (Simulation time: 0 hr 39 min 16 sec) 
Heartbeat CPU 0 instructions: 62000002 cycles: 40145932 heartbeat IPC: 0.672207 cumulative IPC: 0.869274 (Simulation time: 0 hr 39 min 55 sec) 
Heartbeat CPU 0 instructions: 63000002 cycles: 41632502 heartbeat IPC: 0.672689 cumulative IPC: 0.850163 (Simulation time: 0 hr 40 min 35 sec) 
Heartbeat CPU 0 instructions: 64000000 cycles: 43118396 heartbeat IPC: 0.672994 cumulative IPC: 0.834471 (Simulation time: 0 hr 41 min 17 sec) 
Heartbeat CPU 0 instructions: 65000001 cycles: 44606211 heartbeat IPC: 0.672127 cumulative IPC: 0.821247 (Simulation time: 0 hr 41 min 57 sec) 
Heartbeat CPU 0 instructions: 66000000 cycles: 46091945 heartbeat IPC: 0.673067 cumulative IPC: 0.8101 (Simulation time: 0 hr 42 min 36 sec) 
Heartbeat CPU 0 instructions: 67000001 cycles: 47581064 heartbeat IPC: 0.671539 cumulative IPC: 0.800386 (Simulation time: 0 hr 43 min 16 sec) 
Heartbeat CPU 0 instructions: 68000000 cycles: 49066885 heartbeat IPC: 0.673028 cumulative IPC: 0.792059 (Simulation time: 0 hr 43 min 56 sec) 
Heartbeat CPU 0 instructions: 69000002 cycles: 50552559 heartbeat IPC: 0.673097 cumulative IPC: 0.784759 (Simulation time: 0 hr 44 min 39 sec) 
Heartbeat CPU 0 instructions: 70000000 cycles: 52039059 heartbeat IPC: 0.67272 cumulative IPC: 0.778278 (Simulation time: 0 hr 45 min 18 sec) 
Heartbeat CPU 0 instructions: 71000001 cycles: 53526417 heartbeat IPC: 0.672334 cumulative IPC: 0.772482 (Simulation time: 0 hr 45 min 56 sec) 
Heartbeat CPU 0 instructions: 72000000 cycles: 55014022 heartbeat IPC: 0.672221 cumulative IPC: 0.76728 (Simulation time: 0 hr 46 min 35 sec) 
Heartbeat CPU 0 instructions: 73000000 cycles: 56499873 heartbeat IPC: 0.673015 cumulative IPC: 0.762636 (Simulation time: 0 hr 47 min 14 sec) 
Heartbeat CPU 0 instructions: 74000003 cycles: 57985674 heartbeat IPC: 0.67304 cumulative IPC: 0.758429 (Simulation time: 0 hr 47 min 54 sec) 
Heartbeat CPU 0 instructions: 75000003 cycles: 59471966 heartbeat IPC: 0.672815 cumulative IPC: 0.754588 (Simulation time: 0 hr 48 min 34 sec) 
Heartbeat CPU 0 instructions: 76000000 cycles: 60957634 heartbeat IPC: 0.673096 cumulative IPC: 0.751091 (Simulation time: 0 hr 49 min 13 sec) 
Heartbeat CPU 0 instructions: 77000002 cycles: 62445899 heartbeat IPC: 0.671925 cumulative IPC: 0.747827 (Simulation time: 0 hr 49 min 54 sec) 
Heartbeat CPU 0 instructions: 78000001 cycles: 63932482 heartbeat IPC: 0.672683 cumulative IPC: 0.744856 (Simulation time: 0 hr 50 min 31 sec) 
Heartbeat CPU 0 instructions: 79000001 cycles: 65420808 heartbeat IPC: 0.671896 cumulative IPC: 0.742077 (Simulation time: 0 hr 51 min 12 sec) 
Heartbeat CPU 0 instructions: 80000000 cycles: 66906360 heartbeat IPC: 0.67315 cumulative IPC: 0.739553 (Simulation time: 0 hr 51 min 52 sec) 
Heartbeat CPU 0 instructions: 81000000 cycles: 68393447 heartbeat IPC: 0.672456 cumulative IPC: 0.73718 (Simulation time: 0 hr 52 min 33 sec) 
Heartbeat CPU 0 instructions: 82000003 cycles: 69878943 heartbeat IPC: 0.673178 cumulative IPC: 0.734996 (Simulation time: 0 hr 53 min 11 sec) 
Heartbeat CPU 0 instructions: 83000003 cycles: 71368562 heartbeat IPC: 0.671313 cumulative IPC: 0.732889 (Simulation time: 0 hr 53 min 49 sec) 
Heartbeat CPU 0 instructions: 84000000 cycles: 72854461 heartbeat IPC: 0.672991 cumulative IPC: 0.730976 (Simulation time: 0 hr 54 min 30 sec) 
Heartbeat CPU 0 instructions: 85000002 cycles: 74341121 heartbeat IPC: 0.67265 cumulative IPC: 0.729169 (Simulation time: 0 hr 55 min 7 sec) 
Heartbeat CPU 0 instructions: 86000001 cycles: 75826320 heartbeat IPC: 0.67331 cumulative IPC: 0.727493 (Simulation time: 0 hr 55 min 44 sec) 
Heartbeat CPU 0 instructions: 87000001 cycles: 77312595 heartbeat IPC: 0.672823 cumulative IPC: 0.725899 (Simulation time: 0 hr 56 min 23 sec) 
Heartbeat CPU 0 instructions: 88000000 cycles: 78812167 heartbeat IPC: 0.666856 cumulative IPC: 0.724211 (Simulation time: 0 hr 57 min 4 sec) 
Heartbeat CPU 0 instructions: 89000003 cycles: 80299443 heartbeat IPC: 0.672372 cumulative IPC: 0.722783 (Simulation time: 0 hr 57 min 44 sec) 
Heartbeat CPU 0 instructions: 90000003 cycles: 81790986 heartbeat IPC: 0.670447 cumulative IPC: 0.721375 (Simulation time: 0 hr 58 min 24 sec) 
Heartbeat CPU 0 instructions: 91000001 cycles: 83300093 heartbeat IPC: 0.662642 cumulative IPC: 0.719819 (Simulation time: 0 hr 59 min 7 sec) 
Heartbeat CPU 0 instructions: 92000000 cycles: 84810732 heartbeat IPC: 0.661971 cumulative IPC: 0.718324 (Simulation time: 0 hr 59 min 48 sec) 
Heartbeat CPU 0 instructions: 93000001 cycles: 86325169 heartbeat IPC: 0.660312 cumulative IPC: 0.716859 (Simulation time: 1 hr 0 min 28 sec) 
Heartbeat CPU 0 instructions: 94000001 cycles: 87837965 heartbeat IPC: 0.661028 cumulative IPC: 0.715486 (Simulation time: 1 hr 1 min 9 sec) 
Heartbeat CPU 0 instructions: 95000001 cycles: 89348062 heartbeat IPC: 0.662209 cumulative IPC: 0.714209 (Simulation time: 1 hr 1 min 52 sec) 
Heartbeat CPU 0 instructions: 96000000 cycles: 90862389 heartbeat IPC: 0.660359 cumulative IPC: 0.712945 (Simulation time: 1 hr 2 min 33 sec) 
Heartbeat CPU 0 instructions: 97000000 cycles: 92377758 heartbeat IPC: 0.659905 cumulative IPC: 0.711728 (Simulation time: 1 hr 3 min 16 sec) 
Heartbeat CPU 0 instructions: 98000000 cycles: 93891213 heartbeat IPC: 0.66074 cumulative IPC: 0.710586 (Simulation time: 1 hr 3 min 55 sec) 
Heartbeat CPU 0 instructions: 99000000 cycles: 95402864 heartbeat IPC: 0.661528 cumulative IPC: 0.709512 (Simulation time: 1 hr 4 min 36 sec) 
Heartbeat CPU 0 instructions: 100000000 cycles: 96918133 heartbeat IPC: 0.659949 cumulative IPC: 0.708448 (Simulation time: 1 hr 5 min 20 sec) 
Heartbeat CPU 0 instructions: 101000002 cycles: 98435566 heartbeat IPC: 0.659009 cumulative IPC: 0.707407 (Simulation time: 1 hr 6 min 4 sec) 
Heartbeat CPU 0 instructions: 102000002 cycles: 99948944 heartbeat IPC: 0.660773 cumulative IPC: 0.706448 (Simulation time: 1 hr 6 min 48 sec) 
Heartbeat CPU 0 instructions: 103000002 cycles: 101463643 heartbeat IPC: 0.660197 cumulative IPC: 0.705516 (Simulation time: 1 hr 7 min 31 sec) 
Heartbeat CPU 0 instructions: 104000000 cycles: 102980018 heartbeat IPC: 0.659466 cumulative IPC: 0.704605 (Simulation time: 1 hr 8 min 15 sec) 
Heartbeat CPU 0 instructions: 105000001 cycles: 104494396 heartbeat IPC: 0.660338 cumulative IPC: 0.703747 (Simulation time: 1 hr 8 min 59 sec) 
Heartbeat CPU 0 instructions: 106000001 cycles: 106011067 heartbeat IPC: 0.659339 cumulative IPC: 0.702902 (Simulation time: 1 hr 9 min 43 sec) 
Heartbeat CPU 0 instructions: 107000000 cycles: 107522005 heartbeat IPC: 0.66184 cumulative IPC: 0.702137 (Simulation time: 1 hr 10 min 27 sec) 
Heartbeat CPU 0 instructions: 108000000 cycles: 109035597 heartbeat IPC: 0.66068 cumulative IPC: 0.701379 (Simulation time: 1 hr 11 min 10 sec) 
Heartbeat CPU 0 instructions: 109000000 cycles: 110547756 heartbeat IPC: 0.661306 cumulative IPC: 0.700659 (Simulation time: 1 hr 11 min 50 sec) 
Heartbeat CPU 0 instructions: 110000001 cycles: 112052191 heartbeat IPC: 0.664702 cumulative IPC: 0.700028 (Simulation time: 1 hr 12 min 29 sec) 
Heartbeat CPU 0 instructions: 111000003 cycles: 113558169 heartbeat IPC: 0.664022 cumulative IPC: 0.699406 (Simulation time: 1 hr 13 min 2 sec) 
Heartbeat CPU 0 instructions: 112000000 cycles: 115064255 heartbeat IPC: 0.663971 cumulative IPC: 0.698805 (Simulation time: 1 hr 13 min 38 sec) 
Heartbeat CPU 0 instructions: 113000003 cycles: 116574719 heartbeat IPC: 0.66205 cumulative IPC: 0.698189 (Simulation time: 1 hr 14 min 14 sec) 
Heartbeat CPU 0 instructions: 114000002 cycles: 118084563 heartbeat IPC: 0.662319 cumulative IPC: 0.697599 (Simulation time: 1 hr 14 min 49 sec) 
Heartbeat CPU 0 instructions: 115000002 cycles: 119597568 heartbeat IPC: 0.660936 cumulative IPC: 0.697004 (Simulation time: 1 hr 15 min 25 sec) 
Heartbeat CPU 0 instructions: 116000000 cycles: 121112310 heartbeat IPC: 0.660177 cumulative IPC: 0.696416 (Simulation time: 1 hr 15 min 58 sec) 
Heartbeat CPU 0 instructions: 117000000 cycles: 122624726 heartbeat IPC: 0.661194 cumulative IPC: 0.695862 (Simulation time: 1 hr 16 min 38 sec) 
Heartbeat CPU 0 instructions: 118000003 cycles: 124138866 heartbeat IPC: 0.660443 cumulative IPC: 0.695314 (Simulation time: 1 hr 17 min 15 sec) 
Heartbeat CPU 0 instructions: 119000001 cycles: 125651537 heartbeat IPC: 0.661081 cumulative IPC: 0.694792 (Simulation time: 1 hr 17 min 52 sec) 
Heartbeat CPU 0 instructions: 120000000 cycles: 127168247 heartbeat IPC: 0.659321 cumulative IPC: 0.694259 (Simulation time: 1 hr 18 min 30 sec) 
Heartbeat CPU 0 instructions: 121000001 cycles: 128682450 heartbeat IPC: 0.660414 cumulative IPC: 0.693758 (Simulation time: 1 hr 19 min 7 sec) 
Heartbeat CPU 0 instructions: 122000000 cycles: 130197217 heartbeat IPC: 0.660167 cumulative IPC: 0.693268 (Simulation time: 1 hr 19 min 40 sec) 
Heartbeat CPU 0 instructions: 123000000 cycles: 131709497 heartbeat IPC: 0.661253 cumulative IPC: 0.692809 (Simulation time: 1 hr 20 min 13 sec) 
Heartbeat CPU 0 instructions: 124000000 cycles: 133223923 heartbeat IPC: 0.660316 cumulative IPC: 0.692348 (Simulation time: 1 hr 20 min 45 sec) 
Heartbeat CPU 0 instructions: 125000002 cycles: 134736449 heartbeat IPC: 0.661147 cumulative IPC: 0.691913 (Simulation time: 1 hr 21 min 19 sec) 
Heartbeat CPU 0 instructions: 126000003 cycles: 136251065 heartbeat IPC: 0.660234 cumulative IPC: 0.691476 (Simulation time: 1 hr 21 min 54 sec) 
Heartbeat CPU 0 instructions: 127000002 cycles: 137763674 heartbeat IPC: 0.661109 cumulative IPC: 0.691064 (Simulation time: 1 hr 22 min 25 sec) 
Heartbeat CPU 0 instructions: 128000000 cycles: 139562602 heartbeat IPC: 0.555885 cumulative IPC: 0.688916 (Simulation time: 1 hr 23 min 0 sec) 
Heartbeat CPU 0 instructions: 129000001 cycles: 141970070 heartbeat IPC: 0.415375 cumulative IPC: 0.683221 (Simulation time: 1 hr 23 min 35 sec) 
Heartbeat CPU 0 instructions: 130000002 cycles: 143687324 heartbeat IPC: 0.582326 cumulative IPC: 0.681745 (Simulation time: 1 hr 24 min 5 sec) 
Heartbeat CPU 0 instructions: 131000002 cycles: 145307259 heartbeat IPC: 0.617309 cumulative IPC: 0.680867 (Simulation time: 1 hr 24 min 34 sec) 
Heartbeat CPU 0 instructions: 132000000 cycles: 148392145 heartbeat IPC: 0.32416 cumulative IPC: 0.671851 (Simulation time: 1 hr 25 min 9 sec) 
Heartbeat CPU 0 instructions: 133000000 cycles: 151679839 heartbeat IPC: 0.304165 cumulative IPC: 0.662207 (Simulation time: 1 hr 25 min 46 sec) 
Heartbeat CPU 0 instructions: 134000000 cycles: 155098489 heartbeat IPC: 0.292513 cumulative IPC: 0.652391 (Simulation time: 1 hr 26 min 22 sec) 
Heartbeat CPU 0 instructions: 135000001 cycles: 158448583 heartbeat IPC: 0.298499 cumulative IPC: 0.643416 (Simulation time: 1 hr 26 min 56 sec) 
Heartbeat CPU 0 instructions: 136000000 cycles: 159524612 heartbeat IPC: 0.929342 cumulative IPC: 0.645727 (Simulation time: 1 hr 27 min 18 sec) 
Heartbeat CPU 0 instructions: 137000001 cycles: 160583083 heartbeat IPC: 0.94476 cumulative IPC: 0.648084 (Simulation time: 1 hr 27 min 40 sec) 
Heartbeat CPU 0 instructions: 138000000 cycles: 161585771 heartbeat IPC: 0.997318 cumulative IPC: 0.650674 (Simulation time: 1 hr 28 min 2 sec) 
Heartbeat CPU 0 instructions: 139000000 cycles: 162555950 heartbeat IPC: 1.03074 cumulative IPC: 0.653381 (Simulation time: 1 hr 28 min 22 sec) 
Heartbeat CPU 0 instructions: 140000000 cycles: 163495049 heartbeat IPC: 1.06485 cumulative IPC: 0.656198 (Simulation time: 1 hr 28 min 42 sec) 
Heartbeat CPU 0 instructions: 141000002 cycles: 164406130 heartbeat IPC: 1.0976 cumulative IPC: 0.659111 (Simulation time: 1 hr 29 min 2 sec) 
Heartbeat CPU 0 instructions: 142000001 cycles: 165315566 heartbeat IPC: 1.09958 cumulative IPC: 0.661993 (Simulation time: 1 hr 29 min 21 sec) 
Heartbeat CPU 0 instructions: 143000000 cycles: 166202558 heartbeat IPC: 1.1274 cumulative IPC: 0.664945 (Simulation time: 1 hr 29 min 39 sec) 
Heartbeat CPU 0 instructions: 144000000 cycles: 167122798 heartbeat IPC: 1.08667 cumulative IPC: 0.667701 (Simulation time: 1 hr 29 min 57 sec) 
Heartbeat CPU 0 instructions: 145000003 cycles: 168047697 heartbeat IPC: 1.0812 cumulative IPC: 0.6704 (Simulation time: 1 hr 30 min 15 sec) 
Heartbeat CPU 0 instructions: 146000000 cycles: 169003182 heartbeat IPC: 1.04659 cumulative IPC: 0.67292 (Simulation time: 1 hr 30 min 32 sec) 
Heartbeat CPU 0 instructions: 147000002 cycles: 169952528 heartbeat IPC: 1.05336 cumulative IPC: 0.675435 (Simulation time: 1 hr 30 min 50 sec) 
Heartbeat CPU 0 instructions: 148000000 cycles: 170838058 heartbeat IPC: 1.12926 cumulative IPC: 0.678216 (Simulation time: 1 hr 31 min 6 sec) 
Heartbeat CPU 0 instructions: 149000001 cycles: 171730943 heartbeat IPC: 1.11997 cumulative IPC: 0.680929 (Simulation time: 1 hr 31 min 24 sec) 
Heartbeat CPU 0 instructions: 150000001 cycles: 172617058 heartbeat IPC: 1.12852 cumulative IPC: 0.68364 (Simulation time: 1 hr 31 min 40 sec) 
Finished CPU 0 instructions: 100000000 cycles: 146275751 cummulative IPC: 0.68364 (Simulation time: 1 hr 31 min 40 sec) 

ChampSim completed all CPUs

Region of Interest Statistics

CPU 0 cummulative IPC: 0.68364 instructions: 100000000 cycles: 146275751
LLC TOTAL     ACCESS:    2157575  HIT:     271292  MISS:    1886283
LLC LOAD      ACCESS:     100913  HIT:      16453  MISS:      84460
LLC RFO       ACCESS:     516116  HIT:       2713  MISS:     513403
LLC PREFETCH  ACCESS:     928678  HIT:      68823  MISS:     859855
LLC WRITEBACK ACCESS:     611868  HIT:     183303  MISS:     428565
OPTgen accesses: 11651
OPTgen hits: 1753
OPTgen hit rate: 15.0459


