
*** ChampSim Multicore Out-of-Order Simulator ***

Warmup Instructions: 50000000
Simulation Instructions: 100000000
Configuration: 2
Number of CPUs: 1
LLC sets: 2048
LLC ways: 16
Off-chip DRAM Channels: 1 Width: 64-bit Data Rate: 1600 MT/s

CPU 0 runs /datasets/cs240c-wi22-a00-public/data/Assignment2-gz/cactusADM_1039B.trace.gz
CPU 0 L1D next line prefetcher
CPU 0 L2C IP-based stride prefetcher
Initialize Hawkeye state
Heartbeat CPU 0 instructions: 1000000 cycles: 595518 heartbeat IPC: 1.67921 cumulative IPC: 1.67921 (Simulation time: 0 hr 0 min 46 sec) 
Heartbeat CPU 0 instructions: 2000002 cycles: 1190937 heartbeat IPC: 1.67949 cumulative IPC: 1.67935 (Simulation time: 0 hr 1 min 30 sec) 
Heartbeat CPU 0 instructions: 3000003 cycles: 1786622 heartbeat IPC: 1.67874 cumulative IPC: 1.67915 (Simulation time: 0 hr 2 min 17 sec) 
Heartbeat CPU 0 instructions: 4000000 cycles: 2382046 heartbeat IPC: 1.67947 cumulative IPC: 1.67923 (Simulation time: 0 hr 3 min 3 sec) 
Heartbeat CPU 0 instructions: 5000001 cycles: 2977457 heartbeat IPC: 1.67951 cumulative IPC: 1.67929 (Simulation time: 0 hr 3 min 50 sec) 
Heartbeat CPU 0 instructions: 6000002 cycles: 3572930 heartbeat IPC: 1.67934 cumulative IPC: 1.67929 (Simulation time: 0 hr 4 min 37 sec) 
Heartbeat CPU 0 instructions: 7000000 cycles: 4168306 heartbeat IPC: 1.67961 cumulative IPC: 1.67934 (Simulation time: 0 hr 5 min 20 sec) 
Heartbeat CPU 0 instructions: 8000000 cycles: 4763681 heartbeat IPC: 1.67961 cumulative IPC: 1.67937 (Simulation time: 0 hr 6 min 8 sec) 
Heartbeat CPU 0 instructions: 9000002 cycles: 5359336 heartbeat IPC: 1.67883 cumulative IPC: 1.67931 (Simulation time: 0 hr 6 min 57 sec) 
Heartbeat CPU 0 instructions: 10000003 cycles: 5974113 heartbeat IPC: 1.62661 cumulative IPC: 1.67389 (Simulation time: 0 hr 7 min 45 sec) 
Heartbeat CPU 0 instructions: 11000002 cycles: 6713182 heartbeat IPC: 1.35305 cumulative IPC: 1.63857 (Simulation time: 0 hr 8 min 39 sec) 
Heartbeat CPU 0 instructions: 12000000 cycles: 7308626 heartbeat IPC: 1.67942 cumulative IPC: 1.6419 (Simulation time: 0 hr 9 min 24 sec) 
Heartbeat CPU 0 instructions: 13000002 cycles: 7904132 heartbeat IPC: 1.67925 cumulative IPC: 1.64471 (Simulation time: 0 hr 10 min 10 sec) 
Heartbeat CPU 0 instructions: 14000000 cycles: 8499778 heartbeat IPC: 1.67885 cumulative IPC: 1.6471 (Simulation time: 0 hr 10 min 58 sec) 
Heartbeat CPU 0 instructions: 15000000 cycles: 9094831 heartbeat IPC: 1.68052 cumulative IPC: 1.64929 (Simulation time: 0 hr 11 min 43 sec) 
Heartbeat CPU 0 instructions: 16000000 cycles: 9690429 heartbeat IPC: 1.67898 cumulative IPC: 1.65111 (Simulation time: 0 hr 12 min 28 sec) 
Heartbeat CPU 0 instructions: 17000003 cycles: 10286020 heartbeat IPC: 1.67901 cumulative IPC: 1.65273 (Simulation time: 0 hr 13 min 13 sec) 
Heartbeat CPU 0 instructions: 18000001 cycles: 10881554 heartbeat IPC: 1.67916 cumulative IPC: 1.65418 (Simulation time: 0 hr 13 min 57 sec) 
Heartbeat CPU 0 instructions: 19000002 cycles: 11476928 heartbeat IPC: 1.67962 cumulative IPC: 1.6555 (Simulation time: 0 hr 14 min 43 sec) 
Heartbeat CPU 0 instructions: 20000000 cycles: 12072366 heartbeat IPC: 1.67943 cumulative IPC: 1.65668 (Simulation time: 0 hr 15 min 29 sec) 
Heartbeat CPU 0 instructions: 21000002 cycles: 12668053 heartbeat IPC: 1.67874 cumulative IPC: 1.65771 (Simulation time: 0 hr 16 min 12 sec) 
Heartbeat CPU 0 instructions: 22000002 cycles: 13263480 heartbeat IPC: 1.67947 cumulative IPC: 1.65869 (Simulation time: 0 hr 16 min 58 sec) 
Heartbeat CPU 0 instructions: 23000002 cycles: 13858923 heartbeat IPC: 1.67942 cumulative IPC: 1.65958 (Simulation time: 0 hr 17 min 42 sec) 
Heartbeat CPU 0 instructions: 24000000 cycles: 14615004 heartbeat IPC: 1.32261 cumulative IPC: 1.64215 (Simulation time: 0 hr 18 min 36 sec) 
Heartbeat CPU 0 instructions: 25000002 cycles: 15210284 heartbeat IPC: 1.67989 cumulative IPC: 1.64362 (Simulation time: 0 hr 19 min 21 sec) 
Heartbeat CPU 0 instructions: 26000001 cycles: 15805395 heartbeat IPC: 1.68036 cumulative IPC: 1.64501 (Simulation time: 0 hr 20 min 8 sec) 
Heartbeat CPU 0 instructions: 27000000 cycles: 16400646 heartbeat IPC: 1.67996 cumulative IPC: 1.64628 (Simulation time: 0 hr 20 min 54 sec) 
Heartbeat CPU 0 instructions: 28000000 cycles: 16995882 heartbeat IPC: 1.68001 cumulative IPC: 1.64746 (Simulation time: 0 hr 21 min 41 sec) 
Heartbeat CPU 0 instructions: 29000000 cycles: 17591344 heartbeat IPC: 1.67937 cumulative IPC: 1.64854 (Simulation time: 0 hr 22 min 28 sec) 
Heartbeat CPU 0 instructions: 30000002 cycles: 18186501 heartbeat IPC: 1.68023 cumulative IPC: 1.64958 (Simulation time: 0 hr 23 min 14 sec) 
Heartbeat CPU 0 instructions: 31000001 cycles: 18782010 heartbeat IPC: 1.67923 cumulative IPC: 1.65052 (Simulation time: 0 hr 23 min 59 sec) 
Heartbeat CPU 0 instructions: 32000000 cycles: 19376964 heartbeat IPC: 1.6808 cumulative IPC: 1.65145 (Simulation time: 0 hr 24 min 43 sec) 
Heartbeat CPU 0 instructions: 33000001 cycles: 19972387 heartbeat IPC: 1.67948 cumulative IPC: 1.65228 (Simulation time: 0 hr 25 min 28 sec) 
Heartbeat CPU 0 instructions: 34000003 cycles: 20567450 heartbeat IPC: 1.6805 cumulative IPC: 1.6531 (Simulation time: 0 hr 26 min 14 sec) 
Heartbeat CPU 0 instructions: 35000001 cycles: 21162848 heartbeat IPC: 1.67955 cumulative IPC: 1.65384 (Simulation time: 0 hr 27 min 0 sec) 
Heartbeat CPU 0 instructions: 36000000 cycles: 21758237 heartbeat IPC: 1.67957 cumulative IPC: 1.65455 (Simulation time: 0 hr 27 min 44 sec) 
Heartbeat CPU 0 instructions: 37000002 cycles: 22515246 heartbeat IPC: 1.32099 cumulative IPC: 1.64333 (Simulation time: 0 hr 28 min 39 sec) 
Heartbeat CPU 0 instructions: 38000000 cycles: 23110389 heartbeat IPC: 1.68027 cumulative IPC: 1.64428 (Simulation time: 0 hr 29 min 24 sec) 
Heartbeat CPU 0 instructions: 39000002 cycles: 23705602 heartbeat IPC: 1.68007 cumulative IPC: 1.64518 (Simulation time: 0 hr 30 min 9 sec) 
Heartbeat CPU 0 instructions: 40000000 cycles: 24300832 heartbeat IPC: 1.68002 cumulative IPC: 1.64603 (Simulation time: 0 hr 30 min 54 sec) 
Heartbeat CPU 0 instructions: 41000003 cycles: 24896263 heartbeat IPC: 1.67946 cumulative IPC: 1.64683 (Simulation time: 0 hr 31 min 42 sec) 
Heartbeat CPU 0 instructions: 42000001 cycles: 25491447 heartbeat IPC: 1.68015 cumulative IPC: 1.64761 (Simulation time: 0 hr 32 min 29 sec) 
Heartbeat CPU 0 instructions: 43000000 cycles: 26086812 heartbeat IPC: 1.67964 cumulative IPC: 1.64834 (Simulation time: 0 hr 33 min 16 sec) 
Heartbeat CPU 0 instructions: 44000000 cycles: 26681904 heartbeat IPC: 1.68041 cumulative IPC: 1.64906 (Simulation time: 0 hr 34 min 1 sec) 
Heartbeat CPU 0 instructions: 45000000 cycles: 27277379 heartbeat IPC: 1.67933 cumulative IPC: 1.64972 (Simulation time: 0 hr 34 min 45 sec) 
Heartbeat CPU 0 instructions: 46000003 cycles: 27872561 heartbeat IPC: 1.68016 cumulative IPC: 1.65037 (Simulation time: 0 hr 35 min 31 sec) 
Heartbeat CPU 0 instructions: 47000002 cycles: 28467693 heartbeat IPC: 1.6803 cumulative IPC: 1.65099 (Simulation time: 0 hr 36 min 15 sec) 
Heartbeat CPU 0 instructions: 48000000 cycles: 29062686 heartbeat IPC: 1.68069 cumulative IPC: 1.6516 (Simulation time: 0 hr 36 min 58 sec) 
Heartbeat CPU 0 instructions: 49000001 cycles: 29658084 heartbeat IPC: 1.67955 cumulative IPC: 1.65216 (Simulation time: 0 hr 37 min 42 sec) 
Heartbeat CPU 0 instructions: 50000000 cycles: 30415111 heartbeat IPC: 1.32096 cumulative IPC: 1.64392 (Simulation time: 0 hr 38 min 38 sec) 

Warmup complete CPU 0 instructions: 50000004 cycles: 30415112 (Simulation time: 0 hr 38 min 38 sec) 

Heartbeat CPU 0 instructions: 51000003 cycles: 32178410 heartbeat IPC: 0.56712 cumulative IPC: 0.567119 (Simulation time: 0 hr 39 min 29 sec) 
Heartbeat CPU 0 instructions: 52000000 cycles: 33949096 heartbeat IPC: 0.564751 cumulative IPC: 0.565932 (Simulation time: 0 hr 40 min 18 sec) 
Heartbeat CPU 0 instructions: 53000003 cycles: 35719300 heartbeat IPC: 0.564908 cumulative IPC: 0.565591 (Simulation time: 0 hr 41 min 10 sec) 
Heartbeat CPU 0 instructions: 54000002 cycles: 37434908 heartbeat IPC: 0.582883 cumulative IPC: 0.569817 (Simulation time: 0 hr 42 min 1 sec) 
Heartbeat CPU 0 instructions: 55000001 cycles: 39160257 heartbeat IPC: 0.579592 cumulative IPC: 0.571745 (Simulation time: 0 hr 42 min 49 sec) 
Heartbeat CPU 0 instructions: 56000000 cycles: 40929614 heartbeat IPC: 0.565176 cumulative IPC: 0.57064 (Simulation time: 0 hr 43 min 34 sec) 
Heartbeat CPU 0 instructions: 57000000 cycles: 42703975 heartbeat IPC: 0.563583 cumulative IPC: 0.569621 (Simulation time: 0 hr 44 min 23 sec) 
Heartbeat CPU 0 instructions: 58000000 cycles: 44468700 heartbeat IPC: 0.566661 cumulative IPC: 0.569249 (Simulation time: 0 hr 45 min 13 sec) 
Heartbeat CPU 0 instructions: 59000002 cycles: 46156401 heartbeat IPC: 0.592523 cumulative IPC: 0.571745 (Simulation time: 0 hr 46 min 4 sec) 
Heartbeat CPU 0 instructions: 60000000 cycles: 47915052 heartbeat IPC: 0.568617 cumulative IPC: 0.57143 (Simulation time: 0 hr 46 min 54 sec) 
Heartbeat CPU 0 instructions: 61000001 cycles: 49688790 heartbeat IPC: 0.563782 cumulative IPC: 0.570726 (Simulation time: 0 hr 47 min 47 sec) 
Heartbeat CPU 0 instructions: 62000000 cycles: 51462559 heartbeat IPC: 0.563771 cumulative IPC: 0.57014 (Simulation time: 0 hr 48 min 44 sec) 
Heartbeat CPU 0 instructions: 63000001 cycles: 57665392 heartbeat IPC: 0.161217 cumulative IPC: 0.477059 (Simulation time: 0 hr 50 min 7 sec) 
Heartbeat CPU 0 instructions: 64000000 cycles: 59932250 heartbeat IPC: 0.441139 cumulative IPC: 0.474301 (Simulation time: 0 hr 51 min 21 sec) 
Heartbeat CPU 0 instructions: 65000002 cycles: 61702359 heartbeat IPC: 0.564938 cumulative IPC: 0.479428 (Simulation time: 0 hr 52 min 35 sec) 
Heartbeat CPU 0 instructions: 66000001 cycles: 63472397 heartbeat IPC: 0.564959 cumulative IPC: 0.484008 (Simulation time: 0 hr 53 min 41 sec) 
Heartbeat CPU 0 instructions: 67000003 cycles: 65236802 heartbeat IPC: 0.566764 cumulative IPC: 0.488201 (Simulation time: 0 hr 54 min 55 sec) 
Heartbeat CPU 0 instructions: 68000000 cycles: 66961814 heartbeat IPC: 0.579704 cumulative IPC: 0.49252 (Simulation time: 0 hr 56 min 9 sec) 
Heartbeat CPU 0 instructions: 69000003 cycles: 68738120 heartbeat IPC: 0.562968 cumulative IPC: 0.495786 (Simulation time: 0 hr 57 min 17 sec) 
Heartbeat CPU 0 instructions: 70000002 cycles: 70507764 heartbeat IPC: 0.565085 cumulative IPC: 0.498844 (Simulation time: 0 hr 58 min 26 sec) 
Heartbeat CPU 0 instructions: 71000000 cycles: 72278484 heartbeat IPC: 0.564741 cumulative IPC: 0.501632 (Simulation time: 0 hr 59 min 34 sec) 
Heartbeat CPU 0 instructions: 72000000 cycles: 74023931 heartbeat IPC: 0.572919 cumulative IPC: 0.504485 (Simulation time: 1 hr 0 min 46 sec) 
Heartbeat CPU 0 instructions: 73000001 cycles: 75723621 heartbeat IPC: 0.588343 cumulative IPC: 0.507631 (Simulation time: 1 hr 1 min 52 sec) 
Heartbeat CPU 0 instructions: 74000003 cycles: 77490713 heartbeat IPC: 0.565903 cumulative IPC: 0.509818 (Simulation time: 1 hr 3 min 4 sec) 
Heartbeat CPU 0 instructions: 75000002 cycles: 79263165 heartbeat IPC: 0.56419 cumulative IPC: 0.511791 (Simulation time: 1 hr 4 min 13 sec) 
Heartbeat CPU 0 instructions: 76000000 cycles: 84516092 heartbeat IPC: 0.19037 cumulative IPC: 0.480583 (Simulation time: 1 hr 5 min 23 sec) 
Heartbeat CPU 0 instructions: 77000001 cycles: 87677609 heartbeat IPC: 0.316304 cumulative IPC: 0.471513 (Simulation time: 1 hr 6 min 32 sec) 
Heartbeat CPU 0 instructions: 78000000 cycles: 89425864 heartbeat IPC: 0.571998 cumulative IPC: 0.47449 (Simulation time: 1 hr 7 min 39 sec) 
Heartbeat CPU 0 instructions: 79000002 cycles: 91195453 heartbeat IPC: 0.565104 cumulative IPC: 0.477128 (Simulation time: 1 hr 8 min 32 sec) 
Heartbeat CPU 0 instructions: 80000000 cycles: 92964240 heartbeat IPC: 0.565358 cumulative IPC: 0.479623 (Simulation time: 1 hr 9 min 20 sec) 
Heartbeat CPU 0 instructions: 81000002 cycles: 94711028 heartbeat IPC: 0.57248 cumulative IPC: 0.482146 (Simulation time: 1 hr 10 min 6 sec) 
Heartbeat CPU 0 instructions: 82000002 cycles: 96404671 heartbeat IPC: 0.590443 cumulative IPC: 0.484925 (Simulation time: 1 hr 10 min 45 sec) 
Heartbeat CPU 0 instructions: 83000003 cycles: 98169721 heartbeat IPC: 0.566557 cumulative IPC: 0.487052 (Simulation time: 1 hr 11 min 29 sec) 
Heartbeat CPU 0 instructions: 84000000 cycles: 99938684 heartbeat IPC: 0.565301 cumulative IPC: 0.489043 (Simulation time: 1 hr 12 min 9 sec) 
Heartbeat CPU 0 instructions: 85000002 cycles: 101707822 heartbeat IPC: 0.565248 cumulative IPC: 0.490934 (Simulation time: 1 hr 12 min 45 sec) 
Heartbeat CPU 0 instructions: 86000003 cycles: 103421532 heartbeat IPC: 0.58353 cumulative IPC: 0.493107 (Simulation time: 1 hr 13 min 30 sec) 
Heartbeat CPU 0 instructions: 87000000 cycles: 105163247 heartbeat IPC: 0.574145 cumulative IPC: 0.494996 (Simulation time: 1 hr 14 min 12 sec) 
Heartbeat CPU 0 instructions: 88000000 cycles: 106931810 heartbeat IPC: 0.565431 cumulative IPC: 0.496624 (Simulation time: 1 hr 14 min 49 sec) 
Heartbeat CPU 0 instructions: 89000001 cycles: 111260804 heartbeat IPC: 0.231001 cumulative IPC: 0.4824 (Simulation time: 1 hr 15 min 33 sec) 
Heartbeat CPU 0 instructions: 90000002 cycles: 115381080 heartbeat IPC: 0.242702 cumulative IPC: 0.470777 (Simulation time: 1 hr 16 min 20 sec) 
Heartbeat CPU 0 instructions: 91000000 cycles: 117073897 heartbeat IPC: 0.59073 cumulative IPC: 0.47312 (Simulation time: 1 hr 16 min 58 sec) 
Heartbeat CPU 0 instructions: 92000000 cycles: 118836439 heartbeat IPC: 0.567362 cumulative IPC: 0.474998 (Simulation time: 1 hr 17 min 36 sec) 
Heartbeat CPU 0 instructions: 93000001 cycles: 120606834 heartbeat IPC: 0.564846 cumulative IPC: 0.476762 (Simulation time: 1 hr 18 min 13 sec) 
Heartbeat CPU 0 instructions: 94000003 cycles: 122380359 heartbeat IPC: 0.56385 cumulative IPC: 0.478442 (Simulation time: 1 hr 18 min 48 sec) 
Heartbeat CPU 0 instructions: 95000001 cycles: 124100239 heartbeat IPC: 0.581435 cumulative IPC: 0.480332 (Simulation time: 1 hr 19 min 22 sec) 
Heartbeat CPU 0 instructions: 96000000 cycles: 125819117 heartbeat IPC: 0.581774 cumulative IPC: 0.48216 (Simulation time: 1 hr 19 min 57 sec) 
Heartbeat CPU 0 instructions: 97000002 cycles: 127587539 heartbeat IPC: 0.565477 cumulative IPC: 0.483676 (Simulation time: 1 hr 20 min 34 sec) 
Heartbeat CPU 0 instructions: 98000000 cycles: 129359840 heartbeat IPC: 0.564237 cumulative IPC: 0.485119 (Simulation time: 1 hr 21 min 10 sec) 
Heartbeat CPU 0 instructions: 99000002 cycles: 131126379 heartbeat IPC: 0.56608 cumulative IPC: 0.486539 (Simulation time: 1 hr 21 min 48 sec) 
Heartbeat CPU 0 instructions: 100000000 cycles: 132815616 heartbeat IPC: 0.591982 cumulative IPC: 0.488279 (Simulation time: 1 hr 22 min 22 sec) 
Heartbeat CPU 0 instructions: 101000002 cycles: 134569061 heartbeat IPC: 0.570307 cumulative IPC: 0.48966 (Simulation time: 1 hr 22 min 56 sec) 
Heartbeat CPU 0 instructions: 102000000 cycles: 137914358 heartbeat IPC: 0.298927 cumulative IPC: 0.483724 (Simulation time: 1 hr 23 min 31 sec) 
Heartbeat CPU 0 instructions: 103000002 cycles: 143021757 heartbeat IPC: 0.195795 cumulative IPC: 0.470665 (Simulation time: 1 hr 24 min 6 sec) 
Heartbeat CPU 0 instructions: 104000000 cycles: 144746700 heartbeat IPC: 0.579728 cumulative IPC: 0.47231 (Simulation time: 1 hr 24 min 36 sec) 
Heartbeat CPU 0 instructions: 105000002 cycles: 146460037 heartbeat IPC: 0.583658 cumulative IPC: 0.473954 (Simulation time: 1 hr 25 min 5 sec) 
Heartbeat CPU 0 instructions: 106000001 cycles: 148230269 heartbeat IPC: 0.564897 cumulative IPC: 0.475321 (Simulation time: 1 hr 25 min 35 sec) 
Heartbeat CPU 0 instructions: 107000003 cycles: 149999325 heartbeat IPC: 0.565274 cumulative IPC: 0.476652 (Simulation time: 1 hr 26 min 3 sec) 
Heartbeat CPU 0 instructions: 108000000 cycles: 151765305 heartbeat IPC: 0.566256 cumulative IPC: 0.477956 (Simulation time: 1 hr 26 min 31 sec) 
Heartbeat CPU 0 instructions: 109000003 cycles: 153461528 heartbeat IPC: 0.589547 cumulative IPC: 0.479494 (Simulation time: 1 hr 26 min 57 sec) 
Heartbeat CPU 0 instructions: 110000002 cycles: 155209402 heartbeat IPC: 0.572123 cumulative IPC: 0.480791 (Simulation time: 1 hr 27 min 24 sec) 
Heartbeat CPU 0 instructions: 111000002 cycles: 156979818 heartbeat IPC: 0.564839 cumulative IPC: 0.481967 (Simulation time: 1 hr 27 min 50 sec) 
Heartbeat CPU 0 instructions: 112000000 cycles: 158750300 heartbeat IPC: 0.564817 cumulative IPC: 0.48311 (Simulation time: 1 hr 28 min 16 sec) 
Heartbeat CPU 0 instructions: 113000002 cycles: 160505926 heartbeat IPC: 0.569599 cumulative IPC: 0.484277 (Simulation time: 1 hr 28 min 40 sec) 
Heartbeat CPU 0 instructions: 114000002 cycles: 162198267 heartbeat IPC: 0.590897 cumulative IPC: 0.485646 (Simulation time: 1 hr 29 min 5 sec) 
Heartbeat CPU 0 instructions: 115000001 cycles: 164630431 heartbeat IPC: 0.411156 cumulative IPC: 0.484296 (Simulation time: 1 hr 29 min 28 sec) 
Heartbeat CPU 0 instructions: 116000000 cycles: 170637580 heartbeat IPC: 0.166468 cumulative IPC: 0.470681 (Simulation time: 1 hr 29 min 55 sec) 
Heartbeat CPU 0 instructions: 117000003 cycles: 172408211 heartbeat IPC: 0.564772 cumulative IPC: 0.471854 (Simulation time: 1 hr 30 min 19 sec) 
Heartbeat CPU 0 instructions: 118000001 cycles: 174107572 heartbeat IPC: 0.588455 cumulative IPC: 0.473233 (Simulation time: 1 hr 30 min 41 sec) 
Heartbeat CPU 0 instructions: 119000001 cycles: 175848613 heartbeat IPC: 0.574369 cumulative IPC: 0.474444 (Simulation time: 1 hr 31 min 4 sec) 
Heartbeat CPU 0 instructions: 120000000 cycles: 177619146 heartbeat IPC: 0.564801 cumulative IPC: 0.47553 (Simulation time: 1 hr 31 min 26 sec) 
Heartbeat CPU 0 instructions: 121000000 cycles: 179391104 heartbeat IPC: 0.564347 cumulative IPC: 0.476587 (Simulation time: 1 hr 31 min 49 sec) 
Heartbeat CPU 0 instructions: 122000003 cycles: 181150128 heartbeat IPC: 0.568499 cumulative IPC: 0.477659 (Simulation time: 1 hr 32 min 9 sec) 
Heartbeat CPU 0 instructions: 123000002 cycles: 182838701 heartbeat IPC: 0.592215 cumulative IPC: 0.478928 (Simulation time: 1 hr 32 min 29 sec) 
Heartbeat CPU 0 instructions: 124000000 cycles: 184605815 heartbeat IPC: 0.565893 cumulative IPC: 0.479925 (Simulation time: 1 hr 32 min 49 sec) 
Heartbeat CPU 0 instructions: 125000001 cycles: 186374854 heartbeat IPC: 0.565279 cumulative IPC: 0.480893 (Simulation time: 1 hr 33 min 8 sec) 
Heartbeat CPU 0 instructions: 126000000 cycles: 188145064 heartbeat IPC: 0.564904 cumulative IPC: 0.481836 (Simulation time: 1 hr 33 min 26 sec) 
Heartbeat CPU 0 instructions: 127000003 cycles: 189870032 heartbeat IPC: 0.579723 cumulative IPC: 0.482895 (Simulation time: 1 hr 33 min 42 sec) 
Heartbeat CPU 0 instructions: 128000000 cycles: 191643058 heartbeat IPC: 0.564006 cumulative IPC: 0.483787 (Simulation time: 1 hr 33 min 56 sec) 
Heartbeat CPU 0 instructions: 129000001 cycles: 198513663 heartbeat IPC: 0.145548 cumulative IPC: 0.469962 (Simulation time: 1 hr 34 min 13 sec) 
Heartbeat CPU 0 instructions: 130000002 cycles: 208047599 heartbeat IPC: 0.104889 cumulative IPC: 0.450368 (Simulation time: 1 hr 34 min 31 sec) 
Heartbeat CPU 0 instructions: 131000002 cycles: 211999855 heartbeat IPC: 0.25302 cumulative IPC: 0.446073 (Simulation time: 1 hr 34 min 44 sec) 
Heartbeat CPU 0 instructions: 132000000 cycles: 213778643 heartbeat IPC: 0.562179 cumulative IPC: 0.447199 (Simulation time: 1 hr 34 min 55 sec) 
Heartbeat CPU 0 instructions: 133000000 cycles: 215479729 heartbeat IPC: 0.58786 cumulative IPC: 0.448492 (Simulation time: 1 hr 35 min 4 sec) 
Heartbeat CPU 0 instructions: 134000003 cycles: 217249577 heartbeat IPC: 0.565022 cumulative IPC: 0.449596 (Simulation time: 1 hr 35 min 14 sec) 
Heartbeat CPU 0 instructions: 135000002 cycles: 219035331 heartbeat IPC: 0.559987 cumulative IPC: 0.450641 (Simulation time: 1 hr 35 min 24 sec) 
Heartbeat CPU 0 instructions: 136000000 cycles: 220825421 heartbeat IPC: 0.55863 cumulative IPC: 0.451656 (Simulation time: 1 hr 35 min 34 sec) 
Heartbeat CPU 0 instructions: 137000001 cycles: 222577209 heartbeat IPC: 0.570846 cumulative IPC: 0.452743 (Simulation time: 1 hr 35 min 45 sec) 
Heartbeat CPU 0 instructions: 138000001 cycles: 224288925 heartbeat IPC: 0.584209 cumulative IPC: 0.453903 (Simulation time: 1 hr 35 min 56 sec) 
Heartbeat CPU 0 instructions: 139000003 cycles: 226069387 heartbeat IPC: 0.561653 cumulative IPC: 0.454884 (Simulation time: 1 hr 36 min 6 sec) 
Heartbeat CPU 0 instructions: 140000000 cycles: 227858651 heartbeat IPC: 0.558887 cumulative IPC: 0.455826 (Simulation time: 1 hr 36 min 15 sec) 
Heartbeat CPU 0 instructions: 141000003 cycles: 229643037 heartbeat IPC: 0.560419 cumulative IPC: 0.456763 (Simulation time: 1 hr 36 min 23 sec) 
Heartbeat CPU 0 instructions: 142000003 cycles: 231363176 heartbeat IPC: 0.581348 cumulative IPC: 0.45783 (Simulation time: 1 hr 36 min 32 sec) 
Heartbeat CPU 0 instructions: 143000002 cycles: 235255026 heartbeat IPC: 0.256947 cumulative IPC: 0.454013 (Simulation time: 1 hr 36 min 39 sec) 
Heartbeat CPU 0 instructions: 144000000 cycles: 240210798 heartbeat IPC: 0.201785 cumulative IPC: 0.448055 (Simulation time: 1 hr 36 min 47 sec) 
Heartbeat CPU 0 instructions: 145000003 cycles: 241950736 heartbeat IPC: 0.574735 cumulative IPC: 0.449097 (Simulation time: 1 hr 36 min 53 sec) 
Heartbeat CPU 0 instructions: 146000001 cycles: 243654692 heartbeat IPC: 0.586868 cumulative IPC: 0.450198 (Simulation time: 1 hr 37 min 0 sec) 
Heartbeat CPU 0 instructions: 147000001 cycles: 245318415 heartbeat IPC: 0.601062 cumulative IPC: 0.451366 (Simulation time: 1 hr 37 min 6 sec) 
Heartbeat CPU 0 instructions: 148000000 cycles: 247054560 heartbeat IPC: 0.575988 cumulative IPC: 0.452365 (Simulation time: 1 hr 37 min 13 sec) 
Heartbeat CPU 0 instructions: 149000000 cycles: 248791753 heartbeat IPC: 0.575641 cumulative IPC: 0.453345 (Simulation time: 1 hr 37 min 20 sec) 
Heartbeat CPU 0 instructions: 150000002 cycles: 250529017 heartbeat IPC: 0.575619 cumulative IPC: 0.45431 (Simulation time: 1 hr 37 min 26 sec) 
Finished CPU 0 instructions: 100000002 cycles: 220113906 cummulative IPC: 0.45431 (Simulation time: 1 hr 37 min 26 sec) 

ChampSim completed all CPUs

Region of Interest Statistics

CPU 0 cummulative IPC: 0.45431 instructions: 100000002 cycles: 220113906
LLC TOTAL     ACCESS:    1242535  HIT:     336981  MISS:     905554
LLC LOAD      ACCESS:      28200  HIT:       3631  MISS:      24569
LLC RFO       ACCESS:     290712  HIT:      86139  MISS:     204573
LLC PREFETCH  ACCESS:     631235  HIT:     110840  MISS:     520395
LLC WRITEBACK ACCESS:     292388  HIT:     136371  MISS:     156017
OPTgen accesses: 7333
OPTgen hits: 2518
OPTgen hit rate: 34.3379


