
*** ChampSim Multicore Out-of-Order Simulator ***

Warmup Instructions: 50000000
Simulation Instructions: 100000000
Configuration: 2
Number of CPUs: 1
LLC sets: 2048
LLC ways: 16
Off-chip DRAM Channels: 1 Width: 64-bit Data Rate: 1600 MT/s

CPU 0 runs /datasets/cs240c-wi22-a00-public/data/Assignment2-gz/mcf_46B.trace.gz
CPU 0 L1D next line prefetcher
CPU 0 L2C IP-based stride prefetcher
Initialize Hawkeye state
Heartbeat CPU 0 instructions: 1000002 cycles: 492244 heartbeat IPC: 2.03152 cumulative IPC: 2.03152 (Simulation time: 0 hr 0 min 49 sec) 
Heartbeat CPU 0 instructions: 2000002 cycles: 987646 heartbeat IPC: 2.01856 cumulative IPC: 2.02502 (Simulation time: 0 hr 1 min 37 sec) 
Heartbeat CPU 0 instructions: 3000003 cycles: 1514755 heartbeat IPC: 1.89714 cumulative IPC: 1.98052 (Simulation time: 0 hr 2 min 27 sec) 
Heartbeat CPU 0 instructions: 4000000 cycles: 2032817 heartbeat IPC: 1.93027 cumulative IPC: 1.96771 (Simulation time: 0 hr 3 min 18 sec) 
Heartbeat CPU 0 instructions: 5000000 cycles: 2526621 heartbeat IPC: 2.02509 cumulative IPC: 1.97893 (Simulation time: 0 hr 4 min 7 sec) 
Heartbeat CPU 0 instructions: 6000003 cycles: 3029663 heartbeat IPC: 1.98791 cumulative IPC: 1.98042 (Simulation time: 0 hr 4 min 55 sec) 
Heartbeat CPU 0 instructions: 7000001 cycles: 3570536 heartbeat IPC: 1.84886 cumulative IPC: 1.96049 (Simulation time: 0 hr 5 min 45 sec) 
Heartbeat CPU 0 instructions: 8000000 cycles: 4061294 heartbeat IPC: 2.03766 cumulative IPC: 1.96982 (Simulation time: 0 hr 6 min 35 sec) 
Heartbeat CPU 0 instructions: 9000001 cycles: 4545028 heartbeat IPC: 2.06725 cumulative IPC: 1.98019 (Simulation time: 0 hr 7 min 26 sec) 
Heartbeat CPU 0 instructions: 10000001 cycles: 5079971 heartbeat IPC: 1.86936 cumulative IPC: 1.96852 (Simulation time: 0 hr 8 min 15 sec) 
Heartbeat CPU 0 instructions: 11000002 cycles: 5624239 heartbeat IPC: 1.83733 cumulative IPC: 1.95582 (Simulation time: 0 hr 9 min 3 sec) 
Heartbeat CPU 0 instructions: 12000000 cycles: 6102965 heartbeat IPC: 2.08887 cumulative IPC: 1.96626 (Simulation time: 0 hr 9 min 53 sec) 
Heartbeat CPU 0 instructions: 13000000 cycles: 6598410 heartbeat IPC: 2.01839 cumulative IPC: 1.97017 (Simulation time: 0 hr 10 min 39 sec) 
Heartbeat CPU 0 instructions: 14000003 cycles: 7144644 heartbeat IPC: 1.83072 cumulative IPC: 1.95951 (Simulation time: 0 hr 11 min 30 sec) 
Heartbeat CPU 0 instructions: 15000000 cycles: 7622022 heartbeat IPC: 2.09477 cumulative IPC: 1.96798 (Simulation time: 0 hr 12 min 16 sec) 
Heartbeat CPU 0 instructions: 16000000 cycles: 8099165 heartbeat IPC: 2.09581 cumulative IPC: 1.97551 (Simulation time: 0 hr 13 min 1 sec) 
Heartbeat CPU 0 instructions: 17000002 cycles: 8642433 heartbeat IPC: 1.84072 cumulative IPC: 1.96704 (Simulation time: 0 hr 13 min 52 sec) 
Heartbeat CPU 0 instructions: 18000000 cycles: 9129927 heartbeat IPC: 2.0513 cumulative IPC: 1.97154 (Simulation time: 0 hr 14 min 41 sec) 
Heartbeat CPU 0 instructions: 19000002 cycles: 9618370 heartbeat IPC: 2.04733 cumulative IPC: 1.97539 (Simulation time: 0 hr 15 min 26 sec) 
Heartbeat CPU 0 instructions: 20000000 cycles: 10194249 heartbeat IPC: 1.73647 cumulative IPC: 1.96189 (Simulation time: 0 hr 16 min 15 sec) 
Heartbeat CPU 0 instructions: 21000001 cycles: 10738456 heartbeat IPC: 1.83754 cumulative IPC: 1.95559 (Simulation time: 0 hr 17 min 4 sec) 
Heartbeat CPU 0 instructions: 22000002 cycles: 11217131 heartbeat IPC: 2.0891 cumulative IPC: 1.96129 (Simulation time: 0 hr 17 min 51 sec) 
Heartbeat CPU 0 instructions: 23000000 cycles: 11697143 heartbeat IPC: 2.08328 cumulative IPC: 1.96629 (Simulation time: 0 hr 18 min 39 sec) 
Heartbeat CPU 0 instructions: 24000000 cycles: 12228138 heartbeat IPC: 1.88326 cumulative IPC: 1.96269 (Simulation time: 0 hr 19 min 26 sec) 
Heartbeat CPU 0 instructions: 25000002 cycles: 12728243 heartbeat IPC: 1.99958 cumulative IPC: 1.96414 (Simulation time: 0 hr 20 min 16 sec) 
Heartbeat CPU 0 instructions: 26000000 cycles: 13209187 heartbeat IPC: 2.07924 cumulative IPC: 1.96833 (Simulation time: 0 hr 21 min 7 sec) 
Heartbeat CPU 0 instructions: 27000002 cycles: 13722259 heartbeat IPC: 1.94905 cumulative IPC: 1.96761 (Simulation time: 0 hr 21 min 57 sec) 
Heartbeat CPU 0 instructions: 28000000 cycles: 14239125 heartbeat IPC: 1.93473 cumulative IPC: 1.96641 (Simulation time: 0 hr 22 min 46 sec) 
Heartbeat CPU 0 instructions: 29000001 cycles: 14717810 heartbeat IPC: 2.08906 cumulative IPC: 1.9704 (Simulation time: 0 hr 23 min 33 sec) 
Heartbeat CPU 0 instructions: 30000000 cycles: 15214855 heartbeat IPC: 2.01189 cumulative IPC: 1.97176 (Simulation time: 0 hr 24 min 19 sec) 
Heartbeat CPU 0 instructions: 31000002 cycles: 15747193 heartbeat IPC: 1.87851 cumulative IPC: 1.9686 (Simulation time: 0 hr 25 min 8 sec) 
Heartbeat CPU 0 instructions: 32000000 cycles: 16226778 heartbeat IPC: 2.08513 cumulative IPC: 1.97205 (Simulation time: 0 hr 25 min 57 sec) 
Heartbeat CPU 0 instructions: 33000000 cycles: 16731786 heartbeat IPC: 1.98017 cumulative IPC: 1.97229 (Simulation time: 0 hr 26 min 45 sec) 
Heartbeat CPU 0 instructions: 34000000 cycles: 17273061 heartbeat IPC: 1.84749 cumulative IPC: 1.96838 (Simulation time: 0 hr 27 min 34 sec) 
Heartbeat CPU 0 instructions: 35000001 cycles: 17762228 heartbeat IPC: 2.04429 cumulative IPC: 1.97047 (Simulation time: 0 hr 28 min 21 sec) 
Heartbeat CPU 0 instructions: 36000000 cycles: 18268042 heartbeat IPC: 1.97701 cumulative IPC: 1.97065 (Simulation time: 0 hr 29 min 8 sec) 
Heartbeat CPU 0 instructions: 37000002 cycles: 18784456 heartbeat IPC: 1.93643 cumulative IPC: 1.96971 (Simulation time: 0 hr 29 min 56 sec) 
Heartbeat CPU 0 instructions: 38000001 cycles: 19298158 heartbeat IPC: 1.94665 cumulative IPC: 1.9691 (Simulation time: 0 hr 30 min 45 sec) 
Heartbeat CPU 0 instructions: 39000000 cycles: 19775690 heartbeat IPC: 2.0941 cumulative IPC: 1.97212 (Simulation time: 0 hr 31 min 30 sec) 
Heartbeat CPU 0 instructions: 40000000 cycles: 20264870 heartbeat IPC: 2.04424 cumulative IPC: 1.97386 (Simulation time: 0 hr 32 min 17 sec) 
Heartbeat CPU 0 instructions: 41000000 cycles: 20803729 heartbeat IPC: 1.85577 cumulative IPC: 1.9708 (Simulation time: 0 hr 33 min 4 sec) 
Heartbeat CPU 0 instructions: 42000001 cycles: 21287525 heartbeat IPC: 2.06699 cumulative IPC: 1.97299 (Simulation time: 0 hr 33 min 49 sec) 
Heartbeat CPU 0 instructions: 43000000 cycles: 21765239 heartbeat IPC: 2.0933 cumulative IPC: 1.97563 (Simulation time: 0 hr 34 min 33 sec) 
Heartbeat CPU 0 instructions: 44000000 cycles: 22297340 heartbeat IPC: 1.87934 cumulative IPC: 1.97333 (Simulation time: 0 hr 35 min 19 sec) 
Heartbeat CPU 0 instructions: 45000001 cycles: 22791381 heartbeat IPC: 2.02413 cumulative IPC: 1.97443 (Simulation time: 0 hr 36 min 4 sec) 
Heartbeat CPU 0 instructions: 46000001 cycles: 23271524 heartbeat IPC: 2.08271 cumulative IPC: 1.97666 (Simulation time: 0 hr 36 min 50 sec) 
Heartbeat CPU 0 instructions: 47000002 cycles: 23783657 heartbeat IPC: 1.95262 cumulative IPC: 1.97615 (Simulation time: 0 hr 37 min 36 sec) 
Heartbeat CPU 0 instructions: 48000000 cycles: 24303533 heartbeat IPC: 1.92353 cumulative IPC: 1.97502 (Simulation time: 0 hr 38 min 23 sec) 
Heartbeat CPU 0 instructions: 49000000 cycles: 24786832 heartbeat IPC: 2.06911 cumulative IPC: 1.97686 (Simulation time: 0 hr 39 min 11 sec) 
Heartbeat CPU 0 instructions: 50000000 cycles: 25278121 heartbeat IPC: 2.03546 cumulative IPC: 1.978 (Simulation time: 0 hr 39 min 55 sec) 

Warmup complete CPU 0 instructions: 50000004 cycles: 25278122 (Simulation time: 0 hr 39 min 55 sec) 

Heartbeat CPU 0 instructions: 51000001 cycles: 39539114 heartbeat IPC: 0.0701214 cumulative IPC: 0.0701211 (Simulation time: 0 hr 41 min 26 sec) 
Heartbeat CPU 0 instructions: 52000000 cycles: 44312230 heartbeat IPC: 0.209507 cumulative IPC: 0.105074 (Simulation time: 0 hr 42 min 26 sec) 
Heartbeat CPU 0 instructions: 53000000 cycles: 48547933 heartbeat IPC: 0.236088 cumulative IPC: 0.128922 (Simulation time: 0 hr 43 min 23 sec) 
Heartbeat CPU 0 instructions: 54000002 cycles: 63962709 heartbeat IPC: 0.064873 cumulative IPC: 0.1034 (Simulation time: 0 hr 44 min 57 sec) 
Heartbeat CPU 0 instructions: 55000002 cycles: 69306033 heartbeat IPC: 0.187149 cumulative IPC: 0.113564 (Simulation time: 0 hr 45 min 56 sec) 
Heartbeat CPU 0 instructions: 56000000 cycles: 73670128 heartbeat IPC: 0.229142 cumulative IPC: 0.123987 (Simulation time: 0 hr 46 min 51 sec) 
Heartbeat CPU 0 instructions: 57000000 cycles: 86926983 heartbeat IPC: 0.0754327 cumulative IPC: 0.113546 (Simulation time: 0 hr 48 min 16 sec) 
Heartbeat CPU 0 instructions: 58000000 cycles: 94499930 heartbeat IPC: 0.132049 cumulative IPC: 0.11557 (Simulation time: 0 hr 49 min 24 sec) 
Heartbeat CPU 0 instructions: 59000002 cycles: 98994766 heartbeat IPC: 0.222478 cumulative IPC: 0.122089 (Simulation time: 0 hr 50 min 21 sec) 
Heartbeat CPU 0 instructions: 60000000 cycles: 110603084 heartbeat IPC: 0.086145 cumulative IPC: 0.117199 (Simulation time: 0 hr 51 min 40 sec) 
Heartbeat CPU 0 instructions: 61000002 cycles: 119895088 heartbeat IPC: 0.10762 cumulative IPC: 0.116258 (Simulation time: 0 hr 52 min 58 sec) 
Heartbeat CPU 0 instructions: 62000001 cycles: 124143422 heartbeat IPC: 0.235386 cumulative IPC: 0.121377 (Simulation time: 0 hr 53 min 56 sec) 
Heartbeat CPU 0 instructions: 63000001 cycles: 134279162 heartbeat IPC: 0.0986608 cumulative IPC: 0.119265 (Simulation time: 0 hr 55 min 16 sec) 
Heartbeat CPU 0 instructions: 64000000 cycles: 145497874 heartbeat IPC: 0.0891367 cumulative IPC: 0.116453 (Simulation time: 0 hr 56 min 34 sec) 
Heartbeat CPU 0 instructions: 65000002 cycles: 150817464 heartbeat IPC: 0.187985 cumulative IPC: 0.119484 (Simulation time: 0 hr 57 min 34 sec) 
Heartbeat CPU 0 instructions: 66000000 cycles: 157277459 heartbeat IPC: 0.154799 cumulative IPC: 0.121213 (Simulation time: 0 hr 58 min 38 sec) 
Heartbeat CPU 0 instructions: 67000002 cycles: 172974535 heartbeat IPC: 0.0637063 cumulative IPC: 0.115101 (Simulation time: 1 hr 0 min 13 sec) 
Heartbeat CPU 0 instructions: 68000000 cycles: 177628523 heartbeat IPC: 0.214869 cumulative IPC: 0.118149 (Simulation time: 1 hr 1 min 10 sec) 
Heartbeat CPU 0 instructions: 69000000 cycles: 181741899 heartbeat IPC: 0.243109 cumulative IPC: 0.121434 (Simulation time: 1 hr 2 min 6 sec) 
Heartbeat CPU 0 instructions: 70000001 cycles: 195826666 heartbeat IPC: 0.0709988 cumulative IPC: 0.117269 (Simulation time: 1 hr 3 min 35 sec) 
Heartbeat CPU 0 instructions: 71000002 cycles: 204743351 heartbeat IPC: 0.112149 cumulative IPC: 0.117014 (Simulation time: 1 hr 4 min 51 sec) 
Heartbeat CPU 0 instructions: 72000000 cycles: 209693495 heartbeat IPC: 0.202014 cumulative IPC: 0.119296 (Simulation time: 1 hr 5 min 50 sec) 
Heartbeat CPU 0 instructions: 73000002 cycles: 218831668 heartbeat IPC: 0.109431 cumulative IPC: 0.11883 (Simulation time: 1 hr 7 min 6 sec) 
Heartbeat CPU 0 instructions: 74000001 cycles: 230643055 heartbeat IPC: 0.084664 cumulative IPC: 0.116865 (Simulation time: 1 hr 8 min 35 sec) 
Heartbeat CPU 0 instructions: 75000002 cycles: 235336783 heartbeat IPC: 0.21305 cumulative IPC: 0.119014 (Simulation time: 1 hr 9 min 30 sec) 
Heartbeat CPU 0 instructions: 76000000 cycles: 241444129 heartbeat IPC: 0.163737 cumulative IPC: 0.120278 (Simulation time: 1 hr 10 min 29 sec) 
Heartbeat CPU 0 instructions: 77000001 cycles: 257615116 heartbeat IPC: 0.0618392 cumulative IPC: 0.11621 (Simulation time: 1 hr 12 min 5 sec) 
Heartbeat CPU 0 instructions: 78000002 cycles: 262761337 heartbeat IPC: 0.194318 cumulative IPC: 0.117903 (Simulation time: 1 hr 13 min 4 sec) 
Heartbeat CPU 0 instructions: 79000001 cycles: 267210985 heartbeat IPC: 0.224737 cumulative IPC: 0.119868 (Simulation time: 1 hr 13 min 50 sec) 
Heartbeat CPU 0 instructions: 80000000 cycles: 280318516 heartbeat IPC: 0.0762919 cumulative IPC: 0.117628 (Simulation time: 1 hr 15 min 8 sec) 
Heartbeat CPU 0 instructions: 81000000 cycles: 287796175 heartbeat IPC: 0.133732 cumulative IPC: 0.118087 (Simulation time: 1 hr 16 min 5 sec) 
Heartbeat CPU 0 instructions: 82000000 cycles: 292672888 heartbeat IPC: 0.205056 cumulative IPC: 0.119673 (Simulation time: 1 hr 16 min 53 sec) 
Heartbeat CPU 0 instructions: 83000001 cycles: 302511981 heartbeat IPC: 0.101635 cumulative IPC: 0.119033 (Simulation time: 1 hr 17 min 55 sec) 
Heartbeat CPU 0 instructions: 84000000 cycles: 313704851 heartbeat IPC: 0.0893425 cumulative IPC: 0.117881 (Simulation time: 1 hr 19 min 1 sec) 
Heartbeat CPU 0 instructions: 85000001 cycles: 318069040 heartbeat IPC: 0.229138 cumulative IPC: 0.119539 (Simulation time: 1 hr 19 min 53 sec) 
Heartbeat CPU 0 instructions: 86000000 cycles: 326124462 heartbeat IPC: 0.12414 cumulative IPC: 0.119662 (Simulation time: 1 hr 20 min 48 sec) 
Heartbeat CPU 0 instructions: 87000000 cycles: 340425578 heartbeat IPC: 0.0699246 cumulative IPC: 0.117405 (Simulation time: 1 hr 22 min 1 sec) 
Heartbeat CPU 0 instructions: 88000000 cycles: 346659873 heartbeat IPC: 0.160403 cumulative IPC: 0.118239 (Simulation time: 1 hr 22 min 49 sec) 
Heartbeat CPU 0 instructions: 89000000 cycles: 350892411 heartbeat IPC: 0.236265 cumulative IPC: 0.119774 (Simulation time: 1 hr 23 min 30 sec) 
Heartbeat CPU 0 instructions: 90000003 cycles: 362595139 heartbeat IPC: 0.0854504 cumulative IPC: 0.118583 (Simulation time: 1 hr 24 min 23 sec) 
Heartbeat CPU 0 instructions: 91000000 cycles: 371311379 heartbeat IPC: 0.114728 cumulative IPC: 0.118486 (Simulation time: 1 hr 25 min 6 sec) 
Heartbeat CPU 0 instructions: 92000000 cycles: 375616466 heartbeat IPC: 0.232283 cumulative IPC: 0.119884 (Simulation time: 1 hr 25 min 38 sec) 
Heartbeat CPU 0 instructions: 93000002 cycles: 384669705 heartbeat IPC: 0.110458 cumulative IPC: 0.119647 (Simulation time: 1 hr 26 min 17 sec) 
Heartbeat CPU 0 instructions: 94000002 cycles: 396149723 heartbeat IPC: 0.0871079 cumulative IPC: 0.118639 (Simulation time: 1 hr 27 min 1 sec) 
Heartbeat CPU 0 instructions: 95000000 cycles: 401986138 heartbeat IPC: 0.171338 cumulative IPC: 0.119456 (Simulation time: 1 hr 27 min 33 sec) 
Heartbeat CPU 0 instructions: 96000000 cycles: 407603559 heartbeat IPC: 0.178018 cumulative IPC: 0.120316 (Simulation time: 1 hr 28 min 6 sec) 
Heartbeat CPU 0 instructions: 97000000 cycles: 422629843 heartbeat IPC: 0.0665501 cumulative IPC: 0.118283 (Simulation time: 1 hr 28 min 50 sec) 
Heartbeat CPU 0 instructions: 98000002 cycles: 427484361 heartbeat IPC: 0.205994 cumulative IPC: 0.119342 (Simulation time: 1 hr 29 min 21 sec) 
Heartbeat CPU 0 instructions: 99000002 cycles: 432359147 heartbeat IPC: 0.205137 cumulative IPC: 0.120369 (Simulation time: 1 hr 29 min 50 sec) 
Heartbeat CPU 0 instructions: 100000000 cycles: 446244652 heartbeat IPC: 0.0720174 cumulative IPC: 0.118774 (Simulation time: 1 hr 30 min 29 sec) 
Heartbeat CPU 0 instructions: 101000000 cycles: 453134521 heartbeat IPC: 0.145141 cumulative IPC: 0.119199 (Simulation time: 1 hr 30 min 59 sec) 
Heartbeat CPU 0 instructions: 102000003 cycles: 457426763 heartbeat IPC: 0.232979 cumulative IPC: 0.120329 (Simulation time: 1 hr 31 min 21 sec) 
Heartbeat CPU 0 instructions: 103000003 cycles: 469295259 heartbeat IPC: 0.0842567 cumulative IPC: 0.119365 (Simulation time: 1 hr 31 min 52 sec) 
Heartbeat CPU 0 instructions: 104000000 cycles: 480618310 heartbeat IPC: 0.0883152 cumulative IPC: 0.118593 (Simulation time: 1 hr 32 min 22 sec) 
Heartbeat CPU 0 instructions: 105000000 cycles: 485405834 heartbeat IPC: 0.208876 cumulative IPC: 0.119532 (Simulation time: 1 hr 32 min 44 sec) 
Heartbeat CPU 0 instructions: 106000000 cycles: 489599717 heartbeat IPC: 0.238443 cumulative IPC: 0.120606 (Simulation time: 1 hr 33 min 4 sec) 
Heartbeat CPU 0 instructions: 107000002 cycles: 504838143 heartbeat IPC: 0.0656237 cumulative IPC: 0.118859 (Simulation time: 1 hr 33 min 35 sec) 
Heartbeat CPU 0 instructions: 108000000 cycles: 510290739 heartbeat IPC: 0.183399 cumulative IPC: 0.119585 (Simulation time: 1 hr 33 min 51 sec) 
Heartbeat CPU 0 instructions: 109000001 cycles: 514684352 heartbeat IPC: 0.227603 cumulative IPC: 0.120554 (Simulation time: 1 hr 34 min 5 sec) 
Heartbeat CPU 0 instructions: 110000002 cycles: 524514301 heartbeat IPC: 0.10173 cumulative IPC: 0.120184 (Simulation time: 1 hr 34 min 22 sec) 
Heartbeat CPU 0 instructions: 111000003 cycles: 535396503 heartbeat IPC: 0.0918933 cumulative IPC: 0.11958 (Simulation time: 1 hr 34 min 39 sec) 
Heartbeat CPU 0 instructions: 112000000 cycles: 539548951 heartbeat IPC: 0.240821 cumulative IPC: 0.120559 (Simulation time: 1 hr 34 min 50 sec) 
Heartbeat CPU 0 instructions: 113000000 cycles: 546905628 heartbeat IPC: 0.135931 cumulative IPC: 0.120776 (Simulation time: 1 hr 35 min 3 sec) 
Heartbeat CPU 0 instructions: 114000000 cycles: 560477471 heartbeat IPC: 0.073682 cumulative IPC: 0.119582 (Simulation time: 1 hr 35 min 19 sec) 
Heartbeat CPU 0 instructions: 115000001 cycles: 568116344 heartbeat IPC: 0.130909 cumulative IPC: 0.119741 (Simulation time: 1 hr 35 min 33 sec) 
Heartbeat CPU 0 instructions: 116000000 cycles: 572212797 heartbeat IPC: 0.244113 cumulative IPC: 0.120673 (Simulation time: 1 hr 35 min 44 sec) 
Heartbeat CPU 0 instructions: 117000000 cycles: 582604610 heartbeat IPC: 0.0962296 cumulative IPC: 0.120217 (Simulation time: 1 hr 35 min 58 sec) 
Heartbeat CPU 0 instructions: 118000000 cycles: 592854834 heartbeat IPC: 0.0975588 cumulative IPC: 0.119808 (Simulation time: 1 hr 36 min 12 sec) 
Heartbeat CPU 0 instructions: 119000000 cycles: 597126682 heartbeat IPC: 0.234091 cumulative IPC: 0.120661 (Simulation time: 1 hr 36 min 21 sec) 
Heartbeat CPU 0 instructions: 120000000 cycles: 603775306 heartbeat IPC: 0.150407 cumulative IPC: 0.121003 (Simulation time: 1 hr 36 min 30 sec) 
Heartbeat CPU 0 instructions: 121000000 cycles: 617448290 heartbeat IPC: 0.0731369 cumulative IPC: 0.119898 (Simulation time: 1 hr 36 min 42 sec) 
Heartbeat CPU 0 instructions: 122000001 cycles: 621756013 heartbeat IPC: 0.232141 cumulative IPC: 0.120709 (Simulation time: 1 hr 36 min 49 sec) 
Heartbeat CPU 0 instructions: 123000000 cycles: 626018870 heartbeat IPC: 0.234584 cumulative IPC: 0.121517 (Simulation time: 1 hr 36 min 57 sec) 
Heartbeat CPU 0 instructions: 124000000 cycles: 640691008 heartbeat IPC: 0.0681564 cumulative IPC: 0.120244 (Simulation time: 1 hr 37 min 7 sec) 
Heartbeat CPU 0 instructions: 125000000 cycles: 646680839 heartbeat IPC: 0.16695 cumulative IPC: 0.120695 (Simulation time: 1 hr 37 min 15 sec) 
Heartbeat CPU 0 instructions: 126000000 cycles: 650871848 heartbeat IPC: 0.238606 cumulative IPC: 0.121485 (Simulation time: 1 hr 37 min 22 sec) 
Heartbeat CPU 0 instructions: 127000002 cycles: 663085740 heartbeat IPC: 0.0818741 cumulative IPC: 0.120726 (Simulation time: 1 hr 37 min 30 sec) 
Heartbeat CPU 0 instructions: 128000000 cycles: 671761106 heartbeat IPC: 0.115269 cumulative IPC: 0.120653 (Simulation time: 1 hr 37 min 39 sec) 
Heartbeat CPU 0 instructions: 129000000 cycles: 675952095 heartbeat IPC: 0.238607 cumulative IPC: 0.121413 (Simulation time: 1 hr 37 min 45 sec) 
Heartbeat CPU 0 instructions: 130000000 cycles: 684709292 heartbeat IPC: 0.114192 cumulative IPC: 0.121317 (Simulation time: 1 hr 37 min 52 sec) 
Heartbeat CPU 0 instructions: 131000000 cycles: 697254784 heartbeat IPC: 0.0797099 cumulative IPC: 0.12054 (Simulation time: 1 hr 38 min 0 sec) 
Heartbeat CPU 0 instructions: 132000000 cycles: 702252146 heartbeat IPC: 0.200106 cumulative IPC: 0.121127 (Simulation time: 1 hr 38 min 6 sec) 
Heartbeat CPU 0 instructions: 133000002 cycles: 706976023 heartbeat IPC: 0.211691 cumulative IPC: 0.121755 (Simulation time: 1 hr 38 min 12 sec) 
Heartbeat CPU 0 instructions: 134000001 cycles: 722346971 heartbeat IPC: 0.0650577 cumulative IPC: 0.120505 (Simulation time: 1 hr 38 min 22 sec) 
Heartbeat CPU 0 instructions: 135000001 cycles: 727065645 heartbeat IPC: 0.211924 cumulative IPC: 0.121119 (Simulation time: 1 hr 38 min 28 sec) 
Heartbeat CPU 0 instructions: 136000000 cycles: 735391686 heartbeat IPC: 0.120105 cumulative IPC: 0.121107 (Simulation time: 1 hr 38 min 34 sec) 
Heartbeat CPU 0 instructions: 137000000 cycles: 745597894 heartbeat IPC: 0.0979796 cumulative IPC: 0.12078 (Simulation time: 1 hr 38 min 42 sec) 
Heartbeat CPU 0 instructions: 138000001 cycles: 756244865 heartbeat IPC: 0.0939235 cumulative IPC: 0.120389 (Simulation time: 1 hr 38 min 49 sec) 
Heartbeat CPU 0 instructions: 139000002 cycles: 760532950 heartbeat IPC: 0.233205 cumulative IPC: 0.121046 (Simulation time: 1 hr 38 min 55 sec) 
Heartbeat CPU 0 instructions: 140000000 cycles: 766753149 heartbeat IPC: 0.160766 cumulative IPC: 0.12138 (Simulation time: 1 hr 39 min 2 sec) 
Heartbeat CPU 0 instructions: 141000002 cycles: 780724224 heartbeat IPC: 0.0715766 cumulative IPC: 0.120459 (Simulation time: 1 hr 39 min 11 sec) 
Heartbeat CPU 0 instructions: 142000002 cycles: 784942830 heartbeat IPC: 0.237045 cumulative IPC: 0.121106 (Simulation time: 1 hr 39 min 18 sec) 
Heartbeat CPU 0 instructions: 143000002 cycles: 788907632 heartbeat IPC: 0.252219 cumulative IPC: 0.121787 (Simulation time: 1 hr 39 min 24 sec) 
Heartbeat CPU 0 instructions: 144000000 cycles: 803899378 heartbeat IPC: 0.0667032 cumulative IPC: 0.120726 (Simulation time: 1 hr 39 min 34 sec) 
Heartbeat CPU 0 instructions: 145000001 cycles: 809334552 heartbeat IPC: 0.183987 cumulative IPC: 0.121165 (Simulation time: 1 hr 39 min 41 sec) 
Heartbeat CPU 0 instructions: 146000001 cycles: 813454165 heartbeat IPC: 0.242741 cumulative IPC: 0.1218 (Simulation time: 1 hr 39 min 47 sec) 
Heartbeat CPU 0 instructions: 147000000 cycles: 826495713 heartbeat IPC: 0.0766779 cumulative IPC: 0.121066 (Simulation time: 1 hr 39 min 56 sec) 
Heartbeat CPU 0 instructions: 148000000 cycles: 833912621 heartbeat IPC: 0.134827 cumulative IPC: 0.121192 (Simulation time: 1 hr 40 min 3 sec) 
Heartbeat CPU 0 instructions: 149000000 cycles: 838155567 heartbeat IPC: 0.235685 cumulative IPC: 0.12179 (Simulation time: 1 hr 40 min 10 sec) 
Heartbeat CPU 0 instructions: 150000000 cycles: 849032868 heartbeat IPC: 0.0919346 cumulative IPC: 0.121395 (Simulation time: 1 hr 40 min 18 sec) 
Finished CPU 0 instructions: 100000000 cycles: 823754913 cummulative IPC: 0.121395 (Simulation time: 1 hr 40 min 18 sec) 

ChampSim completed all CPUs

Region of Interest Statistics

CPU 0 cummulative IPC: 0.121395 instructions: 100000000 cycles: 823754913
LLC TOTAL     ACCESS:   18837835  HIT:    8231925  MISS:   10605910
LLC LOAD      ACCESS:    8518316  HIT:    4327672  MISS:    4190644
LLC RFO       ACCESS:     210560  HIT:      71009  MISS:     139551
LLC PREFETCH  ACCESS:    8013559  HIT:    2559279  MISS:    5454280
LLC WRITEBACK ACCESS:    2095400  HIT:    1273965  MISS:     821435
OPTgen accesses: 201782
OPTgen hits: 134164
OPTgen hit rate: 66.4896


