
*** ChampSim Multicore Out-of-Order Simulator ***

Warmup Instructions: 50000000
Simulation Instructions: 100000000
Configuration: 2
Number of CPUs: 1
LLC sets: 2048
LLC ways: 16
Off-chip DRAM Channels: 1 Width: 64-bit Data Rate: 1600 MT/s

CPU 0 runs /datasets/cs240c-wi22-a00-public/data/Assignment2-gz/GemsFDTD_716B.trace.gz
CPU 0 L1D next line prefetcher
CPU 0 L2C IP-based stride prefetcher
Initialize Hawkeye state
Heartbeat CPU 0 instructions: 1000000 cycles: 415045 heartbeat IPC: 2.40938 cumulative IPC: 2.40938 (Simulation time: 0 hr 0 min 35 sec) 
Heartbeat CPU 0 instructions: 2000003 cycles: 829979 heartbeat IPC: 2.41003 cumulative IPC: 2.4097 (Simulation time: 0 hr 1 min 12 sec) 
Heartbeat CPU 0 instructions: 3000000 cycles: 1280233 heartbeat IPC: 2.22096 cumulative IPC: 2.34332 (Simulation time: 0 hr 1 min 46 sec) 
Heartbeat CPU 0 instructions: 4000000 cycles: 1737264 heartbeat IPC: 2.18804 cumulative IPC: 2.30247 (Simulation time: 0 hr 2 min 22 sec) 
Heartbeat CPU 0 instructions: 5000000 cycles: 2152245 heartbeat IPC: 2.40975 cumulative IPC: 2.32316 (Simulation time: 0 hr 2 min 56 sec) 
Heartbeat CPU 0 instructions: 6000000 cycles: 2567261 heartbeat IPC: 2.40955 cumulative IPC: 2.33712 (Simulation time: 0 hr 3 min 33 sec) 
Heartbeat CPU 0 instructions: 7000000 cycles: 2982264 heartbeat IPC: 2.40962 cumulative IPC: 2.34721 (Simulation time: 0 hr 4 min 11 sec) 
Heartbeat CPU 0 instructions: 8000000 cycles: 3395191 heartbeat IPC: 2.42174 cumulative IPC: 2.35627 (Simulation time: 0 hr 4 min 47 sec) 
Heartbeat CPU 0 instructions: 9000003 cycles: 3840223 heartbeat IPC: 2.24704 cumulative IPC: 2.34361 (Simulation time: 0 hr 5 min 28 sec) 
Heartbeat CPU 0 instructions: 10000002 cycles: 4354523 heartbeat IPC: 1.94439 cumulative IPC: 2.29646 (Simulation time: 0 hr 6 min 19 sec) 
Heartbeat CPU 0 instructions: 11000000 cycles: 4869364 heartbeat IPC: 1.94234 cumulative IPC: 2.25902 (Simulation time: 0 hr 7 min 8 sec) 
Heartbeat CPU 0 instructions: 12000000 cycles: 5383711 heartbeat IPC: 1.94421 cumulative IPC: 2.22895 (Simulation time: 0 hr 8 min 1 sec) 
Heartbeat CPU 0 instructions: 13000002 cycles: 5898405 heartbeat IPC: 1.94291 cumulative IPC: 2.20399 (Simulation time: 0 hr 8 min 54 sec) 
Heartbeat CPU 0 instructions: 14000000 cycles: 6414336 heartbeat IPC: 1.93824 cumulative IPC: 2.18261 (Simulation time: 0 hr 9 min 48 sec) 
Heartbeat CPU 0 instructions: 15000001 cycles: 6934503 heartbeat IPC: 1.92246 cumulative IPC: 2.1631 (Simulation time: 0 hr 10 min 41 sec) 
Heartbeat CPU 0 instructions: 16000000 cycles: 7454724 heartbeat IPC: 1.92226 cumulative IPC: 2.14629 (Simulation time: 0 hr 11 min 33 sec) 
Heartbeat CPU 0 instructions: 17000001 cycles: 7975432 heartbeat IPC: 1.92046 cumulative IPC: 2.13155 (Simulation time: 0 hr 12 min 24 sec) 
Heartbeat CPU 0 instructions: 18000000 cycles: 8496345 heartbeat IPC: 1.9197 cumulative IPC: 2.11856 (Simulation time: 0 hr 13 min 15 sec) 
Heartbeat CPU 0 instructions: 19000003 cycles: 9017475 heartbeat IPC: 1.91891 cumulative IPC: 2.10702 (Simulation time: 0 hr 14 min 7 sec) 
Heartbeat CPU 0 instructions: 20000000 cycles: 9556077 heartbeat IPC: 1.85665 cumulative IPC: 2.09291 (Simulation time: 0 hr 14 min 57 sec) 
Heartbeat CPU 0 instructions: 21000000 cycles: 10098175 heartbeat IPC: 1.84468 cumulative IPC: 2.07958 (Simulation time: 0 hr 15 min 47 sec) 
Heartbeat CPU 0 instructions: 22000001 cycles: 10639164 heartbeat IPC: 1.84847 cumulative IPC: 2.06783 (Simulation time: 0 hr 16 min 38 sec) 
Heartbeat CPU 0 instructions: 23000003 cycles: 11180642 heartbeat IPC: 1.8468 cumulative IPC: 2.05713 (Simulation time: 0 hr 17 min 31 sec) 
Heartbeat CPU 0 instructions: 24000000 cycles: 11722876 heartbeat IPC: 1.84422 cumulative IPC: 2.04728 (Simulation time: 0 hr 18 min 25 sec) 
Heartbeat CPU 0 instructions: 25000000 cycles: 12250673 heartbeat IPC: 1.89467 cumulative IPC: 2.0407 (Simulation time: 0 hr 19 min 17 sec) 
Heartbeat CPU 0 instructions: 26000000 cycles: 12769409 heartbeat IPC: 1.92776 cumulative IPC: 2.03612 (Simulation time: 0 hr 20 min 10 sec) 
Heartbeat CPU 0 instructions: 27000002 cycles: 13288112 heartbeat IPC: 1.92789 cumulative IPC: 2.03189 (Simulation time: 0 hr 21 min 6 sec) 
Heartbeat CPU 0 instructions: 28000000 cycles: 13806575 heartbeat IPC: 1.92877 cumulative IPC: 2.02802 (Simulation time: 0 hr 22 min 2 sec) 
Heartbeat CPU 0 instructions: 29000003 cycles: 14324745 heartbeat IPC: 1.92987 cumulative IPC: 2.02447 (Simulation time: 0 hr 22 min 53 sec) 
Heartbeat CPU 0 instructions: 30000001 cycles: 14858452 heartbeat IPC: 1.87368 cumulative IPC: 2.01905 (Simulation time: 0 hr 23 min 43 sec) 
Heartbeat CPU 0 instructions: 31000001 cycles: 15419689 heartbeat IPC: 1.78178 cumulative IPC: 2.01042 (Simulation time: 0 hr 24 min 32 sec) 
Heartbeat CPU 0 instructions: 32000000 cycles: 15980962 heartbeat IPC: 1.78166 cumulative IPC: 2.00238 (Simulation time: 0 hr 25 min 22 sec) 
Heartbeat CPU 0 instructions: 33000002 cycles: 16543209 heartbeat IPC: 1.77858 cumulative IPC: 1.99478 (Simulation time: 0 hr 26 min 10 sec) 
Heartbeat CPU 0 instructions: 34000001 cycles: 17104046 heartbeat IPC: 1.78305 cumulative IPC: 1.98783 (Simulation time: 0 hr 26 min 58 sec) 
Heartbeat CPU 0 instructions: 35000001 cycles: 17665333 heartbeat IPC: 1.78162 cumulative IPC: 1.98128 (Simulation time: 0 hr 27 min 47 sec) 
Heartbeat CPU 0 instructions: 36000000 cycles: 18227987 heartbeat IPC: 1.77729 cumulative IPC: 1.97499 (Simulation time: 0 hr 28 min 36 sec) 
Heartbeat CPU 0 instructions: 37000002 cycles: 18801913 heartbeat IPC: 1.74239 cumulative IPC: 1.96789 (Simulation time: 0 hr 29 min 27 sec) 
Heartbeat CPU 0 instructions: 38000002 cycles: 19375767 heartbeat IPC: 1.7426 cumulative IPC: 1.96121 (Simulation time: 0 hr 30 min 18 sec) 
Heartbeat CPU 0 instructions: 39000000 cycles: 19949462 heartbeat IPC: 1.74308 cumulative IPC: 1.95494 (Simulation time: 0 hr 31 min 9 sec) 
Heartbeat CPU 0 instructions: 40000000 cycles: 20523352 heartbeat IPC: 1.74249 cumulative IPC: 1.949 (Simulation time: 0 hr 31 min 58 sec) 
Heartbeat CPU 0 instructions: 41000002 cycles: 21096815 heartbeat IPC: 1.7438 cumulative IPC: 1.94342 (Simulation time: 0 hr 32 min 45 sec) 
Heartbeat CPU 0 instructions: 42000000 cycles: 21670579 heartbeat IPC: 1.74287 cumulative IPC: 1.93811 (Simulation time: 0 hr 33 min 33 sec) 
Heartbeat CPU 0 instructions: 43000002 cycles: 22218133 heartbeat IPC: 1.82631 cumulative IPC: 1.93536 (Simulation time: 0 hr 34 min 23 sec) 
Heartbeat CPU 0 instructions: 44000000 cycles: 22751729 heartbeat IPC: 1.87407 cumulative IPC: 1.93392 (Simulation time: 0 hr 35 min 14 sec) 
Heartbeat CPU 0 instructions: 45000001 cycles: 23285141 heartbeat IPC: 1.87473 cumulative IPC: 1.93256 (Simulation time: 0 hr 36 min 2 sec) 
Heartbeat CPU 0 instructions: 46000001 cycles: 23818680 heartbeat IPC: 1.87428 cumulative IPC: 1.93126 (Simulation time: 0 hr 36 min 53 sec) 
Heartbeat CPU 0 instructions: 47000003 cycles: 24352148 heartbeat IPC: 1.87453 cumulative IPC: 1.93001 (Simulation time: 0 hr 37 min 41 sec) 
Heartbeat CPU 0 instructions: 48000000 cycles: 24891904 heartbeat IPC: 1.85268 cumulative IPC: 1.92834 (Simulation time: 0 hr 38 min 36 sec) 
Heartbeat CPU 0 instructions: 49000003 cycles: 25438856 heartbeat IPC: 1.82832 cumulative IPC: 1.92619 (Simulation time: 0 hr 39 min 25 sec) 
Heartbeat CPU 0 instructions: 50000003 cycles: 25985983 heartbeat IPC: 1.82773 cumulative IPC: 1.92411 (Simulation time: 0 hr 40 min 13 sec) 

Warmup complete CPU 0 instructions: 50000003 cycles: 25985983 (Simulation time: 0 hr 40 min 13 sec) 

Heartbeat CPU 0 instructions: 51000003 cycles: 29571092 heartbeat IPC: 0.278932 cumulative IPC: 0.278932 (Simulation time: 0 hr 41 min 22 sec) 
Heartbeat CPU 0 instructions: 52000000 cycles: 33155544 heartbeat IPC: 0.278982 cumulative IPC: 0.278957 (Simulation time: 0 hr 42 min 33 sec) 
Heartbeat CPU 0 instructions: 53000002 cycles: 36888653 heartbeat IPC: 0.267874 cumulative IPC: 0.275162 (Simulation time: 0 hr 43 min 46 sec) 
Heartbeat CPU 0 instructions: 54000001 cycles: 39007424 heartbeat IPC: 0.471971 cumulative IPC: 0.307186 (Simulation time: 0 hr 44 min 47 sec) 
Heartbeat CPU 0 instructions: 55000002 cycles: 40813571 heartbeat IPC: 0.553665 cumulative IPC: 0.337209 (Simulation time: 0 hr 45 min 44 sec) 
Heartbeat CPU 0 instructions: 56000000 cycles: 42667690 heartbeat IPC: 0.539339 cumulative IPC: 0.359675 (Simulation time: 0 hr 46 min 41 sec) 
Heartbeat CPU 0 instructions: 57000002 cycles: 44507238 heartbeat IPC: 0.543613 cumulative IPC: 0.377944 (Simulation time: 0 hr 47 min 40 sec) 
Heartbeat CPU 0 instructions: 58000001 cycles: 46278001 heartbeat IPC: 0.564728 cumulative IPC: 0.394244 (Simulation time: 0 hr 48 min 38 sec) 
Heartbeat CPU 0 instructions: 59000002 cycles: 48407188 heartbeat IPC: 0.469663 cumulative IPC: 0.401406 (Simulation time: 0 hr 49 min 39 sec) 
Heartbeat CPU 0 instructions: 60000000 cycles: 49935581 heartbeat IPC: 0.654281 cumulative IPC: 0.417543 (Simulation time: 0 hr 50 min 44 sec) 
Heartbeat CPU 0 instructions: 61000002 cycles: 51465101 heartbeat IPC: 0.653801 cumulative IPC: 0.431726 (Simulation time: 0 hr 51 min 43 sec) 
Heartbeat CPU 0 instructions: 62000000 cycles: 53005277 heartbeat IPC: 0.649275 cumulative IPC: 0.444127 (Simulation time: 0 hr 52 min 43 sec) 
Heartbeat CPU 0 instructions: 63000000 cycles: 54563886 heartbeat IPC: 0.641598 cumulative IPC: 0.454897 (Simulation time: 0 hr 53 min 45 sec) 
Heartbeat CPU 0 instructions: 64000000 cycles: 56590089 heartbeat IPC: 0.493534 cumulative IPC: 0.457455 (Simulation time: 0 hr 54 min 47 sec) 
Heartbeat CPU 0 instructions: 65000001 cycles: 57964559 heartbeat IPC: 0.727554 cumulative IPC: 0.469064 (Simulation time: 0 hr 55 min 44 sec) 
Heartbeat CPU 0 instructions: 66000003 cycles: 59307423 heartbeat IPC: 0.744679 cumulative IPC: 0.480171 (Simulation time: 0 hr 56 min 38 sec) 
Heartbeat CPU 0 instructions: 67000003 cycles: 60650368 heartbeat IPC: 0.744632 cumulative IPC: 0.490417 (Simulation time: 0 hr 57 min 36 sec) 
Heartbeat CPU 0 instructions: 68000000 cycles: 61987451 heartbeat IPC: 0.747894 cumulative IPC: 0.49998 (Simulation time: 0 hr 58 min 32 sec) 
Heartbeat CPU 0 instructions: 69000000 cycles: 63322374 heartbeat IPC: 0.749107 cumulative IPC: 0.508887 (Simulation time: 0 hr 59 min 27 sec) 
Heartbeat CPU 0 instructions: 70000000 cycles: 65112381 heartbeat IPC: 0.558657 cumulative IPC: 0.511164 (Simulation time: 1 hr 0 min 20 sec) 
Heartbeat CPU 0 instructions: 71000000 cycles: 66655133 heartbeat IPC: 0.648192 cumulative IPC: 0.516362 (Simulation time: 1 hr 1 min 21 sec) 
Heartbeat CPU 0 instructions: 72000000 cycles: 68012868 heartbeat IPC: 0.736521 cumulative IPC: 0.523474 (Simulation time: 1 hr 2 min 17 sec) 
Heartbeat CPU 0 instructions: 73000002 cycles: 69373443 heartbeat IPC: 0.734985 cumulative IPC: 0.530107 (Simulation time: 1 hr 3 min 15 sec) 
Heartbeat CPU 0 instructions: 74000000 cycles: 70735185 heartbeat IPC: 0.734352 cumulative IPC: 0.536322 (Simulation time: 1 hr 4 min 12 sec) 
Heartbeat CPU 0 instructions: 75000000 cycles: 72102151 heartbeat IPC: 0.731547 cumulative IPC: 0.542109 (Simulation time: 1 hr 5 min 5 sec) 
Heartbeat CPU 0 instructions: 76000000 cycles: 73467387 heartbeat IPC: 0.732474 cumulative IPC: 0.547583 (Simulation time: 1 hr 5 min 58 sec) 
Heartbeat CPU 0 instructions: 77000001 cycles: 77030630 heartbeat IPC: 0.280643 cumulative IPC: 0.528949 (Simulation time: 1 hr 7 min 15 sec) 
Heartbeat CPU 0 instructions: 78000000 cycles: 80427780 heartbeat IPC: 0.294364 cumulative IPC: 0.514311 (Simulation time: 1 hr 8 min 24 sec) 
Heartbeat CPU 0 instructions: 79000002 cycles: 83814119 heartbeat IPC: 0.295305 cumulative IPC: 0.501486 (Simulation time: 1 hr 9 min 34 sec) 
Heartbeat CPU 0 instructions: 80000000 cycles: 87203180 heartbeat IPC: 0.295066 cumulative IPC: 0.490058 (Simulation time: 1 hr 10 min 45 sec) 
Heartbeat CPU 0 instructions: 81000000 cycles: 90592056 heartbeat IPC: 0.295083 cumulative IPC: 0.479831 (Simulation time: 1 hr 11 min 52 sec) 
Heartbeat CPU 0 instructions: 82000002 cycles: 94557336 heartbeat IPC: 0.25219 cumulative IPC: 0.466667 (Simulation time: 1 hr 12 min 55 sec) 
Heartbeat CPU 0 instructions: 83000002 cycles: 98173961 heartbeat IPC: 0.276501 cumulative IPC: 0.45714 (Simulation time: 1 hr 13 min 57 sec) 
Heartbeat CPU 0 instructions: 84000000 cycles: 101796797 heartbeat IPC: 0.276026 cumulative IPC: 0.448485 (Simulation time: 1 hr 14 min 56 sec) 
Heartbeat CPU 0 instructions: 85000000 cycles: 105416412 heartbeat IPC: 0.276272 cumulative IPC: 0.440637 (Simulation time: 1 hr 15 min 52 sec) 
Heartbeat CPU 0 instructions: 86000000 cycles: 109037622 heartbeat IPC: 0.276151 cumulative IPC: 0.433465 (Simulation time: 1 hr 16 min 49 sec) 
Heartbeat CPU 0 instructions: 87000000 cycles: 112737886 heartbeat IPC: 0.270251 cumulative IPC: 0.426504 (Simulation time: 1 hr 17 min 44 sec) 
Heartbeat CPU 0 instructions: 88000000 cycles: 114465122 heartbeat IPC: 0.57896 cumulative IPC: 0.42948 (Simulation time: 1 hr 18 min 32 sec) 
Heartbeat CPU 0 instructions: 89000001 cycles: 116072557 heartbeat IPC: 0.62211 cumulative IPC: 0.432917 (Simulation time: 1 hr 19 min 17 sec) 
Heartbeat CPU 0 instructions: 90000001 cycles: 117677968 heartbeat IPC: 0.622893 cumulative IPC: 0.436243 (Simulation time: 1 hr 20 min 1 sec) 
Heartbeat CPU 0 instructions: 91000001 cycles: 119287995 heartbeat IPC: 0.621108 cumulative IPC: 0.439433 (Simulation time: 1 hr 20 min 45 sec) 
Heartbeat CPU 0 instructions: 92000000 cycles: 120897802 heartbeat IPC: 0.621192 cumulative IPC: 0.442516 (Simulation time: 1 hr 21 min 30 sec) 
Heartbeat CPU 0 instructions: 93000002 cycles: 122978126 heartbeat IPC: 0.480695 cumulative IPC: 0.443335 (Simulation time: 1 hr 22 min 13 sec) 
Heartbeat CPU 0 instructions: 94000001 cycles: 124380932 heartbeat IPC: 0.712856 cumulative IPC: 0.447177 (Simulation time: 1 hr 22 min 52 sec) 
Heartbeat CPU 0 instructions: 95000000 cycles: 125777456 heartbeat IPC: 0.716063 cumulative IPC: 0.45094 (Simulation time: 1 hr 23 min 32 sec) 
Heartbeat CPU 0 instructions: 96000000 cycles: 127183955 heartbeat IPC: 0.710985 cumulative IPC: 0.454555 (Simulation time: 1 hr 24 min 10 sec) 
Heartbeat CPU 0 instructions: 97000001 cycles: 128584660 heartbeat IPC: 0.713927 cumulative IPC: 0.458096 (Simulation time: 1 hr 24 min 46 sec) 
Heartbeat CPU 0 instructions: 98000000 cycles: 130561414 heartbeat IPC: 0.505879 cumulative IPC: 0.458999 (Simulation time: 1 hr 25 min 27 sec) 
Heartbeat CPU 0 instructions: 99000001 cycles: 131924388 heartbeat IPC: 0.73369 cumulative IPC: 0.462533 (Simulation time: 1 hr 26 min 2 sec) 
Heartbeat CPU 0 instructions: 100000000 cycles: 133288833 heartbeat IPC: 0.732898 cumulative IPC: 0.465971 (Simulation time: 1 hr 26 min 33 sec) 
Heartbeat CPU 0 instructions: 101000002 cycles: 134648699 heartbeat IPC: 0.735368 cumulative IPC: 0.469342 (Simulation time: 1 hr 27 min 5 sec) 
Heartbeat CPU 0 instructions: 102000003 cycles: 136011917 heartbeat IPC: 0.733559 cumulative IPC: 0.472616 (Simulation time: 1 hr 27 min 37 sec) 
Heartbeat CPU 0 instructions: 103000000 cycles: 137372321 heartbeat IPC: 0.735074 cumulative IPC: 0.475821 (Simulation time: 1 hr 28 min 8 sec) 
Heartbeat CPU 0 instructions: 104000000 cycles: 139315378 heartbeat IPC: 0.514653 cumulative IPC: 0.476487 (Simulation time: 1 hr 28 min 39 sec) 
Heartbeat CPU 0 instructions: 105000003 cycles: 140791480 heartbeat IPC: 0.677462 cumulative IPC: 0.479071 (Simulation time: 1 hr 29 min 8 sec) 
Heartbeat CPU 0 instructions: 106000001 cycles: 142169704 heartbeat IPC: 0.72557 cumulative IPC: 0.481995 (Simulation time: 1 hr 29 min 35 sec) 
Heartbeat CPU 0 instructions: 107000001 cycles: 143557997 heartbeat IPC: 0.720309 cumulative IPC: 0.484809 (Simulation time: 1 hr 30 min 3 sec) 
Heartbeat CPU 0 instructions: 108000000 cycles: 144936048 heartbeat IPC: 0.725662 cumulative IPC: 0.4876 (Simulation time: 1 hr 30 min 30 sec) 
Heartbeat CPU 0 instructions: 109000000 cycles: 146315343 heartbeat IPC: 0.725008 cumulative IPC: 0.490321 (Simulation time: 1 hr 30 min 55 sec) 
Heartbeat CPU 0 instructions: 110000002 cycles: 148092524 heartbeat IPC: 0.56269 cumulative IPC: 0.491374 (Simulation time: 1 hr 31 min 21 sec) 
Heartbeat CPU 0 instructions: 111000002 cycles: 151600411 heartbeat IPC: 0.285072 cumulative IPC: 0.485613 (Simulation time: 1 hr 31 min 52 sec) 
Heartbeat CPU 0 instructions: 112000000 cycles: 154943659 heartbeat IPC: 0.29911 cumulative IPC: 0.480778 (Simulation time: 1 hr 32 min 21 sec) 
Heartbeat CPU 0 instructions: 113000001 cycles: 158281685 heartbeat IPC: 0.299579 cumulative IPC: 0.476206 (Simulation time: 1 hr 32 min 51 sec) 
Heartbeat CPU 0 instructions: 114000000 cycles: 161622521 heartbeat IPC: 0.299326 cumulative IPC: 0.471849 (Simulation time: 1 hr 33 min 16 sec) 
Heartbeat CPU 0 instructions: 115000002 cycles: 164956259 heartbeat IPC: 0.299964 cumulative IPC: 0.467726 (Simulation time: 1 hr 33 min 42 sec) 
Heartbeat CPU 0 instructions: 116000000 cycles: 168901415 heartbeat IPC: 0.253475 cumulative IPC: 0.461812 (Simulation time: 1 hr 34 min 3 sec) 
Heartbeat CPU 0 instructions: 117000000 cycles: 172505207 heartbeat IPC: 0.277485 cumulative IPC: 0.457278 (Simulation time: 1 hr 34 min 23 sec) 
Heartbeat CPU 0 instructions: 118000000 cycles: 176107932 heartbeat IPC: 0.277568 cumulative IPC: 0.452965 (Simulation time: 1 hr 34 min 40 sec) 
Heartbeat CPU 0 instructions: 119000003 cycles: 179713506 heartbeat IPC: 0.277349 cumulative IPC: 0.448846 (Simulation time: 1 hr 34 min 58 sec) 
Heartbeat CPU 0 instructions: 120000000 cycles: 183310856 heartbeat IPC: 0.277982 cumulative IPC: 0.444939 (Simulation time: 1 hr 35 min 14 sec) 
Heartbeat CPU 0 instructions: 121000001 cycles: 186712660 heartbeat IPC: 0.293962 cumulative IPC: 0.441744 (Simulation time: 1 hr 35 min 30 sec) 
Heartbeat CPU 0 instructions: 122000001 cycles: 188668446 heartbeat IPC: 0.511303 cumulative IPC: 0.44258 (Simulation time: 1 hr 35 min 44 sec) 
Heartbeat CPU 0 instructions: 123000000 cycles: 190603104 heartbeat IPC: 0.516887 cumulative IPC: 0.443453 (Simulation time: 1 hr 35 min 58 sec) 
Heartbeat CPU 0 instructions: 124000000 cycles: 192545230 heartbeat IPC: 0.5149 cumulative IPC: 0.444286 (Simulation time: 1 hr 36 min 10 sec) 
Heartbeat CPU 0 instructions: 125000001 cycles: 194486144 heartbeat IPC: 0.515222 cumulative IPC: 0.445103 (Simulation time: 1 hr 36 min 21 sec) 
Heartbeat CPU 0 instructions: 126000001 cycles: 196871476 heartbeat IPC: 0.419229 cumulative IPC: 0.444742 (Simulation time: 1 hr 36 min 31 sec) 
Heartbeat CPU 0 instructions: 127000000 cycles: 198923546 heartbeat IPC: 0.487312 cumulative IPC: 0.445247 (Simulation time: 1 hr 36 min 40 sec) 
Heartbeat CPU 0 instructions: 128000000 cycles: 200879817 heartbeat IPC: 0.511177 cumulative IPC: 0.445985 (Simulation time: 1 hr 36 min 48 sec) 
Heartbeat CPU 0 instructions: 129000000 cycles: 202770104 heartbeat IPC: 0.52902 cumulative IPC: 0.446873 (Simulation time: 1 hr 36 min 56 sec) 
Heartbeat CPU 0 instructions: 130000003 cycles: 204699782 heartbeat IPC: 0.518223 cumulative IPC: 0.447643 (Simulation time: 1 hr 37 min 3 sec) 
Heartbeat CPU 0 instructions: 131000001 cycles: 206666275 heartbeat IPC: 0.508518 cumulative IPC: 0.448306 (Simulation time: 1 hr 37 min 10 sec) 
Heartbeat CPU 0 instructions: 132000000 cycles: 208609669 heartbeat IPC: 0.514563 cumulative IPC: 0.449011 (Simulation time: 1 hr 37 min 18 sec) 
Heartbeat CPU 0 instructions: 133000000 cycles: 209955979 heartbeat IPC: 0.742771 cumulative IPC: 0.451161 (Simulation time: 1 hr 37 min 24 sec) 
Heartbeat CPU 0 instructions: 134000003 cycles: 211306654 heartbeat IPC: 0.740373 cumulative IPC: 0.453268 (Simulation time: 1 hr 37 min 30 sec) 
Heartbeat CPU 0 instructions: 135000001 cycles: 212658573 heartbeat IPC: 0.739688 cumulative IPC: 0.455343 (Simulation time: 1 hr 37 min 36 sec) 
Heartbeat CPU 0 instructions: 136000000 cycles: 214009194 heartbeat IPC: 0.740399 cumulative IPC: 0.45739 (Simulation time: 1 hr 37 min 42 sec) 
Heartbeat CPU 0 instructions: 137000001 cycles: 215359377 heartbeat IPC: 0.740641 cumulative IPC: 0.45941 (Simulation time: 1 hr 37 min 49 sec) 
Heartbeat CPU 0 instructions: 138000000 cycles: 217358139 heartbeat IPC: 0.500309 cumulative IPC: 0.459837 (Simulation time: 1 hr 37 min 55 sec) 
Heartbeat CPU 0 instructions: 139000001 cycles: 218740976 heartbeat IPC: 0.723152 cumulative IPC: 0.461726 (Simulation time: 1 hr 38 min 1 sec) 
Heartbeat CPU 0 instructions: 140000000 cycles: 220110306 heartbeat IPC: 0.730283 cumulative IPC: 0.46362 (Simulation time: 1 hr 38 min 7 sec) 
Heartbeat CPU 0 instructions: 141000000 cycles: 221484359 heartbeat IPC: 0.727774 cumulative IPC: 0.465477 (Simulation time: 1 hr 38 min 13 sec) 
Heartbeat CPU 0 instructions: 142000002 cycles: 222849715 heartbeat IPC: 0.732411 cumulative IPC: 0.467328 (Simulation time: 1 hr 38 min 18 sec) 
Heartbeat CPU 0 instructions: 143000000 cycles: 224214761 heartbeat IPC: 0.732575 cumulative IPC: 0.469155 (Simulation time: 1 hr 38 min 24 sec) 
Heartbeat CPU 0 instructions: 144000000 cycles: 225618268 heartbeat IPC: 0.712501 cumulative IPC: 0.470866 (Simulation time: 1 hr 38 min 29 sec) 
Heartbeat CPU 0 instructions: 145000000 cycles: 227077976 heartbeat IPC: 0.685069 cumulative IPC: 0.472421 (Simulation time: 1 hr 38 min 34 sec) 
Heartbeat CPU 0 instructions: 146000001 cycles: 228559777 heartbeat IPC: 0.674855 cumulative IPC: 0.473901 (Simulation time: 1 hr 38 min 39 sec) 
Heartbeat CPU 0 instructions: 147000003 cycles: 230149476 heartbeat IPC: 0.629051 cumulative IPC: 0.475109 (Simulation time: 1 hr 38 min 44 sec) 
Heartbeat CPU 0 instructions: 148000000 cycles: 231760269 heartbeat IPC: 0.62081 cumulative IPC: 0.47625 (Simulation time: 1 hr 38 min 49 sec) 
Heartbeat CPU 0 instructions: 149000002 cycles: 233338213 heartbeat IPC: 0.633737 cumulative IPC: 0.477448 (Simulation time: 1 hr 38 min 54 sec) 
Heartbeat CPU 0 instructions: 150000003 cycles: 234944230 heartbeat IPC: 0.622659 cumulative IPC: 0.478565 (Simulation time: 1 hr 38 min 59 sec) 
Finished CPU 0 instructions: 100000000 cycles: 208958247 cummulative IPC: 0.478565 (Simulation time: 1 hr 38 min 59 sec) 

ChampSim completed all CPUs

Region of Interest Statistics

CPU 0 cummulative IPC: 0.478565 instructions: 100000000 cycles: 208958247
LLC TOTAL     ACCESS:   12337607  HIT:   10078714  MISS:    2258893
LLC LOAD      ACCESS:    4933138  HIT:    4184975  MISS:     748163
LLC RFO       ACCESS:         16  HIT:          0  MISS:         16
LLC PREFETCH  ACCESS:    6495392  HIT:    5049271  MISS:    1446121
LLC WRITEBACK ACCESS:     909061  HIT:     844468  MISS:      64593
OPTgen accesses: 111175
OPTgen hits: 174005
OPTgen hit rate: 156.515


