
*** ChampSim Multicore Out-of-Order Simulator ***

Warmup Instructions: 50000000
Simulation Instructions: 100000000
Configuration: 2
Number of CPUs: 1
LLC sets: 2048
LLC ways: 16
Off-chip DRAM Channels: 1 Width: 64-bit Data Rate: 1600 MT/s

CPU 0 runs /datasets/cs240c-wi22-a00-public/data/Assignment2-gz/sphinx3_1339B.trace.gz
CPU 0 L1D next line prefetcher
CPU 0 L2C IP-based stride prefetcher
Initialize Hawkeye state
Heartbeat CPU 0 instructions: 1000000 cycles: 339022 heartbeat IPC: 2.94966 cumulative IPC: 2.94966 (Simulation time: 0 hr 0 min 34 sec) 
Heartbeat CPU 0 instructions: 2000001 cycles: 693417 heartbeat IPC: 2.82171 cumulative IPC: 2.88427 (Simulation time: 0 hr 1 min 10 sec) 
Heartbeat CPU 0 instructions: 3000000 cycles: 1084470 heartbeat IPC: 2.5572 cumulative IPC: 2.76633 (Simulation time: 0 hr 1 min 45 sec) 
Heartbeat CPU 0 instructions: 4000000 cycles: 1529991 heartbeat IPC: 2.24456 cumulative IPC: 2.61439 (Simulation time: 0 hr 2 min 18 sec) 
Heartbeat CPU 0 instructions: 5000003 cycles: 1869006 heartbeat IPC: 2.94973 cumulative IPC: 2.67522 (Simulation time: 0 hr 2 min 52 sec) 
Heartbeat CPU 0 instructions: 6000002 cycles: 2253186 heartbeat IPC: 2.60294 cumulative IPC: 2.6629 (Simulation time: 0 hr 3 min 30 sec) 
Heartbeat CPU 0 instructions: 7000001 cycles: 2716925 heartbeat IPC: 2.15638 cumulative IPC: 2.57644 (Simulation time: 0 hr 4 min 3 sec) 
Heartbeat CPU 0 instructions: 8000000 cycles: 3055794 heartbeat IPC: 2.95099 cumulative IPC: 2.61798 (Simulation time: 0 hr 4 min 38 sec) 
Heartbeat CPU 0 instructions: 9000003 cycles: 3412353 heartbeat IPC: 2.80459 cumulative IPC: 2.63748 (Simulation time: 0 hr 5 min 12 sec) 
Heartbeat CPU 0 instructions: 10000001 cycles: 3799026 heartbeat IPC: 2.58616 cumulative IPC: 2.63225 (Simulation time: 0 hr 5 min 45 sec) 
Heartbeat CPU 0 instructions: 11000002 cycles: 4242148 heartbeat IPC: 2.25672 cumulative IPC: 2.59303 (Simulation time: 0 hr 6 min 17 sec) 
Heartbeat CPU 0 instructions: 12000000 cycles: 4581105 heartbeat IPC: 2.95022 cumulative IPC: 2.61946 (Simulation time: 0 hr 6 min 48 sec) 
Heartbeat CPU 0 instructions: 13000000 cycles: 4972916 heartbeat IPC: 2.55225 cumulative IPC: 2.61416 (Simulation time: 0 hr 7 min 22 sec) 
Heartbeat CPU 0 instructions: 14000003 cycles: 5427741 heartbeat IPC: 2.19865 cumulative IPC: 2.57934 (Simulation time: 0 hr 7 min 54 sec) 
Heartbeat CPU 0 instructions: 15000003 cycles: 5766701 heartbeat IPC: 2.9502 cumulative IPC: 2.60114 (Simulation time: 0 hr 8 min 26 sec) 
Heartbeat CPU 0 instructions: 16000000 cycles: 6131592 heartbeat IPC: 2.74054 cumulative IPC: 2.60944 (Simulation time: 0 hr 8 min 58 sec) 
Heartbeat CPU 0 instructions: 17000000 cycles: 6578455 heartbeat IPC: 2.23782 cumulative IPC: 2.58419 (Simulation time: 0 hr 9 min 32 sec) 
Heartbeat CPU 0 instructions: 18000000 cycles: 7017741 heartbeat IPC: 2.27642 cumulative IPC: 2.56493 (Simulation time: 0 hr 10 min 5 sec) 
Heartbeat CPU 0 instructions: 19000001 cycles: 7462704 heartbeat IPC: 2.24738 cumulative IPC: 2.54599 (Simulation time: 0 hr 10 min 35 sec) 
Heartbeat CPU 0 instructions: 20000000 cycles: 7801758 heartbeat IPC: 2.94938 cumulative IPC: 2.56352 (Simulation time: 0 hr 11 min 5 sec) 
Heartbeat CPU 0 instructions: 21000000 cycles: 8183312 heartbeat IPC: 2.62086 cumulative IPC: 2.5662 (Simulation time: 0 hr 11 min 37 sec) 
Heartbeat CPU 0 instructions: 22000000 cycles: 8648980 heartbeat IPC: 2.14745 cumulative IPC: 2.54365 (Simulation time: 0 hr 12 min 7 sec) 
Heartbeat CPU 0 instructions: 23000001 cycles: 8988014 heartbeat IPC: 2.94956 cumulative IPC: 2.55896 (Simulation time: 0 hr 12 min 38 sec) 
Heartbeat CPU 0 instructions: 24000000 cycles: 9338303 heartbeat IPC: 2.85478 cumulative IPC: 2.57006 (Simulation time: 0 hr 13 min 11 sec) 
Heartbeat CPU 0 instructions: 25000000 cycles: 9746462 heartbeat IPC: 2.45003 cumulative IPC: 2.56503 (Simulation time: 0 hr 13 min 44 sec) 
Heartbeat CPU 0 instructions: 26000003 cycles: 10149373 heartbeat IPC: 2.48195 cumulative IPC: 2.56173 (Simulation time: 0 hr 14 min 14 sec) 
Heartbeat CPU 0 instructions: 27000002 cycles: 10488311 heartbeat IPC: 2.95039 cumulative IPC: 2.57429 (Simulation time: 0 hr 14 min 46 sec) 
Heartbeat CPU 0 instructions: 28000000 cycles: 10865409 heartbeat IPC: 2.65183 cumulative IPC: 2.57699 (Simulation time: 0 hr 15 min 18 sec) 
Heartbeat CPU 0 instructions: 29000001 cycles: 11306063 heartbeat IPC: 2.26936 cumulative IPC: 2.565 (Simulation time: 0 hr 15 min 47 sec) 
Heartbeat CPU 0 instructions: 30000002 cycles: 11645079 heartbeat IPC: 2.94972 cumulative IPC: 2.5762 (Simulation time: 0 hr 16 min 16 sec) 
Heartbeat CPU 0 instructions: 31000003 cycles: 12015683 heartbeat IPC: 2.6983 cumulative IPC: 2.57996 (Simulation time: 0 hr 16 min 50 sec) 
Heartbeat CPU 0 instructions: 32000000 cycles: 12458413 heartbeat IPC: 2.25871 cumulative IPC: 2.56855 (Simulation time: 0 hr 17 min 21 sec) 
Heartbeat CPU 0 instructions: 33000000 cycles: 12797473 heartbeat IPC: 2.94933 cumulative IPC: 2.57863 (Simulation time: 0 hr 17 min 52 sec) 
Heartbeat CPU 0 instructions: 34000001 cycles: 13185065 heartbeat IPC: 2.58004 cumulative IPC: 2.57868 (Simulation time: 0 hr 18 min 25 sec) 
Heartbeat CPU 0 instructions: 35000003 cycles: 13646187 heartbeat IPC: 2.16863 cumulative IPC: 2.56482 (Simulation time: 0 hr 18 min 55 sec) 
Heartbeat CPU 0 instructions: 36000000 cycles: 13985067 heartbeat IPC: 2.95089 cumulative IPC: 2.57417 (Simulation time: 0 hr 19 min 26 sec) 
Heartbeat CPU 0 instructions: 37000003 cycles: 14341702 heartbeat IPC: 2.804 cumulative IPC: 2.57989 (Simulation time: 0 hr 19 min 57 sec) 
Heartbeat CPU 0 instructions: 38000000 cycles: 14729508 heartbeat IPC: 2.5786 cumulative IPC: 2.57986 (Simulation time: 0 hr 20 min 32 sec) 
Heartbeat CPU 0 instructions: 39000002 cycles: 15172769 heartbeat IPC: 2.25601 cumulative IPC: 2.57039 (Simulation time: 0 hr 21 min 3 sec) 
Heartbeat CPU 0 instructions: 40000000 cycles: 15511790 heartbeat IPC: 2.94966 cumulative IPC: 2.57868 (Simulation time: 0 hr 21 min 32 sec) 
Heartbeat CPU 0 instructions: 41000003 cycles: 15896355 heartbeat IPC: 2.60035 cumulative IPC: 2.57921 (Simulation time: 0 hr 22 min 6 sec) 
Heartbeat CPU 0 instructions: 42000002 cycles: 16351031 heartbeat IPC: 2.19937 cumulative IPC: 2.56865 (Simulation time: 0 hr 22 min 37 sec) 
Heartbeat CPU 0 instructions: 43000001 cycles: 16690007 heartbeat IPC: 2.95006 cumulative IPC: 2.57639 (Simulation time: 0 hr 23 min 9 sec) 
Heartbeat CPU 0 instructions: 44000000 cycles: 17054093 heartbeat IPC: 2.7466 cumulative IPC: 2.58003 (Simulation time: 0 hr 23 min 42 sec) 
Heartbeat CPU 0 instructions: 45000000 cycles: 17467224 heartbeat IPC: 2.42054 cumulative IPC: 2.57625 (Simulation time: 0 hr 24 min 15 sec) 
Heartbeat CPU 0 instructions: 46000002 cycles: 17866774 heartbeat IPC: 2.50282 cumulative IPC: 2.57461 (Simulation time: 0 hr 24 min 46 sec) 
Heartbeat CPU 0 instructions: 47000003 cycles: 18205760 heartbeat IPC: 2.94998 cumulative IPC: 2.5816 (Simulation time: 0 hr 25 min 18 sec) 
Heartbeat CPU 0 instructions: 48000000 cycles: 18582719 heartbeat IPC: 2.6528 cumulative IPC: 2.58305 (Simulation time: 0 hr 25 min 51 sec) 
Heartbeat CPU 0 instructions: 49000002 cycles: 19023814 heartbeat IPC: 2.26709 cumulative IPC: 2.57572 (Simulation time: 0 hr 26 min 21 sec) 
Heartbeat CPU 0 instructions: 50000002 cycles: 19362760 heartbeat IPC: 2.95032 cumulative IPC: 2.58228 (Simulation time: 0 hr 26 min 52 sec) 

Warmup complete CPU 0 instructions: 50000002 cycles: 19362760 (Simulation time: 0 hr 26 min 52 sec) 

Heartbeat CPU 0 instructions: 51000001 cycles: 20560316 heartbeat IPC: 0.835033 cumulative IPC: 0.835033 (Simulation time: 0 hr 27 min 30 sec) 
Heartbeat CPU 0 instructions: 52000000 cycles: 21407379 heartbeat IPC: 1.18055 cumulative IPC: 0.978176 (Simulation time: 0 hr 28 min 4 sec) 
Heartbeat CPU 0 instructions: 53000002 cycles: 22295907 heartbeat IPC: 1.12546 cumulative IPC: 1.02279 (Simulation time: 0 hr 28 min 42 sec) 
Heartbeat CPU 0 instructions: 54000003 cycles: 23414164 heartbeat IPC: 0.89425 cumulative IPC: 0.987312 (Simulation time: 0 hr 29 min 21 sec) 
Heartbeat CPU 0 instructions: 55000001 cycles: 24296152 heartbeat IPC: 1.1338 cumulative IPC: 1.0135 (Simulation time: 0 hr 29 min 55 sec) 
Heartbeat CPU 0 instructions: 56000000 cycles: 25187589 heartbeat IPC: 1.12178 cumulative IPC: 1.03007 (Simulation time: 0 hr 30 min 31 sec) 
Heartbeat CPU 0 instructions: 57000000 cycles: 26155773 heartbeat IPC: 1.03286 cumulative IPC: 1.03047 (Simulation time: 0 hr 31 min 8 sec) 
Heartbeat CPU 0 instructions: 58000000 cycles: 27184859 heartbeat IPC: 0.971736 cumulative IPC: 1.02274 (Simulation time: 0 hr 31 min 43 sec) 
Heartbeat CPU 0 instructions: 59000001 cycles: 28041858 heartbeat IPC: 1.16686 cumulative IPC: 1.03697 (Simulation time: 0 hr 32 min 18 sec) 
Heartbeat CPU 0 instructions: 60000000 cycles: 28900806 heartbeat IPC: 1.16421 cumulative IPC: 1.04843 (Simulation time: 0 hr 32 min 53 sec) 
Heartbeat CPU 0 instructions: 61000000 cycles: 30173318 heartbeat IPC: 0.785847 cumulative IPC: 1.01752 (Simulation time: 0 hr 33 min 31 sec) 
Heartbeat CPU 0 instructions: 62000002 cycles: 31315084 heartbeat IPC: 0.875838 cumulative IPC: 1.00399 (Simulation time: 0 hr 34 min 10 sec) 
Heartbeat CPU 0 instructions: 63000003 cycles: 32138515 heartbeat IPC: 1.21443 cumulative IPC: 1.01755 (Simulation time: 0 hr 34 min 46 sec) 
Heartbeat CPU 0 instructions: 64000000 cycles: 33015053 heartbeat IPC: 1.14085 cumulative IPC: 1.02547 (Simulation time: 0 hr 35 min 20 sec) 
Heartbeat CPU 0 instructions: 65000000 cycles: 34070232 heartbeat IPC: 0.947707 cumulative IPC: 1.01989 (Simulation time: 0 hr 35 min 57 sec) 
Heartbeat CPU 0 instructions: 66000001 cycles: 35017619 heartbeat IPC: 1.05554 cumulative IPC: 1.02205 (Simulation time: 0 hr 36 min 32 sec) 
Heartbeat CPU 0 instructions: 67000000 cycles: 35877480 heartbeat IPC: 1.16298 cumulative IPC: 1.02938 (Simulation time: 0 hr 37 min 10 sec) 
Heartbeat CPU 0 instructions: 68000000 cycles: 36781643 heartbeat IPC: 1.106 cumulative IPC: 1.03336 (Simulation time: 0 hr 37 min 45 sec) 
Heartbeat CPU 0 instructions: 69000003 cycles: 37875062 heartbeat IPC: 0.914565 cumulative IPC: 1.02634 (Simulation time: 0 hr 38 min 22 sec) 
Heartbeat CPU 0 instructions: 70000001 cycles: 38751648 heartbeat IPC: 1.14079 cumulative IPC: 1.03152 (Simulation time: 0 hr 38 min 58 sec) 
Heartbeat CPU 0 instructions: 71000001 cycles: 39605479 heartbeat IPC: 1.17119 cumulative IPC: 1.03741 (Simulation time: 0 hr 39 min 33 sec) 
Heartbeat CPU 0 instructions: 72000000 cycles: 40793725 heartbeat IPC: 0.841576 cumulative IPC: 1.02655 (Simulation time: 0 hr 40 min 11 sec) 
Heartbeat CPU 0 instructions: 73000001 cycles: 41626695 heartbeat IPC: 1.20052 cumulative IPC: 1.03306 (Simulation time: 0 hr 40 min 46 sec) 
Heartbeat CPU 0 instructions: 74000001 cycles: 42497654 heartbeat IPC: 1.14816 cumulative IPC: 1.03739 (Simulation time: 0 hr 41 min 22 sec) 
Heartbeat CPU 0 instructions: 75000003 cycles: 43571819 heartbeat IPC: 0.930958 cumulative IPC: 1.03267 (Simulation time: 0 hr 41 min 59 sec) 
Heartbeat CPU 0 instructions: 76000000 cycles: 44496018 heartbeat IPC: 1.08201 cumulative IPC: 1.03449 (Simulation time: 0 hr 42 min 33 sec) 
Heartbeat CPU 0 instructions: 77000002 cycles: 45255834 heartbeat IPC: 1.31611 cumulative IPC: 1.04275 (Simulation time: 0 hr 43 min 8 sec) 
Heartbeat CPU 0 instructions: 78000002 cycles: 46188189 heartbeat IPC: 1.07255 cumulative IPC: 1.04379 (Simulation time: 0 hr 43 min 47 sec) 
Heartbeat CPU 0 instructions: 79000001 cycles: 47237166 heartbeat IPC: 0.953309 cumulative IPC: 1.04038 (Simulation time: 0 hr 44 min 23 sec) 
Heartbeat CPU 0 instructions: 80000000 cycles: 48062034 heartbeat IPC: 1.21231 cumulative IPC: 1.04532 (Simulation time: 0 hr 44 min 59 sec) 
Heartbeat CPU 0 instructions: 81000001 cycles: 48921796 heartbeat IPC: 1.16311 cumulative IPC: 1.04875 (Simulation time: 0 hr 45 min 34 sec) 
Heartbeat CPU 0 instructions: 82000000 cycles: 50069616 heartbeat IPC: 0.871216 cumulative IPC: 1.04211 (Simulation time: 0 hr 46 min 11 sec) 
Heartbeat CPU 0 instructions: 83000001 cycles: 50887609 heartbeat IPC: 1.22251 cumulative IPC: 1.04679 (Simulation time: 0 hr 46 min 45 sec) 
Heartbeat CPU 0 instructions: 84000000 cycles: 51736278 heartbeat IPC: 1.17831 cumulative IPC: 1.05024 (Simulation time: 0 hr 47 min 21 sec) 
Heartbeat CPU 0 instructions: 85000002 cycles: 52866896 heartbeat IPC: 0.884474 cumulative IPC: 1.04465 (Simulation time: 0 hr 47 min 58 sec) 
Heartbeat CPU 0 instructions: 86000003 cycles: 53736211 heartbeat IPC: 1.15033 cumulative IPC: 1.04732 (Simulation time: 0 hr 48 min 36 sec) 
Heartbeat CPU 0 instructions: 87000001 cycles: 54580480 heartbeat IPC: 1.18445 cumulative IPC: 1.05061 (Simulation time: 0 hr 49 min 12 sec) 
Heartbeat CPU 0 instructions: 88000000 cycles: 55573859 heartbeat IPC: 1.00666 cumulative IPC: 1.0494 (Simulation time: 0 hr 49 min 51 sec) 
Heartbeat CPU 0 instructions: 89000000 cycles: 56560265 heartbeat IPC: 1.01378 cumulative IPC: 1.04846 (Simulation time: 0 hr 50 min 27 sec) 
Heartbeat CPU 0 instructions: 90000003 cycles: 57395258 heartbeat IPC: 1.19762 cumulative IPC: 1.05173 (Simulation time: 0 hr 51 min 2 sec) 
Heartbeat CPU 0 instructions: 91000000 cycles: 58246627 heartbeat IPC: 1.17458 cumulative IPC: 1.05442 (Simulation time: 0 hr 51 min 37 sec) 
Heartbeat CPU 0 instructions: 92000000 cycles: 59462446 heartbeat IPC: 0.822491 cumulative IPC: 1.04739 (Simulation time: 0 hr 52 min 16 sec) 
Heartbeat CPU 0 instructions: 93000001 cycles: 60287830 heartbeat IPC: 1.21156 cumulative IPC: 1.0507 (Simulation time: 0 hr 52 min 50 sec) 
Heartbeat CPU 0 instructions: 94000001 cycles: 61059663 heartbeat IPC: 1.29562 cumulative IPC: 1.05523 (Simulation time: 0 hr 53 min 24 sec) 
Heartbeat CPU 0 instructions: 95000002 cycles: 62219447 heartbeat IPC: 0.86223 cumulative IPC: 1.05001 (Simulation time: 0 hr 54 min 1 sec) 
Heartbeat CPU 0 instructions: 96000000 cycles: 63059324 heartbeat IPC: 1.19065 cumulative IPC: 1.05271 (Simulation time: 0 hr 54 min 35 sec) 
Heartbeat CPU 0 instructions: 97000002 cycles: 63889916 heartbeat IPC: 1.20396 cumulative IPC: 1.05554 (Simulation time: 0 hr 55 min 12 sec) 
Heartbeat CPU 0 instructions: 98000000 cycles: 65008888 heartbeat IPC: 0.893676 cumulative IPC: 1.05157 (Simulation time: 0 hr 55 min 48 sec) 
Heartbeat CPU 0 instructions: 99000003 cycles: 66142697 heartbeat IPC: 0.881985 cumulative IPC: 1.04746 (Simulation time: 0 hr 56 min 24 sec) 
Heartbeat CPU 0 instructions: 100000000 cycles: 66944524 heartbeat IPC: 1.24715 cumulative IPC: 1.05082 (Simulation time: 0 hr 57 min 1 sec) 
Heartbeat CPU 0 instructions: 101000000 cycles: 67730490 heartbeat IPC: 1.27232 cumulative IPC: 1.05442 (Simulation time: 0 hr 57 min 36 sec) 
Heartbeat CPU 0 instructions: 102000001 cycles: 69258347 heartbeat IPC: 0.654512 cumulative IPC: 1.04218 (Simulation time: 0 hr 58 min 15 sec) 
Heartbeat CPU 0 instructions: 103000000 cycles: 70543725 heartbeat IPC: 0.777981 cumulative IPC: 1.03554 (Simulation time: 0 hr 58 min 54 sec) 
Heartbeat CPU 0 instructions: 104000000 cycles: 71505548 heartbeat IPC: 1.03969 cumulative IPC: 1.03562 (Simulation time: 0 hr 59 min 30 sec) 
Heartbeat CPU 0 instructions: 105000003 cycles: 72271768 heartbeat IPC: 1.30511 cumulative IPC: 1.03952 (Simulation time: 1 hr 0 min 4 sec) 
Heartbeat CPU 0 instructions: 106000000 cycles: 73036944 heartbeat IPC: 1.30689 cumulative IPC: 1.04333 (Simulation time: 1 hr 0 min 36 sec) 
Heartbeat CPU 0 instructions: 107000001 cycles: 74497346 heartbeat IPC: 0.684744 cumulative IPC: 1.03383 (Simulation time: 1 hr 1 min 13 sec) 
Heartbeat CPU 0 instructions: 108000000 cycles: 75406503 heartbeat IPC: 1.09992 cumulative IPC: 1.03491 (Simulation time: 1 hr 1 min 48 sec) 
Heartbeat CPU 0 instructions: 109000000 cycles: 76215548 heartbeat IPC: 1.23603 cumulative IPC: 1.03777 (Simulation time: 1 hr 2 min 24 sec) 
Heartbeat CPU 0 instructions: 110000000 cycles: 77302464 heartbeat IPC: 0.920034 cumulative IPC: 1.03556 (Simulation time: 1 hr 3 min 3 sec) 
Heartbeat CPU 0 instructions: 111000000 cycles: 78712274 heartbeat IPC: 0.709315 cumulative IPC: 1.02781 (Simulation time: 1 hr 3 min 39 sec) 
Heartbeat CPU 0 instructions: 112000000 cycles: 79662182 heartbeat IPC: 1.05273 cumulative IPC: 1.0282 (Simulation time: 1 hr 4 min 15 sec) 
Heartbeat CPU 0 instructions: 113000002 cycles: 80503747 heartbeat IPC: 1.18826 cumulative IPC: 1.03041 (Simulation time: 1 hr 4 min 50 sec) 
Heartbeat CPU 0 instructions: 114000000 cycles: 81728973 heartbeat IPC: 0.816174 cumulative IPC: 1.0262 (Simulation time: 1 hr 5 min 27 sec) 
Heartbeat CPU 0 instructions: 115000001 cycles: 83112046 heartbeat IPC: 0.723028 cumulative IPC: 1.01962 (Simulation time: 1 hr 6 min 2 sec) 
Heartbeat CPU 0 instructions: 116000000 cycles: 83997221 heartbeat IPC: 1.12972 cumulative IPC: 1.02113 (Simulation time: 1 hr 6 min 39 sec) 
Heartbeat CPU 0 instructions: 117000003 cycles: 84857726 heartbeat IPC: 1.16211 cumulative IPC: 1.02298 (Simulation time: 1 hr 7 min 15 sec) 
Heartbeat CPU 0 instructions: 118000003 cycles: 86142932 heartbeat IPC: 0.778085 cumulative IPC: 1.01827 (Simulation time: 1 hr 7 min 52 sec) 
Heartbeat CPU 0 instructions: 119000003 cycles: 87183793 heartbeat IPC: 0.960743 cumulative IPC: 1.01738 (Simulation time: 1 hr 8 min 24 sec) 
Heartbeat CPU 0 instructions: 120000000 cycles: 88037415 heartbeat IPC: 1.17148 cumulative IPC: 1.0193 (Simulation time: 1 hr 8 min 53 sec) 
Heartbeat CPU 0 instructions: 121000001 cycles: 88926521 heartbeat IPC: 1.12473 cumulative IPC: 1.02065 (Simulation time: 1 hr 9 min 22 sec) 
Heartbeat CPU 0 instructions: 122000002 cycles: 90199845 heartbeat IPC: 0.785347 cumulative IPC: 1.01642 (Simulation time: 1 hr 9 min 51 sec) 
Heartbeat CPU 0 instructions: 123000000 cycles: 91035224 heartbeat IPC: 1.19706 cumulative IPC: 1.01852 (Simulation time: 1 hr 10 min 23 sec) 
Heartbeat CPU 0 instructions: 124000000 cycles: 91897652 heartbeat IPC: 1.15952 cumulative IPC: 1.0202 (Simulation time: 1 hr 10 min 55 sec) 
Heartbeat CPU 0 instructions: 125000002 cycles: 93078277 heartbeat IPC: 0.847011 cumulative IPC: 1.01742 (Simulation time: 1 hr 11 min 28 sec) 
Heartbeat CPU 0 instructions: 126000000 cycles: 93935923 heartbeat IPC: 1.16598 cumulative IPC: 1.01913 (Simulation time: 1 hr 11 min 57 sec) 
Heartbeat CPU 0 instructions: 127000001 cycles: 94799753 heartbeat IPC: 1.15764 cumulative IPC: 1.02072 (Simulation time: 1 hr 12 min 32 sec) 
Heartbeat CPU 0 instructions: 128000000 cycles: 95720489 heartbeat IPC: 1.08609 cumulative IPC: 1.02151 (Simulation time: 1 hr 13 min 4 sec) 
Heartbeat CPU 0 instructions: 129000002 cycles: 96576931 heartbeat IPC: 1.16762 cumulative IPC: 1.02313 (Simulation time: 1 hr 13 min 32 sec) 
Heartbeat CPU 0 instructions: 130000000 cycles: 97336251 heartbeat IPC: 1.31697 cumulative IPC: 1.02599 (Simulation time: 1 hr 14 min 2 sec) 
Heartbeat CPU 0 instructions: 131000000 cycles: 98185616 heartbeat IPC: 1.17735 cumulative IPC: 1.02762 (Simulation time: 1 hr 14 min 34 sec) 
Heartbeat CPU 0 instructions: 132000000 cycles: 99091260 heartbeat IPC: 1.10419 cumulative IPC: 1.02849 (Simulation time: 1 hr 15 min 4 sec) 
Heartbeat CPU 0 instructions: 133000002 cycles: 99912440 heartbeat IPC: 1.21776 cumulative IPC: 1.03042 (Simulation time: 1 hr 15 min 36 sec) 
Heartbeat CPU 0 instructions: 134000000 cycles: 100864513 heartbeat IPC: 1.05034 cumulative IPC: 1.03065 (Simulation time: 1 hr 16 min 5 sec) 
Heartbeat CPU 0 instructions: 135000001 cycles: 102091906 heartbeat IPC: 0.814736 cumulative IPC: 1.02745 (Simulation time: 1 hr 16 min 34 sec) 
Heartbeat CPU 0 instructions: 136000000 cycles: 102980033 heartbeat IPC: 1.12596 cumulative IPC: 1.0285 (Simulation time: 1 hr 17 min 1 sec) 
Heartbeat CPU 0 instructions: 137000003 cycles: 103707472 heartbeat IPC: 1.37469 cumulative IPC: 1.03148 (Simulation time: 1 hr 17 min 29 sec) 
Heartbeat CPU 0 instructions: 138000001 cycles: 104911127 heartbeat IPC: 0.830801 cumulative IPC: 1.02866 (Simulation time: 1 hr 17 min 57 sec) 
Heartbeat CPU 0 instructions: 139000001 cycles: 105752483 heartbeat IPC: 1.18856 cumulative IPC: 1.03022 (Simulation time: 1 hr 18 min 24 sec) 
Heartbeat CPU 0 instructions: 140000000 cycles: 106554592 heartbeat IPC: 1.24671 cumulative IPC: 1.03221 (Simulation time: 1 hr 18 min 50 sec) 
Heartbeat CPU 0 instructions: 141000001 cycles: 107595087 heartbeat IPC: 0.961082 cumulative IPC: 1.03137 (Simulation time: 1 hr 19 min 18 sec) 
Heartbeat CPU 0 instructions: 142000000 cycles: 108563996 heartbeat IPC: 1.03209 cumulative IPC: 1.03138 (Simulation time: 1 hr 19 min 45 sec) 
Heartbeat CPU 0 instructions: 143000000 cycles: 109417850 heartbeat IPC: 1.17116 cumulative IPC: 1.0327 (Simulation time: 1 hr 20 min 12 sec) 
Heartbeat CPU 0 instructions: 144000000 cycles: 110237781 heartbeat IPC: 1.21961 cumulative IPC: 1.03439 (Simulation time: 1 hr 20 min 40 sec) 
Heartbeat CPU 0 instructions: 145000002 cycles: 111359222 heartbeat IPC: 0.891712 cumulative IPC: 1.03265 (Simulation time: 1 hr 21 min 9 sec) 
Heartbeat CPU 0 instructions: 146000000 cycles: 112138525 heartbeat IPC: 1.2832 cumulative IPC: 1.03475 (Simulation time: 1 hr 21 min 35 sec) 
Heartbeat CPU 0 instructions: 147000002 cycles: 112958920 heartbeat IPC: 1.21893 cumulative IPC: 1.03637 (Simulation time: 1 hr 21 min 59 sec) 
Heartbeat CPU 0 instructions: 148000000 cycles: 114261312 heartbeat IPC: 0.767816 cumulative IPC: 1.03268 (Simulation time: 1 hr 22 min 24 sec) 
Heartbeat CPU 0 instructions: 149000000 cycles: 115423782 heartbeat IPC: 0.860237 cumulative IPC: 1.03059 (Simulation time: 1 hr 22 min 53 sec) 
Heartbeat CPU 0 instructions: 150000001 cycles: 116302703 heartbeat IPC: 1.13776 cumulative IPC: 1.03157 (Simulation time: 1 hr 23 min 19 sec) 
Finished CPU 0 instructions: 100000003 cycles: 96939944 cummulative IPC: 1.03157 (Simulation time: 1 hr 23 min 19 sec) 

ChampSim completed all CPUs

Region of Interest Statistics

CPU 0 cummulative IPC: 1.03157 instructions: 100000003 cycles: 96939944
LLC TOTAL     ACCESS:    1600633  HIT:     821066  MISS:     779567
LLC LOAD      ACCESS:     216545  HIT:     172441  MISS:      44104
LLC RFO       ACCESS:     111334  HIT:     104293  MISS:       7041
LLC PREFETCH  ACCESS:    1135778  HIT:     407673  MISS:     728105
LLC WRITEBACK ACCESS:     136976  HIT:     136659  MISS:        317
OPTgen accesses: 7379
OPTgen hits: 7422
OPTgen hit rate: 100.583


