
*** ChampSim Multicore Out-of-Order Simulator ***

Warmup Instructions: 50000000
Simulation Instructions: 100000000
Configuration: 2
Number of CPUs: 1
LLC sets: 2048
LLC ways: 16
Off-chip DRAM Channels: 1 Width: 64-bit Data Rate: 1600 MT/s

CPU 0 runs /datasets/cs240c-wi22-a00-public/data/Assignment2-gz/astar_163B.trace.gz
CPU 0 L1D next line prefetcher
CPU 0 L2C IP-based stride prefetcher
Initialize Hawkeye state
Heartbeat CPU 0 instructions: 1000002 cycles: 531212 heartbeat IPC: 1.88249 cumulative IPC: 1.88249 (Simulation time: 0 hr 0 min 40 sec) 
Heartbeat CPU 0 instructions: 2000003 cycles: 1060827 heartbeat IPC: 1.88817 cumulative IPC: 1.88532 (Simulation time: 0 hr 1 min 17 sec) 
Heartbeat CPU 0 instructions: 3000003 cycles: 1590862 heartbeat IPC: 1.88667 cumulative IPC: 1.88577 (Simulation time: 0 hr 1 min 55 sec) 
Heartbeat CPU 0 instructions: 4000000 cycles: 2120964 heartbeat IPC: 1.88642 cumulative IPC: 1.88593 (Simulation time: 0 hr 2 min 33 sec) 
Heartbeat CPU 0 instructions: 5000000 cycles: 2652877 heartbeat IPC: 1.88001 cumulative IPC: 1.88475 (Simulation time: 0 hr 3 min 14 sec) 
Heartbeat CPU 0 instructions: 6000002 cycles: 3181392 heartbeat IPC: 1.8921 cumulative IPC: 1.88597 (Simulation time: 0 hr 3 min 54 sec) 
Heartbeat CPU 0 instructions: 7000003 cycles: 3710906 heartbeat IPC: 1.88853 cumulative IPC: 1.88633 (Simulation time: 0 hr 4 min 32 sec) 
Heartbeat CPU 0 instructions: 8000000 cycles: 4240188 heartbeat IPC: 1.88935 cumulative IPC: 1.88671 (Simulation time: 0 hr 5 min 11 sec) 
Heartbeat CPU 0 instructions: 9000000 cycles: 4771195 heartbeat IPC: 1.88321 cumulative IPC: 1.88632 (Simulation time: 0 hr 5 min 48 sec) 
Heartbeat CPU 0 instructions: 10000001 cycles: 5301295 heartbeat IPC: 1.88644 cumulative IPC: 1.88633 (Simulation time: 0 hr 6 min 27 sec) 
Heartbeat CPU 0 instructions: 11000003 cycles: 5830346 heartbeat IPC: 1.89018 cumulative IPC: 1.88668 (Simulation time: 0 hr 7 min 5 sec) 
Heartbeat CPU 0 instructions: 12000000 cycles: 6359113 heartbeat IPC: 1.89119 cumulative IPC: 1.88706 (Simulation time: 0 hr 7 min 44 sec) 
Heartbeat CPU 0 instructions: 13000002 cycles: 6888963 heartbeat IPC: 1.88733 cumulative IPC: 1.88708 (Simulation time: 0 hr 8 min 24 sec) 
Heartbeat CPU 0 instructions: 14000000 cycles: 7419092 heartbeat IPC: 1.88633 cumulative IPC: 1.88702 (Simulation time: 0 hr 9 min 2 sec) 
Heartbeat CPU 0 instructions: 15000000 cycles: 7949475 heartbeat IPC: 1.88543 cumulative IPC: 1.88692 (Simulation time: 0 hr 9 min 41 sec) 
Heartbeat CPU 0 instructions: 16000000 cycles: 8480330 heartbeat IPC: 1.88375 cumulative IPC: 1.88672 (Simulation time: 0 hr 10 min 21 sec) 
Heartbeat CPU 0 instructions: 17000002 cycles: 9009929 heartbeat IPC: 1.88822 cumulative IPC: 1.88681 (Simulation time: 0 hr 10 min 58 sec) 
Heartbeat CPU 0 instructions: 18000003 cycles: 9539352 heartbeat IPC: 1.88885 cumulative IPC: 1.88692 (Simulation time: 0 hr 11 min 37 sec) 
Heartbeat CPU 0 instructions: 19000003 cycles: 10069892 heartbeat IPC: 1.88487 cumulative IPC: 1.88681 (Simulation time: 0 hr 12 min 14 sec) 
Heartbeat CPU 0 instructions: 20000000 cycles: 10600195 heartbeat IPC: 1.88571 cumulative IPC: 1.88676 (Simulation time: 0 hr 12 min 52 sec) 
Heartbeat CPU 0 instructions: 21000003 cycles: 11130319 heartbeat IPC: 1.88636 cumulative IPC: 1.88674 (Simulation time: 0 hr 13 min 32 sec) 
Heartbeat CPU 0 instructions: 22000001 cycles: 11661910 heartbeat IPC: 1.88114 cumulative IPC: 1.88648 (Simulation time: 0 hr 14 min 10 sec) 
Heartbeat CPU 0 instructions: 23000001 cycles: 12192069 heartbeat IPC: 1.88623 cumulative IPC: 1.88647 (Simulation time: 0 hr 14 min 48 sec) 
Heartbeat CPU 0 instructions: 24000000 cycles: 12722912 heartbeat IPC: 1.88379 cumulative IPC: 1.88636 (Simulation time: 0 hr 15 min 26 sec) 
Heartbeat CPU 0 instructions: 25000003 cycles: 13223723 heartbeat IPC: 1.99677 cumulative IPC: 1.89054 (Simulation time: 0 hr 16 min 2 sec) 
Heartbeat CPU 0 instructions: 26000002 cycles: 13728012 heartbeat IPC: 1.98299 cumulative IPC: 1.89394 (Simulation time: 0 hr 16 min 38 sec) 
Heartbeat CPU 0 instructions: 27000000 cycles: 14240007 heartbeat IPC: 1.95314 cumulative IPC: 1.89607 (Simulation time: 0 hr 17 min 16 sec) 
Heartbeat CPU 0 instructions: 28000000 cycles: 14763518 heartbeat IPC: 1.91018 cumulative IPC: 1.89657 (Simulation time: 0 hr 17 min 54 sec) 
Heartbeat CPU 0 instructions: 29000003 cycles: 15291412 heartbeat IPC: 1.89433 cumulative IPC: 1.89649 (Simulation time: 0 hr 18 min 32 sec) 
Heartbeat CPU 0 instructions: 30000000 cycles: 15814788 heartbeat IPC: 1.91067 cumulative IPC: 1.89696 (Simulation time: 0 hr 19 min 9 sec) 
Heartbeat CPU 0 instructions: 31000001 cycles: 16335430 heartbeat IPC: 1.92071 cumulative IPC: 1.89772 (Simulation time: 0 hr 19 min 46 sec) 
Heartbeat CPU 0 instructions: 32000000 cycles: 16862713 heartbeat IPC: 1.89651 cumulative IPC: 1.89768 (Simulation time: 0 hr 20 min 23 sec) 
Heartbeat CPU 0 instructions: 33000001 cycles: 17383161 heartbeat IPC: 1.92142 cumulative IPC: 1.89839 (Simulation time: 0 hr 21 min 1 sec) 
Heartbeat CPU 0 instructions: 34000001 cycles: 17906007 heartbeat IPC: 1.91261 cumulative IPC: 1.8988 (Simulation time: 0 hr 21 min 37 sec) 
Heartbeat CPU 0 instructions: 35000000 cycles: 18431465 heartbeat IPC: 1.9031 cumulative IPC: 1.89893 (Simulation time: 0 hr 22 min 15 sec) 
Heartbeat CPU 0 instructions: 36000000 cycles: 18958387 heartbeat IPC: 1.89781 cumulative IPC: 1.8989 (Simulation time: 0 hr 22 min 52 sec) 
Heartbeat CPU 0 instructions: 37000002 cycles: 19475836 heartbeat IPC: 1.93256 cumulative IPC: 1.89979 (Simulation time: 0 hr 23 min 31 sec) 
Heartbeat CPU 0 instructions: 38000002 cycles: 19995774 heartbeat IPC: 1.92331 cumulative IPC: 1.9004 (Simulation time: 0 hr 24 min 10 sec) 
Heartbeat CPU 0 instructions: 39000001 cycles: 20516124 heartbeat IPC: 1.92178 cumulative IPC: 1.90094 (Simulation time: 0 hr 24 min 47 sec) 
Heartbeat CPU 0 instructions: 40000000 cycles: 21035023 heartbeat IPC: 1.92716 cumulative IPC: 1.90159 (Simulation time: 0 hr 25 min 23 sec) 
Heartbeat CPU 0 instructions: 41000001 cycles: 21556375 heartbeat IPC: 1.91809 cumulative IPC: 1.90199 (Simulation time: 0 hr 26 min 0 sec) 
Heartbeat CPU 0 instructions: 42000002 cycles: 22070295 heartbeat IPC: 1.94583 cumulative IPC: 1.90301 (Simulation time: 0 hr 26 min 36 sec) 
Heartbeat CPU 0 instructions: 43000001 cycles: 22583865 heartbeat IPC: 1.94715 cumulative IPC: 1.90401 (Simulation time: 0 hr 27 min 13 sec) 
Heartbeat CPU 0 instructions: 44000000 cycles: 23103851 heartbeat IPC: 1.92313 cumulative IPC: 1.90444 (Simulation time: 0 hr 27 min 50 sec) 
Heartbeat CPU 0 instructions: 45000001 cycles: 23620136 heartbeat IPC: 1.93692 cumulative IPC: 1.90515 (Simulation time: 0 hr 28 min 28 sec) 
Heartbeat CPU 0 instructions: 46000003 cycles: 24144496 heartbeat IPC: 1.90709 cumulative IPC: 1.9052 (Simulation time: 0 hr 29 min 5 sec) 
Heartbeat CPU 0 instructions: 47000000 cycles: 24668115 heartbeat IPC: 1.90978 cumulative IPC: 1.90529 (Simulation time: 0 hr 29 min 43 sec) 
Heartbeat CPU 0 instructions: 48000000 cycles: 25188457 heartbeat IPC: 1.92181 cumulative IPC: 1.90563 (Simulation time: 0 hr 30 min 20 sec) 
Heartbeat CPU 0 instructions: 49000003 cycles: 25714359 heartbeat IPC: 1.9015 cumulative IPC: 1.90555 (Simulation time: 0 hr 30 min 59 sec) 
Heartbeat CPU 0 instructions: 50000001 cycles: 26240987 heartbeat IPC: 1.89887 cumulative IPC: 1.90542 (Simulation time: 0 hr 31 min 37 sec) 

Warmup complete CPU 0 instructions: 50000001 cycles: 26240987 (Simulation time: 0 hr 31 min 37 sec) 

Heartbeat CPU 0 instructions: 51000003 cycles: 28174051 heartbeat IPC: 0.517314 cumulative IPC: 0.517314 (Simulation time: 0 hr 32 min 18 sec) 
Heartbeat CPU 0 instructions: 52000000 cycles: 30192485 heartbeat IPC: 0.495432 cumulative IPC: 0.506137 (Simulation time: 0 hr 32 min 59 sec) 
Heartbeat CPU 0 instructions: 53000001 cycles: 32155402 heartbeat IPC: 0.509446 cumulative IPC: 0.507235 (Simulation time: 0 hr 33 min 43 sec) 
Heartbeat CPU 0 instructions: 54000003 cycles: 34052636 heartbeat IPC: 0.527084 cumulative IPC: 0.512056 (Simulation time: 0 hr 34 min 30 sec) 
Heartbeat CPU 0 instructions: 55000000 cycles: 35924216 heartbeat IPC: 0.534306 cumulative IPC: 0.516357 (Simulation time: 0 hr 35 min 16 sec) 
Heartbeat CPU 0 instructions: 56000000 cycles: 37817591 heartbeat IPC: 0.528157 cumulative IPC: 0.518287 (Simulation time: 0 hr 36 min 4 sec) 
Heartbeat CPU 0 instructions: 57000000 cycles: 39685195 heartbeat IPC: 0.535445 cumulative IPC: 0.52067 (Simulation time: 0 hr 36 min 51 sec) 
Heartbeat CPU 0 instructions: 58000001 cycles: 41611480 heartbeat IPC: 0.519135 cumulative IPC: 0.520478 (Simulation time: 0 hr 37 min 37 sec) 
Heartbeat CPU 0 instructions: 59000003 cycles: 43522917 heartbeat IPC: 0.523168 cumulative IPC: 0.520775 (Simulation time: 0 hr 38 min 25 sec) 
Heartbeat CPU 0 instructions: 60000000 cycles: 45422584 heartbeat IPC: 0.526406 cumulative IPC: 0.521333 (Simulation time: 0 hr 39 min 14 sec) 
Heartbeat CPU 0 instructions: 61000002 cycles: 47314642 heartbeat IPC: 0.528526 cumulative IPC: 0.521979 (Simulation time: 0 hr 40 min 4 sec) 
Heartbeat CPU 0 instructions: 62000001 cycles: 49216443 heartbeat IPC: 0.525817 cumulative IPC: 0.522296 (Simulation time: 0 hr 40 min 51 sec) 
Heartbeat CPU 0 instructions: 63000001 cycles: 51263899 heartbeat IPC: 0.488411 cumulative IPC: 0.519524 (Simulation time: 0 hr 41 min 36 sec) 
Heartbeat CPU 0 instructions: 64000000 cycles: 53215807 heartbeat IPC: 0.512319 cumulative IPC: 0.519002 (Simulation time: 0 hr 42 min 22 sec) 
Heartbeat CPU 0 instructions: 65000000 cycles: 55154417 heartbeat IPC: 0.515833 cumulative IPC: 0.51879 (Simulation time: 0 hr 43 min 7 sec) 
Heartbeat CPU 0 instructions: 66000000 cycles: 57110175 heartbeat IPC: 0.511311 cumulative IPC: 0.518316 (Simulation time: 0 hr 43 min 55 sec) 
Heartbeat CPU 0 instructions: 67000003 cycles: 59049410 heartbeat IPC: 0.515669 cumulative IPC: 0.51816 (Simulation time: 0 hr 44 min 38 sec) 
Heartbeat CPU 0 instructions: 68000000 cycles: 60975643 heartbeat IPC: 0.519146 cumulative IPC: 0.518214 (Simulation time: 0 hr 45 min 25 sec) 
Heartbeat CPU 0 instructions: 69000000 cycles: 62907910 heartbeat IPC: 0.517527 cumulative IPC: 0.518178 (Simulation time: 0 hr 46 min 11 sec) 
Heartbeat CPU 0 instructions: 70000003 cycles: 64858907 heartbeat IPC: 0.51256 cumulative IPC: 0.517894 (Simulation time: 0 hr 46 min 58 sec) 
Heartbeat CPU 0 instructions: 71000001 cycles: 66815748 heartbeat IPC: 0.511027 cumulative IPC: 0.517563 (Simulation time: 0 hr 47 min 45 sec) 
Heartbeat CPU 0 instructions: 72000000 cycles: 68767961 heartbeat IPC: 0.512239 cumulative IPC: 0.517319 (Simulation time: 0 hr 48 min 31 sec) 
Heartbeat CPU 0 instructions: 73000000 cycles: 70717328 heartbeat IPC: 0.512987 cumulative IPC: 0.517129 (Simulation time: 0 hr 49 min 18 sec) 
Heartbeat CPU 0 instructions: 74000000 cycles: 72667440 heartbeat IPC: 0.512791 cumulative IPC: 0.516947 (Simulation time: 0 hr 50 min 4 sec) 
Heartbeat CPU 0 instructions: 75000001 cycles: 74578553 heartbeat IPC: 0.523256 cumulative IPC: 0.517196 (Simulation time: 0 hr 50 min 51 sec) 
Heartbeat CPU 0 instructions: 76000000 cycles: 76508478 heartbeat IPC: 0.518154 cumulative IPC: 0.517233 (Simulation time: 0 hr 51 min 38 sec) 
Heartbeat CPU 0 instructions: 77000001 cycles: 78537284 heartbeat IPC: 0.492901 cumulative IPC: 0.516289 (Simulation time: 0 hr 52 min 20 sec) 
Heartbeat CPU 0 instructions: 78000000 cycles: 80492793 heartbeat IPC: 0.511375 cumulative IPC: 0.516112 (Simulation time: 0 hr 53 min 5 sec) 
Heartbeat CPU 0 instructions: 79000003 cycles: 82529700 heartbeat IPC: 0.490942 cumulative IPC: 0.515201 (Simulation time: 0 hr 53 min 49 sec) 
Heartbeat CPU 0 instructions: 80000000 cycles: 84634000 heartbeat IPC: 0.475216 cumulative IPC: 0.51376 (Simulation time: 0 hr 54 min 32 sec) 
Heartbeat CPU 0 instructions: 81000003 cycles: 86738127 heartbeat IPC: 0.475258 cumulative IPC: 0.512421 (Simulation time: 0 hr 55 min 15 sec) 
Heartbeat CPU 0 instructions: 82000000 cycles: 88800322 heartbeat IPC: 0.484919 cumulative IPC: 0.511514 (Simulation time: 0 hr 55 min 58 sec) 
Heartbeat CPU 0 instructions: 83000000 cycles: 90784162 heartbeat IPC: 0.504073 cumulative IPC: 0.511286 (Simulation time: 0 hr 56 min 42 sec) 
Heartbeat CPU 0 instructions: 84000000 cycles: 92761292 heartbeat IPC: 0.505784 cumulative IPC: 0.511122 (Simulation time: 0 hr 57 min 25 sec) 
Heartbeat CPU 0 instructions: 85000001 cycles: 94729386 heartbeat IPC: 0.508106 cumulative IPC: 0.511035 (Simulation time: 0 hr 58 min 10 sec) 
Heartbeat CPU 0 instructions: 86000002 cycles: 96690583 heartbeat IPC: 0.509893 cumulative IPC: 0.511004 (Simulation time: 0 hr 58 min 56 sec) 
Heartbeat CPU 0 instructions: 87000000 cycles: 98678845 heartbeat IPC: 0.502951 cumulative IPC: 0.510783 (Simulation time: 0 hr 59 min 39 sec) 
Heartbeat CPU 0 instructions: 88000000 cycles: 100721017 heartbeat IPC: 0.489675 cumulative IPC: 0.510204 (Simulation time: 1 hr 0 min 23 sec) 
Heartbeat CPU 0 instructions: 89000003 cycles: 102708140 heartbeat IPC: 0.503242 cumulative IPC: 0.510023 (Simulation time: 1 hr 1 min 8 sec) 
Heartbeat CPU 0 instructions: 90000000 cycles: 104678932 heartbeat IPC: 0.507409 cumulative IPC: 0.509957 (Simulation time: 1 hr 1 min 51 sec) 
Heartbeat CPU 0 instructions: 91000000 cycles: 106664700 heartbeat IPC: 0.503583 cumulative IPC: 0.5098 (Simulation time: 1 hr 2 min 38 sec) 
Heartbeat CPU 0 instructions: 92000000 cycles: 108658998 heartbeat IPC: 0.50143 cumulative IPC: 0.509597 (Simulation time: 1 hr 3 min 25 sec) 
Heartbeat CPU 0 instructions: 93000003 cycles: 110614613 heartbeat IPC: 0.51135 cumulative IPC: 0.509638 (Simulation time: 1 hr 4 min 12 sec) 
Heartbeat CPU 0 instructions: 94000000 cycles: 112557849 heartbeat IPC: 0.514604 cumulative IPC: 0.50975 (Simulation time: 1 hr 4 min 51 sec) 
Heartbeat CPU 0 instructions: 95000000 cycles: 114535666 heartbeat IPC: 0.505608 cumulative IPC: 0.509657 (Simulation time: 1 hr 5 min 28 sec) 
Heartbeat CPU 0 instructions: 96000000 cycles: 116548836 heartbeat IPC: 0.496729 cumulative IPC: 0.509369 (Simulation time: 1 hr 6 min 12 sec) 
Heartbeat CPU 0 instructions: 97000000 cycles: 118566229 heartbeat IPC: 0.495689 cumulative IPC: 0.50907 (Simulation time: 1 hr 6 min 51 sec) 
Heartbeat CPU 0 instructions: 98000000 cycles: 120566516 heartbeat IPC: 0.499928 cumulative IPC: 0.508876 (Simulation time: 1 hr 7 min 28 sec) 
Heartbeat CPU 0 instructions: 99000000 cycles: 122665400 heartbeat IPC: 0.476444 cumulative IPC: 0.50817 (Simulation time: 1 hr 8 min 1 sec) 
Heartbeat CPU 0 instructions: 100000000 cycles: 124678066 heartbeat IPC: 0.496853 cumulative IPC: 0.507939 (Simulation time: 1 hr 8 min 34 sec) 
Heartbeat CPU 0 instructions: 101000000 cycles: 126712534 heartbeat IPC: 0.491529 cumulative IPC: 0.507606 (Simulation time: 1 hr 9 min 7 sec) 
Heartbeat CPU 0 instructions: 102000003 cycles: 128719014 heartbeat IPC: 0.498387 cumulative IPC: 0.507426 (Simulation time: 1 hr 9 min 41 sec) 
Heartbeat CPU 0 instructions: 103000000 cycles: 130668908 heartbeat IPC: 0.512847 cumulative IPC: 0.507527 (Simulation time: 1 hr 10 min 18 sec) 
Heartbeat CPU 0 instructions: 104000000 cycles: 132606192 heartbeat IPC: 0.516187 cumulative IPC: 0.507685 (Simulation time: 1 hr 10 min 56 sec) 
Heartbeat CPU 0 instructions: 105000002 cycles: 134553780 heartbeat IPC: 0.513457 cumulative IPC: 0.507789 (Simulation time: 1 hr 11 min 32 sec) 
Heartbeat CPU 0 instructions: 106000003 cycles: 136479923 heartbeat IPC: 0.519173 cumulative IPC: 0.507987 (Simulation time: 1 hr 12 min 9 sec) 
Heartbeat CPU 0 instructions: 107000000 cycles: 138428650 heartbeat IPC: 0.513154 cumulative IPC: 0.508077 (Simulation time: 1 hr 12 min 47 sec) 
Heartbeat CPU 0 instructions: 108000000 cycles: 140506911 heartbeat IPC: 0.481172 cumulative IPC: 0.507588 (Simulation time: 1 hr 13 min 21 sec) 
Heartbeat CPU 0 instructions: 109000003 cycles: 142551235 heartbeat IPC: 0.489161 cumulative IPC: 0.507264 (Simulation time: 1 hr 13 min 59 sec) 
Heartbeat CPU 0 instructions: 110000002 cycles: 144543823 heartbeat IPC: 0.501859 cumulative IPC: 0.507173 (Simulation time: 1 hr 14 min 34 sec) 
Heartbeat CPU 0 instructions: 111000002 cycles: 146528510 heartbeat IPC: 0.503858 cumulative IPC: 0.507118 (Simulation time: 1 hr 15 min 10 sec) 
Heartbeat CPU 0 instructions: 112000000 cycles: 148525279 heartbeat IPC: 0.500808 cumulative IPC: 0.507015 (Simulation time: 1 hr 15 min 46 sec) 
Heartbeat CPU 0 instructions: 113000000 cycles: 150516996 heartbeat IPC: 0.502079 cumulative IPC: 0.506936 (Simulation time: 1 hr 16 min 20 sec) 
Heartbeat CPU 0 instructions: 114000001 cycles: 152516589 heartbeat IPC: 0.500102 cumulative IPC: 0.506828 (Simulation time: 1 hr 16 min 54 sec) 
Heartbeat CPU 0 instructions: 115000000 cycles: 154530451 heartbeat IPC: 0.496558 cumulative IPC: 0.506667 (Simulation time: 1 hr 17 min 29 sec) 
Heartbeat CPU 0 instructions: 116000000 cycles: 156579606 heartbeat IPC: 0.488006 cumulative IPC: 0.506373 (Simulation time: 1 hr 18 min 1 sec) 
Heartbeat CPU 0 instructions: 117000000 cycles: 158667845 heartbeat IPC: 0.478872 cumulative IPC: 0.50594 (Simulation time: 1 hr 18 min 35 sec) 
Heartbeat CPU 0 instructions: 118000002 cycles: 160781998 heartbeat IPC: 0.473004 cumulative IPC: 0.505422 (Simulation time: 1 hr 19 min 7 sec) 
Heartbeat CPU 0 instructions: 119000001 cycles: 162860236 heartbeat IPC: 0.481176 cumulative IPC: 0.505053 (Simulation time: 1 hr 19 min 41 sec) 
Heartbeat CPU 0 instructions: 120000000 cycles: 164893436 heartbeat IPC: 0.491835 cumulative IPC: 0.504859 (Simulation time: 1 hr 20 min 14 sec) 
Heartbeat CPU 0 instructions: 121000000 cycles: 166973611 heartbeat IPC: 0.480729 cumulative IPC: 0.504503 (Simulation time: 1 hr 20 min 48 sec) 
Heartbeat CPU 0 instructions: 122000001 cycles: 169116964 heartbeat IPC: 0.466559 cumulative IPC: 0.503934 (Simulation time: 1 hr 21 min 20 sec) 
Heartbeat CPU 0 instructions: 123000000 cycles: 171179744 heartbeat IPC: 0.484782 cumulative IPC: 0.503661 (Simulation time: 1 hr 21 min 56 sec) 
Heartbeat CPU 0 instructions: 124000000 cycles: 173179562 heartbeat IPC: 0.500045 cumulative IPC: 0.503612 (Simulation time: 1 hr 22 min 27 sec) 
Heartbeat CPU 0 instructions: 125000001 cycles: 175157013 heartbeat IPC: 0.505702 cumulative IPC: 0.50364 (Simulation time: 1 hr 23 min 0 sec) 
Heartbeat CPU 0 instructions: 126000000 cycles: 177146402 heartbeat IPC: 0.502666 cumulative IPC: 0.503627 (Simulation time: 1 hr 23 min 31 sec) 
Heartbeat CPU 0 instructions: 127000001 cycles: 179137610 heartbeat IPC: 0.502208 cumulative IPC: 0.503608 (Simulation time: 1 hr 23 min 59 sec) 
Heartbeat CPU 0 instructions: 128000000 cycles: 181169861 heartbeat IPC: 0.492065 cumulative IPC: 0.503457 (Simulation time: 1 hr 24 min 25 sec) 
Heartbeat CPU 0 instructions: 129000000 cycles: 183221634 heartbeat IPC: 0.487383 cumulative IPC: 0.503247 (Simulation time: 1 hr 24 min 50 sec) 
Heartbeat CPU 0 instructions: 130000002 cycles: 185247080 heartbeat IPC: 0.493719 cumulative IPC: 0.503125 (Simulation time: 1 hr 25 min 17 sec) 
Heartbeat CPU 0 instructions: 131000001 cycles: 187240166 heartbeat IPC: 0.501734 cumulative IPC: 0.503108 (Simulation time: 1 hr 25 min 44 sec) 
Heartbeat CPU 0 instructions: 132000000 cycles: 189241205 heartbeat IPC: 0.49974 cumulative IPC: 0.503067 (Simulation time: 1 hr 26 min 11 sec) 
Heartbeat CPU 0 instructions: 133000001 cycles: 191239736 heartbeat IPC: 0.500368 cumulative IPC: 0.503034 (Simulation time: 1 hr 26 min 39 sec) 
Heartbeat CPU 0 instructions: 134000002 cycles: 193240067 heartbeat IPC: 0.499918 cumulative IPC: 0.502997 (Simulation time: 1 hr 27 min 5 sec) 
Heartbeat CPU 0 instructions: 135000003 cycles: 195254982 heartbeat IPC: 0.496299 cumulative IPC: 0.502917 (Simulation time: 1 hr 27 min 29 sec) 
Heartbeat CPU 0 instructions: 136000000 cycles: 197241219 heartbeat IPC: 0.503463 cumulative IPC: 0.502923 (Simulation time: 1 hr 27 min 55 sec) 
Heartbeat CPU 0 instructions: 137000000 cycles: 199224378 heartbeat IPC: 0.504246 cumulative IPC: 0.502938 (Simulation time: 1 hr 28 min 20 sec) 
Heartbeat CPU 0 instructions: 138000003 cycles: 201218917 heartbeat IPC: 0.50137 cumulative IPC: 0.502921 (Simulation time: 1 hr 28 min 45 sec) 
Heartbeat CPU 0 instructions: 139000000 cycles: 203244925 heartbeat IPC: 0.49358 cumulative IPC: 0.502814 (Simulation time: 1 hr 29 min 8 sec) 
Heartbeat CPU 0 instructions: 140000000 cycles: 205285700 heartbeat IPC: 0.49001 cumulative IPC: 0.502668 (Simulation time: 1 hr 29 min 33 sec) 
Heartbeat CPU 0 instructions: 141000002 cycles: 207296278 heartbeat IPC: 0.49737 cumulative IPC: 0.502609 (Simulation time: 1 hr 29 min 56 sec) 
Heartbeat CPU 0 instructions: 142000002 cycles: 209294856 heartbeat IPC: 0.500356 cumulative IPC: 0.502584 (Simulation time: 1 hr 30 min 19 sec) 
Heartbeat CPU 0 instructions: 143000002 cycles: 211309290 heartbeat IPC: 0.496417 cumulative IPC: 0.502517 (Simulation time: 1 hr 30 min 42 sec) 
Heartbeat CPU 0 instructions: 144000000 cycles: 213324062 heartbeat IPC: 0.496333 cumulative IPC: 0.502451 (Simulation time: 1 hr 31 min 5 sec) 
Heartbeat CPU 0 instructions: 145000001 cycles: 215424861 heartbeat IPC: 0.47601 cumulative IPC: 0.502157 (Simulation time: 1 hr 31 min 27 sec) 
Heartbeat CPU 0 instructions: 146000000 cycles: 217618457 heartbeat IPC: 0.455872 cumulative IPC: 0.501626 (Simulation time: 1 hr 31 min 47 sec) 
Heartbeat CPU 0 instructions: 147000000 cycles: 219750397 heartbeat IPC: 0.469056 cumulative IPC: 0.501268 (Simulation time: 1 hr 32 min 7 sec) 
Heartbeat CPU 0 instructions: 148000000 cycles: 221906124 heartbeat IPC: 0.463881 cumulative IPC: 0.500856 (Simulation time: 1 hr 32 min 27 sec) 
Heartbeat CPU 0 instructions: 149000000 cycles: 224028360 heartbeat IPC: 0.471201 cumulative IPC: 0.500538 (Simulation time: 1 hr 32 min 48 sec) 
Heartbeat CPU 0 instructions: 150000000 cycles: 226183974 heartbeat IPC: 0.463905 cumulative IPC: 0.500143 (Simulation time: 1 hr 33 min 8 sec) 
Finished CPU 0 instructions: 100000003 cycles: 199942988 cummulative IPC: 0.500143 (Simulation time: 1 hr 33 min 8 sec) 

ChampSim completed all CPUs

Region of Interest Statistics

CPU 0 cummulative IPC: 0.500143 instructions: 100000003 cycles: 199942988
LLC TOTAL     ACCESS:     477019  HIT:     313563  MISS:     163456
LLC LOAD      ACCESS:     104810  HIT:      60875  MISS:      43935
LLC RFO       ACCESS:      70517  HIT:      29340  MISS:      41177
LLC PREFETCH  ACCESS:     138035  HIT:      76204  MISS:      61831
LLC WRITEBACK ACCESS:     163657  HIT:     147144  MISS:      16513
OPTgen accesses: 4411
OPTgen hits: 3864
OPTgen hit rate: 87.5992


