
*** ChampSim Multicore Out-of-Order Simulator ***

Warmup Instructions: 50000000
Simulation Instructions: 100000000
Configuration: 2
Number of CPUs: 1
LLC sets: 2048
LLC ways: 16
Off-chip DRAM Channels: 1 Width: 64-bit Data Rate: 1600 MT/s

CPU 0 runs /datasets/cs240c-wi22-a00-public/data/Assignment2-gz/libquantum_964B.trace.gz
CPU 0 L1D next line prefetcher
CPU 0 L2C IP-based stride prefetcher
Initialize Hawkeye state
Heartbeat CPU 0 instructions: 1000002 cycles: 333341 heartbeat IPC: 2.99994 cumulative IPC: 2.99994 (Simulation time: 0 hr 0 min 24 sec) 
Heartbeat CPU 0 instructions: 2000001 cycles: 666674 heartbeat IPC: 3 cumulative IPC: 2.99997 (Simulation time: 0 hr 0 min 47 sec) 
Heartbeat CPU 0 instructions: 3000000 cycles: 1000007 heartbeat IPC: 3 cumulative IPC: 2.99998 (Simulation time: 0 hr 1 min 9 sec) 
Heartbeat CPU 0 instructions: 4000000 cycles: 1333341 heartbeat IPC: 2.99999 cumulative IPC: 2.99998 (Simulation time: 0 hr 1 min 31 sec) 
Heartbeat CPU 0 instructions: 5000000 cycles: 1666674 heartbeat IPC: 3 cumulative IPC: 2.99999 (Simulation time: 0 hr 1 min 54 sec) 
Heartbeat CPU 0 instructions: 6000002 cycles: 2000008 heartbeat IPC: 3 cumulative IPC: 2.99999 (Simulation time: 0 hr 2 min 17 sec) 
Heartbeat CPU 0 instructions: 7000001 cycles: 2331518 heartbeat IPC: 3.0165 cumulative IPC: 3.00234 (Simulation time: 0 hr 2 min 39 sec) 
Heartbeat CPU 0 instructions: 8000000 cycles: 2662240 heartbeat IPC: 3.02368 cumulative IPC: 3.00499 (Simulation time: 0 hr 3 min 1 sec) 
Heartbeat CPU 0 instructions: 9000001 cycles: 2992962 heartbeat IPC: 3.02369 cumulative IPC: 3.00705 (Simulation time: 0 hr 3 min 24 sec) 
Heartbeat CPU 0 instructions: 10000001 cycles: 3323684 heartbeat IPC: 3.02369 cumulative IPC: 3.00871 (Simulation time: 0 hr 3 min 46 sec) 
Heartbeat CPU 0 instructions: 11000000 cycles: 3654406 heartbeat IPC: 3.02368 cumulative IPC: 3.01007 (Simulation time: 0 hr 4 min 8 sec) 
Heartbeat CPU 0 instructions: 12000000 cycles: 3985113 heartbeat IPC: 3.02382 cumulative IPC: 3.01121 (Simulation time: 0 hr 4 min 30 sec) 
Heartbeat CPU 0 instructions: 13000001 cycles: 4315818 heartbeat IPC: 3.02385 cumulative IPC: 3.01218 (Simulation time: 0 hr 4 min 53 sec) 
Heartbeat CPU 0 instructions: 14000000 cycles: 4646523 heartbeat IPC: 3.02384 cumulative IPC: 3.01301 (Simulation time: 0 hr 5 min 15 sec) 
Heartbeat CPU 0 instructions: 15000003 cycles: 4977229 heartbeat IPC: 3.02384 cumulative IPC: 3.01373 (Simulation time: 0 hr 5 min 40 sec) 
Heartbeat CPU 0 instructions: 16000000 cycles: 5307934 heartbeat IPC: 3.02383 cumulative IPC: 3.01436 (Simulation time: 0 hr 6 min 1 sec) 
Heartbeat CPU 0 instructions: 17000000 cycles: 5638642 heartbeat IPC: 3.02382 cumulative IPC: 3.01491 (Simulation time: 0 hr 6 min 24 sec) 
Heartbeat CPU 0 instructions: 18000003 cycles: 5969365 heartbeat IPC: 3.02369 cumulative IPC: 3.0154 (Simulation time: 0 hr 6 min 45 sec) 
Heartbeat CPU 0 instructions: 19000002 cycles: 6300087 heartbeat IPC: 3.02368 cumulative IPC: 3.01583 (Simulation time: 0 hr 7 min 7 sec) 
Heartbeat CPU 0 instructions: 20000000 cycles: 6630808 heartbeat IPC: 3.02369 cumulative IPC: 3.01622 (Simulation time: 0 hr 7 min 29 sec) 
Heartbeat CPU 0 instructions: 21000003 cycles: 6961531 heartbeat IPC: 3.02369 cumulative IPC: 3.01658 (Simulation time: 0 hr 7 min 51 sec) 
Heartbeat CPU 0 instructions: 22000002 cycles: 7292253 heartbeat IPC: 3.02368 cumulative IPC: 3.0169 (Simulation time: 0 hr 8 min 13 sec) 
Heartbeat CPU 0 instructions: 23000000 cycles: 7622968 heartbeat IPC: 3.02375 cumulative IPC: 3.0172 (Simulation time: 0 hr 8 min 35 sec) 
Heartbeat CPU 0 instructions: 24000000 cycles: 7953674 heartbeat IPC: 3.02383 cumulative IPC: 3.01747 (Simulation time: 0 hr 8 min 58 sec) 
Heartbeat CPU 0 instructions: 25000000 cycles: 8284379 heartbeat IPC: 3.02384 cumulative IPC: 3.01773 (Simulation time: 0 hr 9 min 20 sec) 
Heartbeat CPU 0 instructions: 26000002 cycles: 8675744 heartbeat IPC: 2.55516 cumulative IPC: 2.99686 (Simulation time: 0 hr 9 min 50 sec) 
Heartbeat CPU 0 instructions: 27000000 cycles: 9096050 heartbeat IPC: 2.37921 cumulative IPC: 2.96832 (Simulation time: 0 hr 10 min 24 sec) 
Heartbeat CPU 0 instructions: 28000000 cycles: 9516352 heartbeat IPC: 2.37924 cumulative IPC: 2.9423 (Simulation time: 0 hr 10 min 58 sec) 
Heartbeat CPU 0 instructions: 29000002 cycles: 9936683 heartbeat IPC: 2.37908 cumulative IPC: 2.91848 (Simulation time: 0 hr 11 min 33 sec) 
Heartbeat CPU 0 instructions: 30000002 cycles: 10356994 heartbeat IPC: 2.37919 cumulative IPC: 2.89659 (Simulation time: 0 hr 12 min 5 sec) 
Heartbeat CPU 0 instructions: 31000000 cycles: 10777300 heartbeat IPC: 2.37921 cumulative IPC: 2.87642 (Simulation time: 0 hr 12 min 40 sec) 
Heartbeat CPU 0 instructions: 32000000 cycles: 11197602 heartbeat IPC: 2.37924 cumulative IPC: 2.85775 (Simulation time: 0 hr 13 min 16 sec) 
Heartbeat CPU 0 instructions: 33000002 cycles: 11617933 heartbeat IPC: 2.37908 cumulative IPC: 2.84044 (Simulation time: 0 hr 13 min 50 sec) 
Heartbeat CPU 0 instructions: 34000002 cycles: 12038244 heartbeat IPC: 2.37919 cumulative IPC: 2.82433 (Simulation time: 0 hr 14 min 25 sec) 
Heartbeat CPU 0 instructions: 35000000 cycles: 12458550 heartbeat IPC: 2.37921 cumulative IPC: 2.80932 (Simulation time: 0 hr 15 min 0 sec) 
Heartbeat CPU 0 instructions: 36000000 cycles: 12862260 heartbeat IPC: 2.47703 cumulative IPC: 2.79889 (Simulation time: 0 hr 15 min 33 sec) 
Heartbeat CPU 0 instructions: 37000001 cycles: 13195593 heartbeat IPC: 3.00001 cumulative IPC: 2.80397 (Simulation time: 0 hr 15 min 53 sec) 
Heartbeat CPU 0 instructions: 38000000 cycles: 13528926 heartbeat IPC: 3 cumulative IPC: 2.8088 (Simulation time: 0 hr 16 min 16 sec) 
Heartbeat CPU 0 instructions: 39000003 cycles: 13862260 heartbeat IPC: 3 cumulative IPC: 2.81339 (Simulation time: 0 hr 16 min 38 sec) 
Heartbeat CPU 0 instructions: 40000000 cycles: 14195593 heartbeat IPC: 2.99999 cumulative IPC: 2.81778 (Simulation time: 0 hr 17 min 0 sec) 
Heartbeat CPU 0 instructions: 41000001 cycles: 14528926 heartbeat IPC: 3.00001 cumulative IPC: 2.82196 (Simulation time: 0 hr 17 min 23 sec) 
Heartbeat CPU 0 instructions: 42000000 cycles: 14862259 heartbeat IPC: 3 cumulative IPC: 2.82595 (Simulation time: 0 hr 17 min 45 sec) 
Heartbeat CPU 0 instructions: 43000001 cycles: 15195593 heartbeat IPC: 3 cumulative IPC: 2.82977 (Simulation time: 0 hr 18 min 6 sec) 
Heartbeat CPU 0 instructions: 44000000 cycles: 15528926 heartbeat IPC: 3 cumulative IPC: 2.83342 (Simulation time: 0 hr 18 min 27 sec) 
Heartbeat CPU 0 instructions: 45000002 cycles: 15862260 heartbeat IPC: 3 cumulative IPC: 2.83692 (Simulation time: 0 hr 18 min 50 sec) 
Heartbeat CPU 0 instructions: 46000001 cycles: 16195593 heartbeat IPC: 3 cumulative IPC: 2.84028 (Simulation time: 0 hr 19 min 11 sec) 
Heartbeat CPU 0 instructions: 47000000 cycles: 16528926 heartbeat IPC: 3 cumulative IPC: 2.8435 (Simulation time: 0 hr 19 min 33 sec) 
Heartbeat CPU 0 instructions: 48000000 cycles: 16862260 heartbeat IPC: 2.99999 cumulative IPC: 2.84659 (Simulation time: 0 hr 19 min 55 sec) 
Heartbeat CPU 0 instructions: 49000003 cycles: 17195596 heartbeat IPC: 2.99998 cumulative IPC: 2.84957 (Simulation time: 0 hr 20 min 19 sec) 
Heartbeat CPU 0 instructions: 50000001 cycles: 17528926 heartbeat IPC: 3.00002 cumulative IPC: 2.85243 (Simulation time: 0 hr 20 min 42 sec) 

Warmup complete CPU 0 instructions: 50000001 cycles: 17528926 (Simulation time: 0 hr 20 min 42 sec) 

Heartbeat CPU 0 instructions: 51000000 cycles: 18995168 heartbeat IPC: 0.682015 cumulative IPC: 0.682015 (Simulation time: 0 hr 21 min 18 sec) 
Heartbeat CPU 0 instructions: 52000000 cycles: 20461433 heartbeat IPC: 0.682005 cumulative IPC: 0.68201 (Simulation time: 0 hr 21 min 58 sec) 
Heartbeat CPU 0 instructions: 53000000 cycles: 21922324 heartbeat IPC: 0.684514 cumulative IPC: 0.682843 (Simulation time: 0 hr 22 min 36 sec) 
Heartbeat CPU 0 instructions: 54000002 cycles: 23146757 heartbeat IPC: 0.816706 cumulative IPC: 0.712019 (Simulation time: 0 hr 23 min 12 sec) 
Heartbeat CPU 0 instructions: 55000002 cycles: 24320944 heartbeat IPC: 0.851653 cumulative IPC: 0.736158 (Simulation time: 0 hr 23 min 48 sec) 
Heartbeat CPU 0 instructions: 56000000 cycles: 26060252 heartbeat IPC: 0.57494 cumulative IPC: 0.70329 (Simulation time: 0 hr 24 min 23 sec) 
Heartbeat CPU 0 instructions: 57000001 cycles: 27812674 heartbeat IPC: 0.570639 cumulative IPC: 0.680686 (Simulation time: 0 hr 24 min 58 sec) 
Heartbeat CPU 0 instructions: 58000000 cycles: 29562783 heartbeat IPC: 0.571392 cumulative IPC: 0.664791 (Simulation time: 0 hr 25 min 35 sec) 
Heartbeat CPU 0 instructions: 59000003 cycles: 31313623 heartbeat IPC: 0.571156 cumulative IPC: 0.652898 (Simulation time: 0 hr 26 min 10 sec) 
Heartbeat CPU 0 instructions: 60000000 cycles: 33061043 heartbeat IPC: 0.572271 cumulative IPC: 0.643827 (Simulation time: 0 hr 26 min 46 sec) 
Heartbeat CPU 0 instructions: 61000002 cycles: 34811057 heartbeat IPC: 0.571425 cumulative IPC: 0.636496 (Simulation time: 0 hr 27 min 20 sec) 
Heartbeat CPU 0 instructions: 62000001 cycles: 36564166 heartbeat IPC: 0.570415 cumulative IPC: 0.63041 (Simulation time: 0 hr 27 min 56 sec) 
Heartbeat CPU 0 instructions: 63000001 cycles: 38312099 heartbeat IPC: 0.572104 cumulative IPC: 0.625506 (Simulation time: 0 hr 28 min 31 sec) 
Heartbeat CPU 0 instructions: 64000000 cycles: 40067235 heartbeat IPC: 0.569756 cumulative IPC: 0.621165 (Simulation time: 0 hr 29 min 6 sec) 
Heartbeat CPU 0 instructions: 65000002 cycles: 41819120 heartbeat IPC: 0.570815 cumulative IPC: 0.617533 (Simulation time: 0 hr 29 min 40 sec) 
Heartbeat CPU 0 instructions: 66000002 cycles: 43566432 heartbeat IPC: 0.572308 cumulative IPC: 0.614498 (Simulation time: 0 hr 30 min 17 sec) 
Heartbeat CPU 0 instructions: 67000000 cycles: 45316360 heartbeat IPC: 0.571451 cumulative IPC: 0.611787 (Simulation time: 0 hr 30 min 52 sec) 
Heartbeat CPU 0 instructions: 68000000 cycles: 47064803 heartbeat IPC: 0.571937 cumulative IPC: 0.609428 (Simulation time: 0 hr 31 min 28 sec) 
Heartbeat CPU 0 instructions: 69000000 cycles: 48817561 heartbeat IPC: 0.570529 cumulative IPC: 0.607249 (Simulation time: 0 hr 32 min 2 sec) 
Heartbeat CPU 0 instructions: 70000002 cycles: 50566442 heartbeat IPC: 0.571795 cumulative IPC: 0.605372 (Simulation time: 0 hr 32 min 36 sec) 
Heartbeat CPU 0 instructions: 71000001 cycles: 52316987 heartbeat IPC: 0.57125 cumulative IPC: 0.603655 (Simulation time: 0 hr 33 min 11 sec) 
Heartbeat CPU 0 instructions: 72000000 cycles: 54051254 heartbeat IPC: 0.576612 cumulative IPC: 0.602371 (Simulation time: 0 hr 33 min 45 sec) 
Heartbeat CPU 0 instructions: 73000000 cycles: 55486362 heartbeat IPC: 0.696812 cumulative IPC: 0.605942 (Simulation time: 0 hr 34 min 22 sec) 
Heartbeat CPU 0 instructions: 74000000 cycles: 56828760 heartbeat IPC: 0.744936 cumulative IPC: 0.61069 (Simulation time: 0 hr 34 min 57 sec) 
Heartbeat CPU 0 instructions: 75000000 cycles: 59160997 heartbeat IPC: 0.428773 cumulative IPC: 0.600499 (Simulation time: 0 hr 35 min 45 sec) 
Heartbeat CPU 0 instructions: 76000000 cycles: 61501977 heartbeat IPC: 0.427172 cumulative IPC: 0.591271 (Simulation time: 0 hr 36 min 32 sec) 
Heartbeat CPU 0 instructions: 77000000 cycles: 63838638 heartbeat IPC: 0.427961 cumulative IPC: 0.583031 (Simulation time: 0 hr 37 min 20 sec) 
Heartbeat CPU 0 instructions: 78000000 cycles: 66201436 heartbeat IPC: 0.423227 cumulative IPC: 0.575273 (Simulation time: 0 hr 38 min 8 sec) 
Heartbeat CPU 0 instructions: 79000000 cycles: 68532012 heartbeat IPC: 0.429078 cumulative IPC: 0.568593 (Simulation time: 0 hr 38 min 55 sec) 
Heartbeat CPU 0 instructions: 80000000 cycles: 70879858 heartbeat IPC: 0.425922 cumulative IPC: 0.562314 (Simulation time: 0 hr 39 min 43 sec) 
Heartbeat CPU 0 instructions: 81000000 cycles: 73215777 heartbeat IPC: 0.428097 cumulative IPC: 0.556684 (Simulation time: 0 hr 40 min 31 sec) 
Heartbeat CPU 0 instructions: 82000000 cycles: 75546312 heartbeat IPC: 0.429086 cumulative IPC: 0.551559 (Simulation time: 0 hr 41 min 19 sec) 
Heartbeat CPU 0 instructions: 83000000 cycles: 77889739 heartbeat IPC: 0.426725 cumulative IPC: 0.546712 (Simulation time: 0 hr 42 min 6 sec) 
Heartbeat CPU 0 instructions: 84000000 cycles: 79641616 heartbeat IPC: 0.570816 cumulative IPC: 0.547392 (Simulation time: 0 hr 42 min 49 sec) 
Heartbeat CPU 0 instructions: 85000001 cycles: 81041480 heartbeat IPC: 0.714356 cumulative IPC: 0.551072 (Simulation time: 0 hr 43 min 27 sec) 
Heartbeat CPU 0 instructions: 86000000 cycles: 82551629 heartbeat IPC: 0.662186 cumulative IPC: 0.553653 (Simulation time: 0 hr 44 min 6 sec) 
Heartbeat CPU 0 instructions: 87000003 cycles: 84061557 heartbeat IPC: 0.662285 cumulative IPC: 0.556118 (Simulation time: 0 hr 44 min 45 sec) 
Heartbeat CPU 0 instructions: 88000000 cycles: 85571549 heartbeat IPC: 0.662253 cumulative IPC: 0.558473 (Simulation time: 0 hr 45 min 24 sec) 
Heartbeat CPU 0 instructions: 89000001 cycles: 87081596 heartbeat IPC: 0.662232 cumulative IPC: 0.560726 (Simulation time: 0 hr 46 min 1 sec) 
Heartbeat CPU 0 instructions: 90000000 cycles: 88591716 heartbeat IPC: 0.662198 cumulative IPC: 0.562882 (Simulation time: 0 hr 46 min 40 sec) 
Heartbeat CPU 0 instructions: 91000001 cycles: 90101639 heartbeat IPC: 0.662286 cumulative IPC: 0.564951 (Simulation time: 0 hr 47 min 18 sec) 
Heartbeat CPU 0 instructions: 92000000 cycles: 91611747 heartbeat IPC: 0.662204 cumulative IPC: 0.566933 (Simulation time: 0 hr 47 min 56 sec) 
Heartbeat CPU 0 instructions: 93000002 cycles: 93121901 heartbeat IPC: 0.662185 cumulative IPC: 0.568836 (Simulation time: 0 hr 48 min 35 sec) 
Heartbeat CPU 0 instructions: 94000001 cycles: 94631821 heartbeat IPC: 0.662286 cumulative IPC: 0.570666 (Simulation time: 0 hr 49 min 14 sec) 
Heartbeat CPU 0 instructions: 95000000 cycles: 96141745 heartbeat IPC: 0.662284 cumulative IPC: 0.572426 (Simulation time: 0 hr 49 min 52 sec) 
Heartbeat CPU 0 instructions: 96000000 cycles: 97651739 heartbeat IPC: 0.662254 cumulative IPC: 0.574119 (Simulation time: 0 hr 50 min 33 sec) 
Heartbeat CPU 0 instructions: 97000002 cycles: 99159393 heartbeat IPC: 0.663283 cumulative IPC: 0.575765 (Simulation time: 0 hr 51 min 12 sec) 
Heartbeat CPU 0 instructions: 98000001 cycles: 100656067 heartbeat IPC: 0.668148 cumulative IPC: 0.577429 (Simulation time: 0 hr 51 min 49 sec) 
Heartbeat CPU 0 instructions: 99000000 cycles: 102166061 heartbeat IPC: 0.662254 cumulative IPC: 0.578942 (Simulation time: 0 hr 52 min 26 sec) 
Heartbeat CPU 0 instructions: 100000000 cycles: 103675982 heartbeat IPC: 0.662286 cumulative IPC: 0.580403 (Simulation time: 0 hr 53 min 6 sec) 
Heartbeat CPU 0 instructions: 101000000 cycles: 105183039 heartbeat IPC: 0.663545 cumulative IPC: 0.581832 (Simulation time: 0 hr 53 min 44 sec) 
Heartbeat CPU 0 instructions: 102000002 cycles: 106583202 heartbeat IPC: 0.714204 cumulative IPC: 0.583914 (Simulation time: 0 hr 54 min 23 sec) 
Heartbeat CPU 0 instructions: 103000001 cycles: 107527014 heartbeat IPC: 1.05953 cumulative IPC: 0.588901 (Simulation time: 0 hr 54 min 59 sec) 
Heartbeat CPU 0 instructions: 104000000 cycles: 109726206 heartbeat IPC: 0.454712 cumulative IPC: 0.585701 (Simulation time: 0 hr 55 min 43 sec) 
Heartbeat CPU 0 instructions: 105000000 cycles: 112070936 heartbeat IPC: 0.426488 cumulative IPC: 0.581752 (Simulation time: 0 hr 56 min 30 sec) 
Heartbeat CPU 0 instructions: 106000000 cycles: 114423632 heartbeat IPC: 0.425044 cumulative IPC: 0.577947 (Simulation time: 0 hr 57 min 18 sec) 
Heartbeat CPU 0 instructions: 107000000 cycles: 116780605 heartbeat IPC: 0.424273 cumulative IPC: 0.574298 (Simulation time: 0 hr 58 min 6 sec) 
Heartbeat CPU 0 instructions: 108000000 cycles: 119140480 heartbeat IPC: 0.423751 cumulative IPC: 0.570801 (Simulation time: 0 hr 58 min 53 sec) 
Heartbeat CPU 0 instructions: 109000000 cycles: 121488711 heartbeat IPC: 0.425852 cumulative IPC: 0.567527 (Simulation time: 0 hr 59 min 40 sec) 
Heartbeat CPU 0 instructions: 110000000 cycles: 123821539 heartbeat IPC: 0.428664 cumulative IPC: 0.564479 (Simulation time: 1 hr 0 min 28 sec) 
Heartbeat CPU 0 instructions: 111000000 cycles: 126171418 heartbeat IPC: 0.425554 cumulative IPC: 0.561475 (Simulation time: 1 hr 1 min 15 sec) 
Heartbeat CPU 0 instructions: 112000000 cycles: 128525162 heartbeat IPC: 0.424855 cumulative IPC: 0.558577 (Simulation time: 1 hr 2 min 4 sec) 
Heartbeat CPU 0 instructions: 113000000 cycles: 130692306 heartbeat IPC: 0.461437 cumulative IPC: 0.556717 (Simulation time: 1 hr 2 min 48 sec) 
Heartbeat CPU 0 instructions: 114000002 cycles: 132104523 heartbeat IPC: 0.708108 cumulative IPC: 0.558583 (Simulation time: 1 hr 3 min 27 sec) 
Heartbeat CPU 0 instructions: 115000001 cycles: 133853138 heartbeat IPC: 0.571881 cumulative IPC: 0.558783 (Simulation time: 1 hr 4 min 1 sec) 
Heartbeat CPU 0 instructions: 116000000 cycles: 135599892 heartbeat IPC: 0.57249 cumulative IPC: 0.558986 (Simulation time: 1 hr 4 min 34 sec) 
Heartbeat CPU 0 instructions: 117000002 cycles: 137350223 heartbeat IPC: 0.571322 cumulative IPC: 0.559166 (Simulation time: 1 hr 5 min 5 sec) 
Heartbeat CPU 0 instructions: 118000002 cycles: 139098791 heartbeat IPC: 0.571897 cumulative IPC: 0.559349 (Simulation time: 1 hr 5 min 38 sec) 
Heartbeat CPU 0 instructions: 119000002 cycles: 140849305 heartbeat IPC: 0.571261 cumulative IPC: 0.559518 (Simulation time: 1 hr 6 min 12 sec) 
Heartbeat CPU 0 instructions: 120000000 cycles: 142599623 heartbeat IPC: 0.571324 cumulative IPC: 0.559683 (Simulation time: 1 hr 6 min 49 sec) 
Heartbeat CPU 0 instructions: 121000000 cycles: 144351784 heartbeat IPC: 0.570724 cumulative IPC: 0.559836 (Simulation time: 1 hr 7 min 22 sec) 
Heartbeat CPU 0 instructions: 122000001 cycles: 146102181 heartbeat IPC: 0.5713 cumulative IPC: 0.559992 (Simulation time: 1 hr 7 min 51 sec) 
Heartbeat CPU 0 instructions: 123000000 cycles: 147852343 heartbeat IPC: 0.571375 cumulative IPC: 0.560145 (Simulation time: 1 hr 8 min 25 sec) 
Heartbeat CPU 0 instructions: 124000000 cycles: 149609164 heartbeat IPC: 0.56921 cumulative IPC: 0.560265 (Simulation time: 1 hr 8 min 54 sec) 
Heartbeat CPU 0 instructions: 125000001 cycles: 151356941 heartbeat IPC: 0.572156 cumulative IPC: 0.560421 (Simulation time: 1 hr 9 min 24 sec) 
Heartbeat CPU 0 instructions: 126000000 cycles: 153109934 heartbeat IPC: 0.570452 cumulative IPC: 0.56055 (Simulation time: 1 hr 9 min 54 sec) 
Heartbeat CPU 0 instructions: 127000003 cycles: 154858539 heartbeat IPC: 0.571886 cumulative IPC: 0.560695 (Simulation time: 1 hr 10 min 24 sec) 
Heartbeat CPU 0 instructions: 128000000 cycles: 156606555 heartbeat IPC: 0.572075 cumulative IPC: 0.560838 (Simulation time: 1 hr 10 min 54 sec) 
Heartbeat CPU 0 instructions: 129000000 cycles: 158358344 heartbeat IPC: 0.570845 cumulative IPC: 0.560962 (Simulation time: 1 hr 11 min 24 sec) 
Heartbeat CPU 0 instructions: 130000001 cycles: 160106434 heartbeat IPC: 0.572053 cumulative IPC: 0.561098 (Simulation time: 1 hr 11 min 52 sec) 
Heartbeat CPU 0 instructions: 131000000 cycles: 161833379 heartbeat IPC: 0.579057 cumulative IPC: 0.561313 (Simulation time: 1 hr 12 min 22 sec) 
Heartbeat CPU 0 instructions: 132000000 cycles: 163200709 heartbeat IPC: 0.731352 cumulative IPC: 0.562909 (Simulation time: 1 hr 12 min 50 sec) 
Heartbeat CPU 0 instructions: 133000000 cycles: 164704553 heartbeat IPC: 0.664963 cumulative IPC: 0.563952 (Simulation time: 1 hr 13 min 21 sec) 
Heartbeat CPU 0 instructions: 134000000 cycles: 167006205 heartbeat IPC: 0.434471 cumulative IPC: 0.561958 (Simulation time: 1 hr 13 min 57 sec) 
Heartbeat CPU 0 instructions: 135000000 cycles: 169320692 heartbeat IPC: 0.432061 cumulative IPC: 0.559978 (Simulation time: 1 hr 14 min 34 sec) 
Heartbeat CPU 0 instructions: 136000000 cycles: 171640234 heartbeat IPC: 0.43112 cumulative IPC: 0.558038 (Simulation time: 1 hr 15 min 10 sec) 
Heartbeat CPU 0 instructions: 137000000 cycles: 173964621 heartbeat IPC: 0.430221 cumulative IPC: 0.556139 (Simulation time: 1 hr 15 min 46 sec) 
Heartbeat CPU 0 instructions: 138000000 cycles: 176279293 heartbeat IPC: 0.432027 cumulative IPC: 0.554329 (Simulation time: 1 hr 16 min 21 sec) 
Heartbeat CPU 0 instructions: 139000000 cycles: 178593817 heartbeat IPC: 0.432054 cumulative IPC: 0.552572 (Simulation time: 1 hr 17 min 1 sec) 
Heartbeat CPU 0 instructions: 140000000 cycles: 180900692 heartbeat IPC: 0.433487 cumulative IPC: 0.550891 (Simulation time: 1 hr 17 min 41 sec) 
Heartbeat CPU 0 instructions: 141000000 cycles: 183210805 heartbeat IPC: 0.432879 cumulative IPC: 0.549245 (Simulation time: 1 hr 18 min 15 sec) 
Heartbeat CPU 0 instructions: 142000000 cycles: 185522470 heartbeat IPC: 0.432589 cumulative IPC: 0.54764 (Simulation time: 1 hr 18 min 46 sec) 
Heartbeat CPU 0 instructions: 143000000 cycles: 187067182 heartbeat IPC: 0.64737 cumulative IPC: 0.548549 (Simulation time: 1 hr 19 min 15 sec) 
Heartbeat CPU 0 instructions: 144000000 cycles: 188789018 heartbeat IPC: 0.580775 cumulative IPC: 0.548873 (Simulation time: 1 hr 19 min 42 sec) 
Heartbeat CPU 0 instructions: 145000002 cycles: 190538361 heartbeat IPC: 0.571644 cumulative IPC: 0.549103 (Simulation time: 1 hr 20 min 9 sec) 
Heartbeat CPU 0 instructions: 146000001 cycles: 192285502 heartbeat IPC: 0.572363 cumulative IPC: 0.549336 (Simulation time: 1 hr 20 min 39 sec) 
Heartbeat CPU 0 instructions: 147000000 cycles: 194035134 heartbeat IPC: 0.571548 cumulative IPC: 0.549556 (Simulation time: 1 hr 21 min 8 sec) 
Heartbeat CPU 0 instructions: 148000000 cycles: 195785446 heartbeat IPC: 0.571327 cumulative IPC: 0.54977 (Simulation time: 1 hr 21 min 37 sec) 
Heartbeat CPU 0 instructions: 149000002 cycles: 197534506 heartbeat IPC: 0.571737 cumulative IPC: 0.549983 (Simulation time: 1 hr 22 min 2 sec) 
Heartbeat CPU 0 instructions: 150000000 cycles: 199283684 heartbeat IPC: 0.571696 cumulative IPC: 0.550192 (Simulation time: 1 hr 22 min 27 sec) 
Finished CPU 0 instructions: 100000001 cycles: 181754759 cummulative IPC: 0.550192 (Simulation time: 1 hr 22 min 27 sec) 

ChampSim completed all CPUs

Region of Interest Statistics

CPU 0 cummulative IPC: 0.550192 instructions: 100000001 cycles: 181754759
LLC TOTAL     ACCESS:    5216164  HIT:     347875  MISS:    4868289
LLC LOAD      ACCESS:    1223291  HIT:      83607  MISS:    1139684
LLC RFO       ACCESS:         28  HIT:         28  MISS:          0
LLC PREFETCH  ACCESS:    2243792  HIT:     130953  MISS:    2112839
LLC WRITEBACK ACCESS:    1749053  HIT:     133287  MISS:    1615766
OPTgen accesses: 20812
OPTgen hits: 148
OPTgen hit rate: 0.711128


