
*** ChampSim Multicore Out-of-Order Simulator ***

Warmup Instructions: 50000000
Simulation Instructions: 100000000
Configuration: 2
Number of CPUs: 1
LLC sets: 2048
LLC ways: 16
Off-chip DRAM Channels: 1 Width: 64-bit Data Rate: 1600 MT/s

CPU 0 runs /datasets/cs240c-wi22-a00-public/data/Assignment2-gz/lbm_94B.trace.gz
CPU 0 L1D next line prefetcher
CPU 0 L2C IP-based stride prefetcher
Initialize Hawkeye state
Heartbeat CPU 0 instructions: 1000000 cycles: 422068 heartbeat IPC: 2.36929 cumulative IPC: 2.36929 (Simulation time: 0 hr 0 min 40 sec) 
Heartbeat CPU 0 instructions: 2000000 cycles: 812399 heartbeat IPC: 2.56193 cumulative IPC: 2.46184 (Simulation time: 0 hr 1 min 12 sec) 
Heartbeat CPU 0 instructions: 3000000 cycles: 1211539 heartbeat IPC: 2.50539 cumulative IPC: 2.47619 (Simulation time: 0 hr 1 min 49 sec) 
Heartbeat CPU 0 instructions: 4000000 cycles: 1631527 heartbeat IPC: 2.38102 cumulative IPC: 2.45169 (Simulation time: 0 hr 2 min 26 sec) 
Heartbeat CPU 0 instructions: 5000001 cycles: 2021784 heartbeat IPC: 2.56242 cumulative IPC: 2.47306 (Simulation time: 0 hr 3 min 1 sec) 
Heartbeat CPU 0 instructions: 6000000 cycles: 2422460 heartbeat IPC: 2.49578 cumulative IPC: 2.47682 (Simulation time: 0 hr 3 min 38 sec) 
Heartbeat CPU 0 instructions: 7000001 cycles: 2840595 heartbeat IPC: 2.39157 cumulative IPC: 2.46427 (Simulation time: 0 hr 4 min 15 sec) 
Heartbeat CPU 0 instructions: 8000000 cycles: 3230807 heartbeat IPC: 2.56271 cumulative IPC: 2.47616 (Simulation time: 0 hr 4 min 50 sec) 
Heartbeat CPU 0 instructions: 9000003 cycles: 3631839 heartbeat IPC: 2.49357 cumulative IPC: 2.47808 (Simulation time: 0 hr 5 min 25 sec) 
Heartbeat CPU 0 instructions: 10000000 cycles: 4048411 heartbeat IPC: 2.40054 cumulative IPC: 2.4701 (Simulation time: 0 hr 5 min 59 sec) 
Heartbeat CPU 0 instructions: 11000003 cycles: 4438598 heartbeat IPC: 2.56288 cumulative IPC: 2.47826 (Simulation time: 0 hr 6 min 33 sec) 
Heartbeat CPU 0 instructions: 12000000 cycles: 4839151 heartbeat IPC: 2.49654 cumulative IPC: 2.47977 (Simulation time: 0 hr 7 min 7 sec) 
Heartbeat CPU 0 instructions: 13000000 cycles: 5254547 heartbeat IPC: 2.40734 cumulative IPC: 2.47405 (Simulation time: 0 hr 7 min 44 sec) 
Heartbeat CPU 0 instructions: 14000003 cycles: 5644800 heartbeat IPC: 2.56245 cumulative IPC: 2.48016 (Simulation time: 0 hr 8 min 18 sec) 
Heartbeat CPU 0 instructions: 15000001 cycles: 6045184 heartbeat IPC: 2.4976 cumulative IPC: 2.48131 (Simulation time: 0 hr 8 min 52 sec) 
Heartbeat CPU 0 instructions: 16000000 cycles: 6459578 heartbeat IPC: 2.41316 cumulative IPC: 2.47694 (Simulation time: 0 hr 9 min 27 sec) 
Heartbeat CPU 0 instructions: 17000001 cycles: 6849815 heartbeat IPC: 2.56255 cumulative IPC: 2.48182 (Simulation time: 0 hr 10 min 2 sec) 
Heartbeat CPU 0 instructions: 18000001 cycles: 7248676 heartbeat IPC: 2.50714 cumulative IPC: 2.48321 (Simulation time: 0 hr 10 min 36 sec) 
Heartbeat CPU 0 instructions: 19000000 cycles: 7663213 heartbeat IPC: 2.41233 cumulative IPC: 2.47938 (Simulation time: 0 hr 11 min 12 sec) 
Heartbeat CPU 0 instructions: 20000000 cycles: 8053482 heartbeat IPC: 2.56234 cumulative IPC: 2.4834 (Simulation time: 0 hr 11 min 46 sec) 
Heartbeat CPU 0 instructions: 21000003 cycles: 8451559 heartbeat IPC: 2.51208 cumulative IPC: 2.48475 (Simulation time: 0 hr 12 min 20 sec) 
Heartbeat CPU 0 instructions: 22000000 cycles: 8865741 heartbeat IPC: 2.41439 cumulative IPC: 2.48146 (Simulation time: 0 hr 12 min 56 sec) 
Heartbeat CPU 0 instructions: 23000000 cycles: 9255927 heartbeat IPC: 2.56288 cumulative IPC: 2.48489 (Simulation time: 0 hr 13 min 31 sec) 
Heartbeat CPU 0 instructions: 24000000 cycles: 9652008 heartbeat IPC: 2.52474 cumulative IPC: 2.48653 (Simulation time: 0 hr 14 min 5 sec) 
Heartbeat CPU 0 instructions: 25000000 cycles: 10065667 heartbeat IPC: 2.41745 cumulative IPC: 2.48369 (Simulation time: 0 hr 14 min 41 sec) 
Heartbeat CPU 0 instructions: 26000003 cycles: 10455921 heartbeat IPC: 2.56244 cumulative IPC: 2.48663 (Simulation time: 0 hr 15 min 16 sec) 
Heartbeat CPU 0 instructions: 27000002 cycles: 10850983 heartbeat IPC: 2.53125 cumulative IPC: 2.48825 (Simulation time: 0 hr 15 min 52 sec) 
Heartbeat CPU 0 instructions: 28000000 cycles: 11264428 heartbeat IPC: 2.4187 cumulative IPC: 2.4857 (Simulation time: 0 hr 16 min 27 sec) 
Heartbeat CPU 0 instructions: 29000000 cycles: 11654612 heartbeat IPC: 2.56289 cumulative IPC: 2.48829 (Simulation time: 0 hr 17 min 0 sec) 
Heartbeat CPU 0 instructions: 30000000 cycles: 12049666 heartbeat IPC: 2.5313 cumulative IPC: 2.4897 (Simulation time: 0 hr 17 min 35 sec) 
Heartbeat CPU 0 instructions: 31000003 cycles: 12460597 heartbeat IPC: 2.43351 cumulative IPC: 2.48784 (Simulation time: 0 hr 18 min 10 sec) 
Heartbeat CPU 0 instructions: 32000000 cycles: 12850878 heartbeat IPC: 2.56225 cumulative IPC: 2.4901 (Simulation time: 0 hr 18 min 45 sec) 
Heartbeat CPU 0 instructions: 33000002 cycles: 13246001 heartbeat IPC: 2.53086 cumulative IPC: 2.49132 (Simulation time: 0 hr 19 min 20 sec) 
Heartbeat CPU 0 instructions: 34000003 cycles: 13653533 heartbeat IPC: 2.4538 cumulative IPC: 2.4902 (Simulation time: 0 hr 19 min 54 sec) 
Heartbeat CPU 0 instructions: 35000002 cycles: 14045172 heartbeat IPC: 2.55337 cumulative IPC: 2.49196 (Simulation time: 0 hr 20 min 28 sec) 
Heartbeat CPU 0 instructions: 36000000 cycles: 14440184 heartbeat IPC: 2.53156 cumulative IPC: 2.49304 (Simulation time: 0 hr 21 min 2 sec) 
Heartbeat CPU 0 instructions: 37000003 cycles: 14842393 heartbeat IPC: 2.48628 cumulative IPC: 2.49286 (Simulation time: 0 hr 21 min 35 sec) 
Heartbeat CPU 0 instructions: 38000002 cycles: 15236911 heartbeat IPC: 2.53474 cumulative IPC: 2.49394 (Simulation time: 0 hr 22 min 10 sec) 
Heartbeat CPU 0 instructions: 39000000 cycles: 15627119 heartbeat IPC: 2.56273 cumulative IPC: 2.49566 (Simulation time: 0 hr 22 min 44 sec) 
Heartbeat CPU 0 instructions: 40000000 cycles: 16027441 heartbeat IPC: 2.49799 cumulative IPC: 2.49572 (Simulation time: 0 hr 23 min 18 sec) 
Heartbeat CPU 0 instructions: 41000003 cycles: 16426115 heartbeat IPC: 2.50832 cumulative IPC: 2.49603 (Simulation time: 0 hr 23 min 53 sec) 
Heartbeat CPU 0 instructions: 42000003 cycles: 16816361 heartbeat IPC: 2.56249 cumulative IPC: 2.49757 (Simulation time: 0 hr 24 min 27 sec) 
Heartbeat CPU 0 instructions: 43000003 cycles: 17211615 heartbeat IPC: 2.53002 cumulative IPC: 2.49831 (Simulation time: 0 hr 25 min 1 sec) 
Heartbeat CPU 0 instructions: 44000000 cycles: 17612579 heartbeat IPC: 2.49398 cumulative IPC: 2.49821 (Simulation time: 0 hr 25 min 35 sec) 
Heartbeat CPU 0 instructions: 45000002 cycles: 18002849 heartbeat IPC: 2.56233 cumulative IPC: 2.4996 (Simulation time: 0 hr 26 min 7 sec) 
Heartbeat CPU 0 instructions: 46000001 cycles: 18398001 heartbeat IPC: 2.53067 cumulative IPC: 2.50027 (Simulation time: 0 hr 26 min 41 sec) 
Heartbeat CPU 0 instructions: 47000003 cycles: 18796405 heartbeat IPC: 2.51002 cumulative IPC: 2.50048 (Simulation time: 0 hr 27 min 15 sec) 
Heartbeat CPU 0 instructions: 48000000 cycles: 19186551 heartbeat IPC: 2.56314 cumulative IPC: 2.50175 (Simulation time: 0 hr 27 min 48 sec) 
Heartbeat CPU 0 instructions: 49000000 cycles: 19581628 heartbeat IPC: 2.53115 cumulative IPC: 2.50235 (Simulation time: 0 hr 28 min 22 sec) 
Heartbeat CPU 0 instructions: 50000003 cycles: 19975939 heartbeat IPC: 2.53608 cumulative IPC: 2.50301 (Simulation time: 0 hr 28 min 56 sec) 

Warmup complete CPU 0 instructions: 50000003 cycles: 19975939 (Simulation time: 0 hr 28 min 56 sec) 

Heartbeat CPU 0 instructions: 51000003 cycles: 21422246 heartbeat IPC: 0.691416 cumulative IPC: 0.691416 (Simulation time: 0 hr 29 min 36 sec) 
Heartbeat CPU 0 instructions: 52000000 cycles: 22859674 heartbeat IPC: 0.695685 cumulative IPC: 0.693544 (Simulation time: 0 hr 30 min 18 sec) 
Heartbeat CPU 0 instructions: 53000001 cycles: 24318575 heartbeat IPC: 0.685448 cumulative IPC: 0.690824 (Simulation time: 0 hr 31 min 0 sec) 
Heartbeat CPU 0 instructions: 54000000 cycles: 25727385 heartbeat IPC: 0.709818 cumulative IPC: 0.695477 (Simulation time: 0 hr 31 min 41 sec) 
Heartbeat CPU 0 instructions: 55000003 cycles: 27098289 heartbeat IPC: 0.729448 cumulative IPC: 0.702015 (Simulation time: 0 hr 32 min 18 sec) 
Heartbeat CPU 0 instructions: 56000000 cycles: 28619625 heartbeat IPC: 0.657315 cumulative IPC: 0.694148 (Simulation time: 0 hr 32 min 57 sec) 
Heartbeat CPU 0 instructions: 57000003 cycles: 30061376 heartbeat IPC: 0.693603 cumulative IPC: 0.69407 (Simulation time: 0 hr 33 min 37 sec) 
Heartbeat CPU 0 instructions: 58000003 cycles: 31511145 heartbeat IPC: 0.689765 cumulative IPC: 0.693529 (Simulation time: 0 hr 34 min 17 sec) 
Heartbeat CPU 0 instructions: 59000002 cycles: 32970402 heartbeat IPC: 0.68528 cumulative IPC: 0.692603 (Simulation time: 0 hr 34 min 58 sec) 
Heartbeat CPU 0 instructions: 60000000 cycles: 34310960 heartbeat IPC: 0.745957 cumulative IPC: 0.697592 (Simulation time: 0 hr 35 min 37 sec) 
Heartbeat CPU 0 instructions: 61000000 cycles: 35695263 heartbeat IPC: 0.722385 cumulative IPC: 0.699775 (Simulation time: 0 hr 36 min 20 sec) 
Heartbeat CPU 0 instructions: 62000000 cycles: 37128849 heartbeat IPC: 0.697551 cumulative IPC: 0.69959 (Simulation time: 0 hr 37 min 1 sec) 
Heartbeat CPU 0 instructions: 63000001 cycles: 38639706 heartbeat IPC: 0.661877 cumulative IPC: 0.696537 (Simulation time: 0 hr 37 min 44 sec) 
Heartbeat CPU 0 instructions: 64000000 cycles: 40076688 heartbeat IPC: 0.695902 cumulative IPC: 0.696491 (Simulation time: 0 hr 38 min 23 sec) 
Heartbeat CPU 0 instructions: 65000003 cycles: 41537826 heartbeat IPC: 0.6844 cumulative IPC: 0.695672 (Simulation time: 0 hr 39 min 5 sec) 
Heartbeat CPU 0 instructions: 66000002 cycles: 42988162 heartbeat IPC: 0.689495 cumulative IPC: 0.695283 (Simulation time: 0 hr 39 min 45 sec) 
Heartbeat CPU 0 instructions: 67000002 cycles: 44352830 heartbeat IPC: 0.732779 cumulative IPC: 0.697382 (Simulation time: 0 hr 40 min 25 sec) 
Heartbeat CPU 0 instructions: 68000000 cycles: 45766661 heartbeat IPC: 0.707297 cumulative IPC: 0.697925 (Simulation time: 0 hr 41 min 4 sec) 
Heartbeat CPU 0 instructions: 69000000 cycles: 47212816 heartbeat IPC: 0.691489 cumulative IPC: 0.697584 (Simulation time: 0 hr 41 min 45 sec) 
Heartbeat CPU 0 instructions: 70000001 cycles: 48650189 heartbeat IPC: 0.695714 cumulative IPC: 0.69749 (Simulation time: 0 hr 42 min 24 sec) 
Heartbeat CPU 0 instructions: 71000001 cycles: 50054673 heartbeat IPC: 0.712005 cumulative IPC: 0.698168 (Simulation time: 0 hr 43 min 5 sec) 
Heartbeat CPU 0 instructions: 72000000 cycles: 51490630 heartbeat IPC: 0.696399 cumulative IPC: 0.698087 (Simulation time: 0 hr 43 min 47 sec) 
Heartbeat CPU 0 instructions: 73000001 cycles: 53001082 heartbeat IPC: 0.662054 cumulative IPC: 0.696439 (Simulation time: 0 hr 44 min 27 sec) 
Heartbeat CPU 0 instructions: 74000001 cycles: 54438487 heartbeat IPC: 0.695698 cumulative IPC: 0.696408 (Simulation time: 0 hr 45 min 9 sec) 
Heartbeat CPU 0 instructions: 75000000 cycles: 55784522 heartbeat IPC: 0.742922 cumulative IPC: 0.698157 (Simulation time: 0 hr 45 min 51 sec) 
Heartbeat CPU 0 instructions: 76000000 cycles: 57226651 heartbeat IPC: 0.693419 cumulative IPC: 0.697973 (Simulation time: 0 hr 46 min 32 sec) 
Heartbeat CPU 0 instructions: 77000002 cycles: 58643990 heartbeat IPC: 0.705549 cumulative IPC: 0.698251 (Simulation time: 0 hr 47 min 13 sec) 
Heartbeat CPU 0 instructions: 78000003 cycles: 60056249 heartbeat IPC: 0.708086 cumulative IPC: 0.698597 (Simulation time: 0 hr 47 min 54 sec) 
Heartbeat CPU 0 instructions: 79000000 cycles: 61486956 heartbeat IPC: 0.698953 cumulative IPC: 0.69861 (Simulation time: 0 hr 48 min 36 sec) 
Heartbeat CPU 0 instructions: 80000000 cycles: 62947931 heartbeat IPC: 0.684474 cumulative IPC: 0.698129 (Simulation time: 0 hr 49 min 20 sec) 
Heartbeat CPU 0 instructions: 81000000 cycles: 64380172 heartbeat IPC: 0.698207 cumulative IPC: 0.698132 (Simulation time: 0 hr 50 min 1 sec) 
Heartbeat CPU 0 instructions: 82000000 cycles: 65841638 heartbeat IPC: 0.684244 cumulative IPC: 0.697689 (Simulation time: 0 hr 50 min 42 sec) 
Heartbeat CPU 0 instructions: 83000003 cycles: 67358276 heartbeat IPC: 0.659355 cumulative IPC: 0.696462 (Simulation time: 0 hr 51 min 25 sec) 
Heartbeat CPU 0 instructions: 84000000 cycles: 68712405 heartbeat IPC: 0.73848 cumulative IPC: 0.69763 (Simulation time: 0 hr 52 min 6 sec) 
Heartbeat CPU 0 instructions: 85000001 cycles: 70058894 heartbeat IPC: 0.742673 cumulative IPC: 0.69884 (Simulation time: 0 hr 52 min 44 sec) 
Heartbeat CPU 0 instructions: 86000003 cycles: 71561974 heartbeat IPC: 0.665302 cumulative IPC: 0.697863 (Simulation time: 0 hr 53 min 25 sec) 
Heartbeat CPU 0 instructions: 87000000 cycles: 72988293 heartbeat IPC: 0.701103 cumulative IPC: 0.69795 (Simulation time: 0 hr 54 min 5 sec) 
Heartbeat CPU 0 instructions: 88000000 cycles: 74383248 heartbeat IPC: 0.716869 cumulative IPC: 0.698436 (Simulation time: 0 hr 54 min 44 sec) 
Heartbeat CPU 0 instructions: 89000003 cycles: 75768670 heartbeat IPC: 0.721804 cumulative IPC: 0.699016 (Simulation time: 0 hr 55 min 21 sec) 
Heartbeat CPU 0 instructions: 90000003 cycles: 77252545 heartbeat IPC: 0.673911 cumulative IPC: 0.698365 (Simulation time: 0 hr 56 min 0 sec) 
Heartbeat CPU 0 instructions: 91000002 cycles: 78703141 heartbeat IPC: 0.689371 cumulative IPC: 0.698143 (Simulation time: 0 hr 56 min 41 sec) 
Heartbeat CPU 0 instructions: 92000000 cycles: 80127875 heartbeat IPC: 0.701884 cumulative IPC: 0.698232 (Simulation time: 0 hr 57 min 22 sec) 
Heartbeat CPU 0 instructions: 93000003 cycles: 81583325 heartbeat IPC: 0.687075 cumulative IPC: 0.697968 (Simulation time: 0 hr 58 min 4 sec) 
Heartbeat CPU 0 instructions: 94000001 cycles: 82965996 heartbeat IPC: 0.723236 cumulative IPC: 0.698523 (Simulation time: 0 hr 58 min 45 sec) 
Heartbeat CPU 0 instructions: 95000001 cycles: 84328989 heartbeat IPC: 0.733679 cumulative IPC: 0.699268 (Simulation time: 0 hr 59 min 20 sec) 
Heartbeat CPU 0 instructions: 96000000 cycles: 85670802 heartbeat IPC: 0.74526 cumulative IPC: 0.700207 (Simulation time: 1 hr 0 min 0 sec) 
Heartbeat CPU 0 instructions: 97000000 cycles: 87140151 heartbeat IPC: 0.680574 cumulative IPC: 0.699777 (Simulation time: 1 hr 0 min 42 sec) 
Heartbeat CPU 0 instructions: 98000002 cycles: 88594625 heartbeat IPC: 0.687535 cumulative IPC: 0.699518 (Simulation time: 1 hr 1 min 22 sec) 
Heartbeat CPU 0 instructions: 99000001 cycles: 90031239 heartbeat IPC: 0.696081 cumulative IPC: 0.699447 (Simulation time: 1 hr 2 min 5 sec) 
Heartbeat CPU 0 instructions: 100000000 cycles: 91449275 heartbeat IPC: 0.7052 cumulative IPC: 0.699562 (Simulation time: 1 hr 2 min 40 sec) 
Heartbeat CPU 0 instructions: 101000003 cycles: 92880367 heartbeat IPC: 0.698769 cumulative IPC: 0.699546 (Simulation time: 1 hr 3 min 18 sec) 
Heartbeat CPU 0 instructions: 102000002 cycles: 94329480 heartbeat IPC: 0.690077 cumulative IPC: 0.699361 (Simulation time: 1 hr 3 min 56 sec) 
Heartbeat CPU 0 instructions: 103000000 cycles: 95840223 heartbeat IPC: 0.661925 cumulative IPC: 0.698616 (Simulation time: 1 hr 4 min 33 sec) 
Heartbeat CPU 0 instructions: 104000000 cycles: 97294043 heartbeat IPC: 0.687843 cumulative IPC: 0.698413 (Simulation time: 1 hr 5 min 12 sec) 
Heartbeat CPU 0 instructions: 105000002 cycles: 98692696 heartbeat IPC: 0.714975 cumulative IPC: 0.698708 (Simulation time: 1 hr 5 min 49 sec) 
Heartbeat CPU 0 instructions: 106000001 cycles: 100022410 heartbeat IPC: 0.752041 cumulative IPC: 0.699594 (Simulation time: 1 hr 6 min 20 sec) 
Heartbeat CPU 0 instructions: 107000000 cycles: 101459891 heartbeat IPC: 0.695661 cumulative IPC: 0.699524 (Simulation time: 1 hr 6 min 54 sec) 
Heartbeat CPU 0 instructions: 108000000 cycles: 102921528 heartbeat IPC: 0.684164 cumulative IPC: 0.699254 (Simulation time: 1 hr 7 min 22 sec) 
Heartbeat CPU 0 instructions: 109000002 cycles: 104387549 heartbeat IPC: 0.68212 cumulative IPC: 0.698956 (Simulation time: 1 hr 7 min 53 sec) 
Heartbeat CPU 0 instructions: 110000000 cycles: 105865009 heartbeat IPC: 0.676836 cumulative IPC: 0.698575 (Simulation time: 1 hr 8 min 28 sec) 
Heartbeat CPU 0 instructions: 111000003 cycles: 107270895 heartbeat IPC: 0.711297 cumulative IPC: 0.69878 (Simulation time: 1 hr 8 min 59 sec) 
Heartbeat CPU 0 instructions: 112000000 cycles: 108683897 heartbeat IPC: 0.707711 cumulative IPC: 0.698923 (Simulation time: 1 hr 9 min 33 sec) 
Heartbeat CPU 0 instructions: 113000001 cycles: 110117999 heartbeat IPC: 0.697301 cumulative IPC: 0.698897 (Simulation time: 1 hr 10 min 7 sec) 
Heartbeat CPU 0 instructions: 114000003 cycles: 111530045 heartbeat IPC: 0.708194 cumulative IPC: 0.69904 (Simulation time: 1 hr 10 min 42 sec) 
Heartbeat CPU 0 instructions: 115000003 cycles: 112991131 heartbeat IPC: 0.684422 cumulative IPC: 0.698811 (Simulation time: 1 hr 11 min 15 sec) 
Heartbeat CPU 0 instructions: 116000000 cycles: 114378390 heartbeat IPC: 0.720844 cumulative IPC: 0.699134 (Simulation time: 1 hr 11 min 47 sec) 
Heartbeat CPU 0 instructions: 117000003 cycles: 115817137 heartbeat IPC: 0.695051 cumulative IPC: 0.699073 (Simulation time: 1 hr 12 min 27 sec) 
Heartbeat CPU 0 instructions: 118000003 cycles: 117216192 heartbeat IPC: 0.714768 cumulative IPC: 0.699299 (Simulation time: 1 hr 13 min 0 sec) 
Heartbeat CPU 0 instructions: 119000000 cycles: 118648845 heartbeat IPC: 0.698004 cumulative IPC: 0.69928 (Simulation time: 1 hr 13 min 34 sec) 
Heartbeat CPU 0 instructions: 120000000 cycles: 120112158 heartbeat IPC: 0.683381 cumulative IPC: 0.699048 (Simulation time: 1 hr 14 min 6 sec) 
Heartbeat CPU 0 instructions: 121000002 cycles: 121484107 heartbeat IPC: 0.728892 cumulative IPC: 0.699451 (Simulation time: 1 hr 14 min 37 sec) 
Heartbeat CPU 0 instructions: 122000003 cycles: 122881251 heartbeat IPC: 0.715747 cumulative IPC: 0.699672 (Simulation time: 1 hr 15 min 10 sec) 
Heartbeat CPU 0 instructions: 123000002 cycles: 124310649 heartbeat IPC: 0.699594 cumulative IPC: 0.699671 (Simulation time: 1 hr 15 min 39 sec) 
Heartbeat CPU 0 instructions: 124000000 cycles: 125795164 heartbeat IPC: 0.673619 cumulative IPC: 0.699306 (Simulation time: 1 hr 16 min 11 sec) 
Heartbeat CPU 0 instructions: 125000001 cycles: 127208544 heartbeat IPC: 0.707525 cumulative IPC: 0.699414 (Simulation time: 1 hr 16 min 42 sec) 
Heartbeat CPU 0 instructions: 126000003 cycles: 128633391 heartbeat IPC: 0.701831 cumulative IPC: 0.699446 (Simulation time: 1 hr 17 min 14 sec) 
Heartbeat CPU 0 instructions: 127000002 cycles: 130118337 heartbeat IPC: 0.673424 cumulative IPC: 0.699095 (Simulation time: 1 hr 17 min 47 sec) 
Heartbeat CPU 0 instructions: 128000000 cycles: 131519748 heartbeat IPC: 0.713565 cumulative IPC: 0.699277 (Simulation time: 1 hr 18 min 20 sec) 
Heartbeat CPU 0 instructions: 129000003 cycles: 132896354 heartbeat IPC: 0.726426 cumulative IPC: 0.699608 (Simulation time: 1 hr 18 min 52 sec) 
Heartbeat CPU 0 instructions: 130000000 cycles: 134301508 heartbeat IPC: 0.711664 cumulative IPC: 0.699756 (Simulation time: 1 hr 19 min 24 sec) 
Heartbeat CPU 0 instructions: 131000001 cycles: 135693566 heartbeat IPC: 0.718362 cumulative IPC: 0.69998 (Simulation time: 1 hr 19 min 54 sec) 
Heartbeat CPU 0 instructions: 132000000 cycles: 137071442 heartbeat IPC: 0.725754 cumulative IPC: 0.700283 (Simulation time: 1 hr 20 min 25 sec) 
Heartbeat CPU 0 instructions: 133000003 cycles: 138431276 heartbeat IPC: 0.735386 cumulative IPC: 0.700686 (Simulation time: 1 hr 20 min 56 sec) 
Heartbeat CPU 0 instructions: 134000001 cycles: 139867678 heartbeat IPC: 0.696183 cumulative IPC: 0.700632 (Simulation time: 1 hr 21 min 30 sec) 
Heartbeat CPU 0 instructions: 135000000 cycles: 141271745 heartbeat IPC: 0.712216 cumulative IPC: 0.700766 (Simulation time: 1 hr 22 min 4 sec) 
Heartbeat CPU 0 instructions: 136000000 cycles: 142721313 heartbeat IPC: 0.689861 cumulative IPC: 0.700637 (Simulation time: 1 hr 22 min 35 sec) 
Heartbeat CPU 0 instructions: 137000002 cycles: 144198426 heartbeat IPC: 0.676998 cumulative IPC: 0.700356 (Simulation time: 1 hr 23 min 5 sec) 
Heartbeat CPU 0 instructions: 138000001 cycles: 145620566 heartbeat IPC: 0.703165 cumulative IPC: 0.700388 (Simulation time: 1 hr 23 min 32 sec) 
Heartbeat CPU 0 instructions: 139000000 cycles: 147014977 heartbeat IPC: 0.717148 cumulative IPC: 0.700572 (Simulation time: 1 hr 23 min 58 sec) 
Heartbeat CPU 0 instructions: 140000000 cycles: 148434978 heartbeat IPC: 0.704225 cumulative IPC: 0.700612 (Simulation time: 1 hr 24 min 21 sec) 
Heartbeat CPU 0 instructions: 141000001 cycles: 149885614 heartbeat IPC: 0.689354 cumulative IPC: 0.700487 (Simulation time: 1 hr 24 min 43 sec) 
Heartbeat CPU 0 instructions: 142000003 cycles: 151297008 heartbeat IPC: 0.708521 cumulative IPC: 0.700573 (Simulation time: 1 hr 25 min 7 sec) 
Heartbeat CPU 0 instructions: 143000003 cycles: 152776468 heartbeat IPC: 0.675922 cumulative IPC: 0.700298 (Simulation time: 1 hr 25 min 30 sec) 
Heartbeat CPU 0 instructions: 144000000 cycles: 154298040 heartbeat IPC: 0.657213 cumulative IPC: 0.69981 (Simulation time: 1 hr 25 min 54 sec) 
Heartbeat CPU 0 instructions: 145000002 cycles: 155733509 heartbeat IPC: 0.696638 cumulative IPC: 0.699777 (Simulation time: 1 hr 26 min 17 sec) 
Heartbeat CPU 0 instructions: 146000000 cycles: 157191474 heartbeat IPC: 0.685886 cumulative IPC: 0.699629 (Simulation time: 1 hr 26 min 40 sec) 
Heartbeat CPU 0 instructions: 147000000 cycles: 158632805 heartbeat IPC: 0.693803 cumulative IPC: 0.699569 (Simulation time: 1 hr 27 min 4 sec) 
Heartbeat CPU 0 instructions: 148000000 cycles: 160048203 heartbeat IPC: 0.706515 cumulative IPC: 0.699639 (Simulation time: 1 hr 27 min 26 sec) 
Heartbeat CPU 0 instructions: 149000001 cycles: 161454709 heartbeat IPC: 0.710982 cumulative IPC: 0.699752 (Simulation time: 1 hr 27 min 49 sec) 
Heartbeat CPU 0 instructions: 150000003 cycles: 162839975 heartbeat IPC: 0.721884 cumulative IPC: 0.699966 (Simulation time: 1 hr 28 min 14 sec) 
Finished CPU 0 instructions: 100000000 cycles: 142864036 cummulative IPC: 0.699966 (Simulation time: 1 hr 28 min 14 sec) 

ChampSim completed all CPUs

Region of Interest Statistics

CPU 0 cummulative IPC: 0.699966 instructions: 100000000 cycles: 142864036
LLC TOTAL     ACCESS:    5314156  HIT:    1715636  MISS:    3598520
LLC LOAD      ACCESS:     372811  HIT:      14403  MISS:     358408
LLC RFO       ACCESS:    2270818  HIT:     608471  MISS:    1662347
LLC PREFETCH  ACCESS:     399764  HIT:      18382  MISS:     381382
LLC WRITEBACK ACCESS:    2270763  HIT:    1074380  MISS:    1196383
OPTgen accesses: 63492
OPTgen hits: 20877
OPTgen hit rate: 32.8813


