
*** ChampSim Multicore Out-of-Order Simulator ***

Warmup Instructions: 50000000
Simulation Instructions: 100000000
Configuration: 2
Number of CPUs: 1
LLC sets: 2048
LLC ways: 16
Off-chip DRAM Channels: 1 Width: 64-bit Data Rate: 1600 MT/s

CPU 0 runs /datasets/cs240c-wi22-a00-public/data/Assignment2-gz/milc_409B.trace.gz
CPU 0 L1D next line prefetcher
CPU 0 L2C IP-based stride prefetcher
Initialize Hawkeye state
Heartbeat CPU 0 instructions: 1000002 cycles: 407040 heartbeat IPC: 2.45677 cumulative IPC: 2.45677 (Simulation time: 0 hr 0 min 37 sec) 
Heartbeat CPU 0 instructions: 2000002 cycles: 889868 heartbeat IPC: 2.07113 cumulative IPC: 2.24753 (Simulation time: 0 hr 1 min 16 sec) 
Heartbeat CPU 0 instructions: 3000003 cycles: 1672035 heartbeat IPC: 1.2785 cumulative IPC: 1.79422 (Simulation time: 0 hr 2 min 10 sec) 
Heartbeat CPU 0 instructions: 4000000 cycles: 2454292 heartbeat IPC: 1.27835 cumulative IPC: 1.6298 (Simulation time: 0 hr 2 min 59 sec) 
Heartbeat CPU 0 instructions: 5000000 cycles: 3135412 heartbeat IPC: 1.46817 cumulative IPC: 1.59469 (Simulation time: 0 hr 3 min 48 sec) 
Heartbeat CPU 0 instructions: 6000003 cycles: 3679804 heartbeat IPC: 1.83692 cumulative IPC: 1.63052 (Simulation time: 0 hr 4 min 29 sec) 
Heartbeat CPU 0 instructions: 7000002 cycles: 4224110 heartbeat IPC: 1.8372 cumulative IPC: 1.65715 (Simulation time: 0 hr 5 min 8 sec) 
Heartbeat CPU 0 instructions: 8000000 cycles: 4768518 heartbeat IPC: 1.83685 cumulative IPC: 1.67767 (Simulation time: 0 hr 5 min 48 sec) 
Heartbeat CPU 0 instructions: 9000003 cycles: 5312844 heartbeat IPC: 1.83714 cumulative IPC: 1.69401 (Simulation time: 0 hr 6 min 27 sec) 
Heartbeat CPU 0 instructions: 10000000 cycles: 5857232 heartbeat IPC: 1.83692 cumulative IPC: 1.70729 (Simulation time: 0 hr 7 min 7 sec) 
Heartbeat CPU 0 instructions: 11000002 cycles: 6401582 heartbeat IPC: 1.83706 cumulative IPC: 1.71833 (Simulation time: 0 hr 7 min 45 sec) 
Heartbeat CPU 0 instructions: 12000000 cycles: 6945917 heartbeat IPC: 1.8371 cumulative IPC: 1.72763 (Simulation time: 0 hr 8 min 26 sec) 
Heartbeat CPU 0 instructions: 13000000 cycles: 7490305 heartbeat IPC: 1.83693 cumulative IPC: 1.73558 (Simulation time: 0 hr 9 min 5 sec) 
Heartbeat CPU 0 instructions: 14000002 cycles: 8034670 heartbeat IPC: 1.83701 cumulative IPC: 1.74245 (Simulation time: 0 hr 9 min 45 sec) 
Heartbeat CPU 0 instructions: 15000001 cycles: 8578997 heartbeat IPC: 1.83713 cumulative IPC: 1.74846 (Simulation time: 0 hr 10 min 24 sec) 
Heartbeat CPU 0 instructions: 16000000 cycles: 9123371 heartbeat IPC: 1.83697 cumulative IPC: 1.75374 (Simulation time: 0 hr 11 min 4 sec) 
Heartbeat CPU 0 instructions: 17000002 cycles: 9667737 heartbeat IPC: 1.837 cumulative IPC: 1.75843 (Simulation time: 0 hr 11 min 44 sec) 
Heartbeat CPU 0 instructions: 18000000 cycles: 10212107 heartbeat IPC: 1.83698 cumulative IPC: 1.76261 (Simulation time: 0 hr 12 min 26 sec) 
Heartbeat CPU 0 instructions: 19000003 cycles: 10756427 heartbeat IPC: 1.83716 cumulative IPC: 1.76639 (Simulation time: 0 hr 13 min 10 sec) 
Heartbeat CPU 0 instructions: 20000000 cycles: 11300831 heartbeat IPC: 1.83687 cumulative IPC: 1.76978 (Simulation time: 0 hr 13 min 54 sec) 
Heartbeat CPU 0 instructions: 21000001 cycles: 11845161 heartbeat IPC: 1.83712 cumulative IPC: 1.77288 (Simulation time: 0 hr 14 min 34 sec) 
Heartbeat CPU 0 instructions: 22000003 cycles: 12389528 heartbeat IPC: 1.837 cumulative IPC: 1.77569 (Simulation time: 0 hr 15 min 16 sec) 
Heartbeat CPU 0 instructions: 23000002 cycles: 12933913 heartbeat IPC: 1.83693 cumulative IPC: 1.77827 (Simulation time: 0 hr 15 min 55 sec) 
Heartbeat CPU 0 instructions: 24000000 cycles: 13478220 heartbeat IPC: 1.83719 cumulative IPC: 1.78065 (Simulation time: 0 hr 16 min 34 sec) 
Heartbeat CPU 0 instructions: 25000000 cycles: 14022616 heartbeat IPC: 1.8369 cumulative IPC: 1.78283 (Simulation time: 0 hr 17 min 14 sec) 
Heartbeat CPU 0 instructions: 26000000 cycles: 14566990 heartbeat IPC: 1.83697 cumulative IPC: 1.78486 (Simulation time: 0 hr 17 min 53 sec) 
Heartbeat CPU 0 instructions: 27000002 cycles: 15111312 heartbeat IPC: 1.83715 cumulative IPC: 1.78674 (Simulation time: 0 hr 18 min 34 sec) 
Heartbeat CPU 0 instructions: 28000000 cycles: 15655447 heartbeat IPC: 1.83778 cumulative IPC: 1.78851 (Simulation time: 0 hr 19 min 14 sec) 
Heartbeat CPU 0 instructions: 29000000 cycles: 16196637 heartbeat IPC: 1.84778 cumulative IPC: 1.7905 (Simulation time: 0 hr 19 min 56 sec) 
Heartbeat CPU 0 instructions: 30000000 cycles: 16737802 heartbeat IPC: 1.84787 cumulative IPC: 1.79235 (Simulation time: 0 hr 20 min 38 sec) 
Heartbeat CPU 0 instructions: 31000003 cycles: 17278973 heartbeat IPC: 1.84785 cumulative IPC: 1.79409 (Simulation time: 0 hr 21 min 19 sec) 
Heartbeat CPU 0 instructions: 32000000 cycles: 17820133 heartbeat IPC: 1.84788 cumulative IPC: 1.79572 (Simulation time: 0 hr 21 min 58 sec) 
Heartbeat CPU 0 instructions: 33000000 cycles: 18361311 heartbeat IPC: 1.84782 cumulative IPC: 1.79726 (Simulation time: 0 hr 22 min 38 sec) 
Heartbeat CPU 0 instructions: 34000000 cycles: 18902453 heartbeat IPC: 1.84794 cumulative IPC: 1.79871 (Simulation time: 0 hr 23 min 19 sec) 
Heartbeat CPU 0 instructions: 35000000 cycles: 19443596 heartbeat IPC: 1.84794 cumulative IPC: 1.80008 (Simulation time: 0 hr 24 min 1 sec) 
Heartbeat CPU 0 instructions: 36000000 cycles: 19984730 heartbeat IPC: 1.84797 cumulative IPC: 1.80138 (Simulation time: 0 hr 24 min 43 sec) 
Heartbeat CPU 0 instructions: 37000000 cycles: 20525942 heartbeat IPC: 1.8477 cumulative IPC: 1.8026 (Simulation time: 0 hr 25 min 24 sec) 
Heartbeat CPU 0 instructions: 38000001 cycles: 21067089 heartbeat IPC: 1.84793 cumulative IPC: 1.80376 (Simulation time: 0 hr 26 min 7 sec) 
Heartbeat CPU 0 instructions: 39000001 cycles: 21608245 heartbeat IPC: 1.8479 cumulative IPC: 1.80487 (Simulation time: 0 hr 26 min 48 sec) 
Heartbeat CPU 0 instructions: 40000000 cycles: 22149433 heartbeat IPC: 1.84778 cumulative IPC: 1.80592 (Simulation time: 0 hr 27 min 30 sec) 
Heartbeat CPU 0 instructions: 41000002 cycles: 22690598 heartbeat IPC: 1.84787 cumulative IPC: 1.80692 (Simulation time: 0 hr 28 min 11 sec) 
Heartbeat CPU 0 instructions: 42000001 cycles: 23231759 heartbeat IPC: 1.84788 cumulative IPC: 1.80787 (Simulation time: 0 hr 28 min 53 sec) 
Heartbeat CPU 0 instructions: 43000000 cycles: 23772902 heartbeat IPC: 1.84794 cumulative IPC: 1.80878 (Simulation time: 0 hr 29 min 35 sec) 
Heartbeat CPU 0 instructions: 44000000 cycles: 24314028 heartbeat IPC: 1.848 cumulative IPC: 1.80965 (Simulation time: 0 hr 30 min 17 sec) 
Heartbeat CPU 0 instructions: 45000001 cycles: 24855217 heartbeat IPC: 1.84779 cumulative IPC: 1.81049 (Simulation time: 0 hr 30 min 58 sec) 
Heartbeat CPU 0 instructions: 46000000 cycles: 25396380 heartbeat IPC: 1.84787 cumulative IPC: 1.81128 (Simulation time: 0 hr 31 min 38 sec) 
Heartbeat CPU 0 instructions: 47000002 cycles: 25937547 heartbeat IPC: 1.84786 cumulative IPC: 1.81204 (Simulation time: 0 hr 32 min 18 sec) 
Heartbeat CPU 0 instructions: 48000000 cycles: 26478711 heartbeat IPC: 1.84786 cumulative IPC: 1.81278 (Simulation time: 0 hr 32 min 57 sec) 
Heartbeat CPU 0 instructions: 49000002 cycles: 27019890 heartbeat IPC: 1.84782 cumulative IPC: 1.81348 (Simulation time: 0 hr 33 min 35 sec) 
Heartbeat CPU 0 instructions: 50000001 cycles: 27561033 heartbeat IPC: 1.84794 cumulative IPC: 1.81416 (Simulation time: 0 hr 34 min 16 sec) 

Warmup complete CPU 0 instructions: 50000001 cycles: 27561033 (Simulation time: 0 hr 34 min 16 sec) 

Heartbeat CPU 0 instructions: 51000002 cycles: 29219956 heartbeat IPC: 0.602801 cumulative IPC: 0.602801 (Simulation time: 0 hr 35 min 2 sec) 
Heartbeat CPU 0 instructions: 52000000 cycles: 31060806 heartbeat IPC: 0.543226 cumulative IPC: 0.571465 (Simulation time: 0 hr 35 min 50 sec) 
Heartbeat CPU 0 instructions: 53000001 cycles: 33046700 heartbeat IPC: 0.503552 cumulative IPC: 0.54688 (Simulation time: 0 hr 36 min 41 sec) 
Heartbeat CPU 0 instructions: 54000001 cycles: 35144565 heartbeat IPC: 0.476675 cumulative IPC: 0.527459 (Simulation time: 0 hr 37 min 31 sec) 
Heartbeat CPU 0 instructions: 55000002 cycles: 37449544 heartbeat IPC: 0.433844 cumulative IPC: 0.505637 (Simulation time: 0 hr 38 min 22 sec) 
Heartbeat CPU 0 instructions: 56000000 cycles: 39785341 heartbeat IPC: 0.428119 cumulative IPC: 0.490825 (Simulation time: 0 hr 39 min 15 sec) 
Heartbeat CPU 0 instructions: 57000000 cycles: 42139096 heartbeat IPC: 0.424853 cumulative IPC: 0.480173 (Simulation time: 0 hr 40 min 10 sec) 
Heartbeat CPU 0 instructions: 58000001 cycles: 44431596 heartbeat IPC: 0.436205 cumulative IPC: 0.474199 (Simulation time: 0 hr 41 min 1 sec) 
Heartbeat CPU 0 instructions: 59000001 cycles: 46235892 heartbeat IPC: 0.554233 cumulative IPC: 0.481931 (Simulation time: 0 hr 41 min 46 sec) 
Heartbeat CPU 0 instructions: 60000000 cycles: 47902525 heartbeat IPC: 0.600012 cumulative IPC: 0.491606 (Simulation time: 0 hr 42 min 29 sec) 
Heartbeat CPU 0 instructions: 61000000 cycles: 49565821 heartbeat IPC: 0.601216 cumulative IPC: 0.499891 (Simulation time: 0 hr 43 min 13 sec) 
Heartbeat CPU 0 instructions: 62000000 cycles: 51230083 heartbeat IPC: 0.600867 cumulative IPC: 0.506991 (Simulation time: 0 hr 43 min 59 sec) 
Heartbeat CPU 0 instructions: 63000003 cycles: 52894083 heartbeat IPC: 0.600963 cumulative IPC: 0.513164 (Simulation time: 0 hr 44 min 43 sec) 
Heartbeat CPU 0 instructions: 64000000 cycles: 54557771 heartbeat IPC: 0.601072 cumulative IPC: 0.518581 (Simulation time: 0 hr 45 min 27 sec) 
Heartbeat CPU 0 instructions: 65000002 cycles: 56230395 heartbeat IPC: 0.597864 cumulative IPC: 0.523207 (Simulation time: 0 hr 46 min 15 sec) 
Heartbeat CPU 0 instructions: 66000002 cycles: 57894796 heartbeat IPC: 0.600817 cumulative IPC: 0.527465 (Simulation time: 0 hr 47 min 1 sec) 
Heartbeat CPU 0 instructions: 67000001 cycles: 59564238 heartbeat IPC: 0.599002 cumulative IPC: 0.531197 (Simulation time: 0 hr 47 min 46 sec) 
Heartbeat CPU 0 instructions: 68000000 cycles: 61232070 heartbeat IPC: 0.59958 cumulative IPC: 0.534584 (Simulation time: 0 hr 48 min 32 sec) 
Heartbeat CPU 0 instructions: 69000000 cycles: 62897185 heartbeat IPC: 0.600559 cumulative IPC: 0.537693 (Simulation time: 0 hr 49 min 16 sec) 
Heartbeat CPU 0 instructions: 70000000 cycles: 64567954 heartbeat IPC: 0.598527 cumulative IPC: 0.540439 (Simulation time: 0 hr 50 min 2 sec) 
Heartbeat CPU 0 instructions: 71000002 cycles: 66236799 heartbeat IPC: 0.599218 cumulative IPC: 0.542976 (Simulation time: 0 hr 50 min 46 sec) 
Heartbeat CPU 0 instructions: 72000000 cycles: 67903469 heartbeat IPC: 0.599998 cumulative IPC: 0.545331 (Simulation time: 0 hr 51 min 31 sec) 
Heartbeat CPU 0 instructions: 73000003 cycles: 69568628 heartbeat IPC: 0.600545 cumulative IPC: 0.54752 (Simulation time: 0 hr 52 min 15 sec) 
Heartbeat CPU 0 instructions: 74000002 cycles: 71237758 heartbeat IPC: 0.599114 cumulative IPC: 0.549492 (Simulation time: 0 hr 53 min 1 sec) 
Heartbeat CPU 0 instructions: 75000002 cycles: 72903781 heartbeat IPC: 0.600232 cumulative IPC: 0.551356 (Simulation time: 0 hr 53 min 45 sec) 
Heartbeat CPU 0 instructions: 76000000 cycles: 74571419 heartbeat IPC: 0.599649 cumulative IPC: 0.553069 (Simulation time: 0 hr 54 min 31 sec) 
Heartbeat CPU 0 instructions: 77000003 cycles: 76240135 heartbeat IPC: 0.599265 cumulative IPC: 0.554653 (Simulation time: 0 hr 55 min 16 sec) 
Heartbeat CPU 0 instructions: 78000000 cycles: 77906320 heartbeat IPC: 0.600172 cumulative IPC: 0.556159 (Simulation time: 0 hr 56 min 0 sec) 
Heartbeat CPU 0 instructions: 79000000 cycles: 79571657 heartbeat IPC: 0.600479 cumulative IPC: 0.557578 (Simulation time: 0 hr 56 min 48 sec) 
Heartbeat CPU 0 instructions: 80000000 cycles: 81235378 heartbeat IPC: 0.601062 cumulative IPC: 0.558926 (Simulation time: 0 hr 57 min 36 sec) 
Heartbeat CPU 0 instructions: 81000000 cycles: 82899688 heartbeat IPC: 0.60085 cumulative IPC: 0.560187 (Simulation time: 0 hr 58 min 23 sec) 
Heartbeat CPU 0 instructions: 82000002 cycles: 84562683 heartbeat IPC: 0.601326 cumulative IPC: 0.561387 (Simulation time: 0 hr 59 min 9 sec) 
Heartbeat CPU 0 instructions: 83000003 cycles: 86225032 heartbeat IPC: 0.601559 cumulative IPC: 0.562526 (Simulation time: 0 hr 59 min 52 sec) 
Heartbeat CPU 0 instructions: 84000000 cycles: 87881405 heartbeat IPC: 0.603727 cumulative IPC: 0.563657 (Simulation time: 1 hr 0 min 36 sec) 
Heartbeat CPU 0 instructions: 85000001 cycles: 89542211 heartbeat IPC: 0.602118 cumulative IPC: 0.564688 (Simulation time: 1 hr 1 min 23 sec) 
Heartbeat CPU 0 instructions: 86000002 cycles: 91202637 heartbeat IPC: 0.602256 cumulative IPC: 0.565668 (Simulation time: 1 hr 2 min 8 sec) 
Heartbeat CPU 0 instructions: 87000003 cycles: 92866694 heartbeat IPC: 0.600942 cumulative IPC: 0.566567 (Simulation time: 1 hr 2 min 49 sec) 
Heartbeat CPU 0 instructions: 88000000 cycles: 94530912 heartbeat IPC: 0.600881 cumulative IPC: 0.567419 (Simulation time: 1 hr 3 min 33 sec) 
Heartbeat CPU 0 instructions: 89000001 cycles: 96193888 heartbeat IPC: 0.601332 cumulative IPC: 0.568241 (Simulation time: 1 hr 4 min 14 sec) 
Heartbeat CPU 0 instructions: 90000002 cycles: 97858507 heartbeat IPC: 0.600739 cumulative IPC: 0.56901 (Simulation time: 1 hr 4 min 57 sec) 
Heartbeat CPU 0 instructions: 91000000 cycles: 99512062 heartbeat IPC: 0.604756 cumulative IPC: 0.569832 (Simulation time: 1 hr 5 min 33 sec) 
Heartbeat CPU 0 instructions: 92000000 cycles: 101167570 heartbeat IPC: 0.604044 cumulative IPC: 0.570601 (Simulation time: 1 hr 6 min 10 sec) 
Heartbeat CPU 0 instructions: 93000003 cycles: 102823718 heartbeat IPC: 0.603813 cumulative IPC: 0.571332 (Simulation time: 1 hr 6 min 54 sec) 
Heartbeat CPU 0 instructions: 94000002 cycles: 104479796 heartbeat IPC: 0.603836 cumulative IPC: 0.572032 (Simulation time: 1 hr 7 min 31 sec) 
Heartbeat CPU 0 instructions: 95000003 cycles: 106138496 heartbeat IPC: 0.602882 cumulative IPC: 0.572683 (Simulation time: 1 hr 8 min 8 sec) 
Heartbeat CPU 0 instructions: 96000000 cycles: 107791740 heartbeat IPC: 0.60487 cumulative IPC: 0.573347 (Simulation time: 1 hr 8 min 47 sec) 
Heartbeat CPU 0 instructions: 97000001 cycles: 109448513 heartbeat IPC: 0.603584 cumulative IPC: 0.573958 (Simulation time: 1 hr 9 min 24 sec) 
Heartbeat CPU 0 instructions: 98000002 cycles: 111100571 heartbeat IPC: 0.605306 cumulative IPC: 0.574578 (Simulation time: 1 hr 10 min 8 sec) 
Heartbeat CPU 0 instructions: 99000003 cycles: 112751467 heartbeat IPC: 0.605732 cumulative IPC: 0.575182 (Simulation time: 1 hr 10 min 47 sec) 
Heartbeat CPU 0 instructions: 100000000 cycles: 114406239 heartbeat IPC: 0.604311 cumulative IPC: 0.575737 (Simulation time: 1 hr 11 min 24 sec) 
Heartbeat CPU 0 instructions: 101000001 cycles: 116057641 heartbeat IPC: 0.605547 cumulative IPC: 0.576293 (Simulation time: 1 hr 12 min 1 sec) 
Heartbeat CPU 0 instructions: 102000002 cycles: 117706908 heartbeat IPC: 0.606331 cumulative IPC: 0.576843 (Simulation time: 1 hr 12 min 36 sec) 
Heartbeat CPU 0 instructions: 103000000 cycles: 119361244 heartbeat IPC: 0.604471 cumulative IPC: 0.577341 (Simulation time: 1 hr 13 min 13 sec) 
Heartbeat CPU 0 instructions: 104000000 cycles: 121012100 heartbeat IPC: 0.605746 cumulative IPC: 0.577843 (Simulation time: 1 hr 13 min 47 sec) 
Heartbeat CPU 0 instructions: 105000003 cycles: 123002816 heartbeat IPC: 0.502333 cumulative IPC: 0.576268 (Simulation time: 1 hr 14 min 28 sec) 
Heartbeat CPU 0 instructions: 106000003 cycles: 126864121 heartbeat IPC: 0.25898 cumulative IPC: 0.56393 (Simulation time: 1 hr 15 min 24 sec) 
Heartbeat CPU 0 instructions: 107000000 cycles: 128614372 heartbeat IPC: 0.571345 cumulative IPC: 0.564059 (Simulation time: 1 hr 15 min 54 sec) 
Heartbeat CPU 0 instructions: 108000000 cycles: 130344173 heartbeat IPC: 0.578101 cumulative IPC: 0.564295 (Simulation time: 1 hr 16 min 24 sec) 
Heartbeat CPU 0 instructions: 109000001 cycles: 132067110 heartbeat IPC: 0.580405 cumulative IPC: 0.56456 (Simulation time: 1 hr 16 min 53 sec) 
Heartbeat CPU 0 instructions: 110000001 cycles: 133787336 heartbeat IPC: 0.581319 cumulative IPC: 0.564832 (Simulation time: 1 hr 17 min 24 sec) 
Heartbeat CPU 0 instructions: 111000000 cycles: 135516479 heartbeat IPC: 0.578321 cumulative IPC: 0.565048 (Simulation time: 1 hr 17 min 52 sec) 
Heartbeat CPU 0 instructions: 112000000 cycles: 137280797 heartbeat IPC: 0.566791 cumulative IPC: 0.565076 (Simulation time: 1 hr 18 min 21 sec) 
Heartbeat CPU 0 instructions: 113000003 cycles: 139054048 heartbeat IPC: 0.563938 cumulative IPC: 0.565058 (Simulation time: 1 hr 18 min 50 sec) 
Heartbeat CPU 0 instructions: 114000003 cycles: 140827410 heartbeat IPC: 0.563901 cumulative IPC: 0.56504 (Simulation time: 1 hr 19 min 18 sec) 
Heartbeat CPU 0 instructions: 115000001 cycles: 142595837 heartbeat IPC: 0.565473 cumulative IPC: 0.565046 (Simulation time: 1 hr 19 min 47 sec) 
Heartbeat CPU 0 instructions: 116000000 cycles: 144373212 heartbeat IPC: 0.562627 cumulative IPC: 0.56501 (Simulation time: 1 hr 20 min 16 sec) 
Heartbeat CPU 0 instructions: 117000001 cycles: 146148584 heartbeat IPC: 0.563263 cumulative IPC: 0.564983 (Simulation time: 1 hr 20 min 45 sec) 
Heartbeat CPU 0 instructions: 118000003 cycles: 147924165 heartbeat IPC: 0.563197 cumulative IPC: 0.564957 (Simulation time: 1 hr 21 min 15 sec) 
Heartbeat CPU 0 instructions: 119000001 cycles: 149692598 heartbeat IPC: 0.565471 cumulative IPC: 0.564965 (Simulation time: 1 hr 21 min 42 sec) 
Heartbeat CPU 0 instructions: 120000000 cycles: 151459351 heartbeat IPC: 0.56601 cumulative IPC: 0.564979 (Simulation time: 1 hr 22 min 11 sec) 
Heartbeat CPU 0 instructions: 121000003 cycles: 153229601 heartbeat IPC: 0.564894 cumulative IPC: 0.564978 (Simulation time: 1 hr 22 min 39 sec) 
Heartbeat CPU 0 instructions: 122000001 cycles: 155003614 heartbeat IPC: 0.563693 cumulative IPC: 0.56496 (Simulation time: 1 hr 23 min 7 sec) 
Heartbeat CPU 0 instructions: 123000003 cycles: 156779204 heartbeat IPC: 0.563194 cumulative IPC: 0.564936 (Simulation time: 1 hr 23 min 34 sec) 
Heartbeat CPU 0 instructions: 124000000 cycles: 158547921 heartbeat IPC: 0.56538 cumulative IPC: 0.564942 (Simulation time: 1 hr 23 min 59 sec) 
Heartbeat CPU 0 instructions: 125000003 cycles: 160319531 heartbeat IPC: 0.56446 cumulative IPC: 0.564936 (Simulation time: 1 hr 24 min 23 sec) 
Heartbeat CPU 0 instructions: 126000000 cycles: 162091654 heartbeat IPC: 0.564293 cumulative IPC: 0.564927 (Simulation time: 1 hr 24 min 47 sec) 
Heartbeat CPU 0 instructions: 127000001 cycles: 163866990 heartbeat IPC: 0.563274 cumulative IPC: 0.564906 (Simulation time: 1 hr 25 min 10 sec) 
Heartbeat CPU 0 instructions: 128000000 cycles: 165640143 heartbeat IPC: 0.563967 cumulative IPC: 0.564894 (Simulation time: 1 hr 25 min 32 sec) 
Heartbeat CPU 0 instructions: 129000001 cycles: 167416758 heartbeat IPC: 0.562869 cumulative IPC: 0.564868 (Simulation time: 1 hr 25 min 55 sec) 
Heartbeat CPU 0 instructions: 130000000 cycles: 169195059 heartbeat IPC: 0.562334 cumulative IPC: 0.564836 (Simulation time: 1 hr 26 min 18 sec) 
Heartbeat CPU 0 instructions: 131000001 cycles: 170969934 heartbeat IPC: 0.563421 cumulative IPC: 0.564819 (Simulation time: 1 hr 26 min 39 sec) 
Heartbeat CPU 0 instructions: 132000000 cycles: 172743534 heartbeat IPC: 0.563824 cumulative IPC: 0.564806 (Simulation time: 1 hr 27 min 2 sec) 
Heartbeat CPU 0 instructions: 133000003 cycles: 174518723 heartbeat IPC: 0.563322 cumulative IPC: 0.564788 (Simulation time: 1 hr 27 min 22 sec) 
Heartbeat CPU 0 instructions: 134000001 cycles: 176289493 heartbeat IPC: 0.564725 cumulative IPC: 0.564788 (Simulation time: 1 hr 27 min 45 sec) 
Heartbeat CPU 0 instructions: 135000003 cycles: 178065588 heartbeat IPC: 0.563034 cumulative IPC: 0.564767 (Simulation time: 1 hr 28 min 7 sec) 
Heartbeat CPU 0 instructions: 136000000 cycles: 179828711 heartbeat IPC: 0.567174 cumulative IPC: 0.564795 (Simulation time: 1 hr 28 min 28 sec) 
Heartbeat CPU 0 instructions: 137000001 cycles: 181035558 heartbeat IPC: 0.828606 cumulative IPC: 0.566869 (Simulation time: 1 hr 28 min 51 sec) 
Heartbeat CPU 0 instructions: 138000000 cycles: 182724694 heartbeat IPC: 0.592018 cumulative IPC: 0.567143 (Simulation time: 1 hr 29 min 17 sec) 
Heartbeat CPU 0 instructions: 139000002 cycles: 185960655 heartbeat IPC: 0.309028 cumulative IPC: 0.56187 (Simulation time: 1 hr 29 min 53 sec) 
Heartbeat CPU 0 instructions: 140000000 cycles: 189133400 heartbeat IPC: 0.315184 cumulative IPC: 0.557026 (Simulation time: 1 hr 30 min 29 sec) 
Heartbeat CPU 0 instructions: 141000003 cycles: 192613166 heartbeat IPC: 0.287376 cumulative IPC: 0.551341 (Simulation time: 1 hr 31 min 6 sec) 
Heartbeat CPU 0 instructions: 142000003 cycles: 195143460 heartbeat IPC: 0.395211 cumulative IPC: 0.548984 (Simulation time: 1 hr 31 min 31 sec) 
Heartbeat CPU 0 instructions: 143000001 cycles: 196947390 heartbeat IPC: 0.554344 cumulative IPC: 0.549041 (Simulation time: 1 hr 31 min 49 sec) 
Heartbeat CPU 0 instructions: 144000000 cycles: 198748084 heartbeat IPC: 0.555341 cumulative IPC: 0.549107 (Simulation time: 1 hr 32 min 8 sec) 
Heartbeat CPU 0 instructions: 145000001 cycles: 200543677 heartbeat IPC: 0.55692 cumulative IPC: 0.549188 (Simulation time: 1 hr 32 min 28 sec) 
Heartbeat CPU 0 instructions: 146000003 cycles: 202334836 heartbeat IPC: 0.558299 cumulative IPC: 0.549281 (Simulation time: 1 hr 32 min 47 sec) 
Heartbeat CPU 0 instructions: 147000003 cycles: 204128940 heartbeat IPC: 0.557381 cumulative IPC: 0.549364 (Simulation time: 1 hr 33 min 5 sec) 
Heartbeat CPU 0 instructions: 148000000 cycles: 205932193 heartbeat IPC: 0.554552 cumulative IPC: 0.549416 (Simulation time: 1 hr 33 min 22 sec) 
Heartbeat CPU 0 instructions: 149000003 cycles: 207729382 heartbeat IPC: 0.556426 cumulative IPC: 0.549486 (Simulation time: 1 hr 33 min 39 sec) 
Heartbeat CPU 0 instructions: 150000003 cycles: 209526045 heartbeat IPC: 0.556587 cumulative IPC: 0.549556 (Simulation time: 1 hr 33 min 56 sec) 
Finished CPU 0 instructions: 100000002 cycles: 181965012 cummulative IPC: 0.549556 (Simulation time: 1 hr 33 min 56 sec) 

ChampSim completed all CPUs

Region of Interest Statistics

CPU 0 cummulative IPC: 0.549556 instructions: 100000002 cycles: 181965012
LLC TOTAL     ACCESS:    3966281  HIT:     309604  MISS:    3656677
LLC LOAD      ACCESS:    1062174  HIT:       8605  MISS:    1053569
LLC RFO       ACCESS:     534380  HIT:      54318  MISS:     480062
LLC PREFETCH  ACCESS:    1386986  HIT:      36643  MISS:    1350343
LLC WRITEBACK ACCESS:     982741  HIT:     210038  MISS:     772703
OPTgen accesses: 32605
OPTgen hits: 1773
OPTgen hit rate: 5.43782


