
*** ChampSim Multicore Out-of-Order Simulator ***

Warmup Instructions: 50000000
Simulation Instructions: 100000000
Configuration: 2
Number of CPUs: 1
LLC sets: 2048
LLC ways: 16
Off-chip DRAM Channels: 1 Width: 64-bit Data Rate: 1600 MT/s

CPU 0 runs /datasets/cs240c-wi22-a00-public/data/Assignment2-gz/soplex_66B.trace.gz
CPU 0 L1D next line prefetcher
CPU 0 L2C IP-based stride prefetcher
Initialize Hawkeye state
Heartbeat CPU 0 instructions: 1000003 cycles: 415058 heartbeat IPC: 2.40931 cumulative IPC: 2.40931 (Simulation time: 0 hr 0 min 34 sec) 
Heartbeat CPU 0 instructions: 2000003 cycles: 837409 heartbeat IPC: 2.3677 cumulative IPC: 2.38832 (Simulation time: 0 hr 1 min 10 sec) 
Heartbeat CPU 0 instructions: 3000003 cycles: 1242426 heartbeat IPC: 2.46903 cumulative IPC: 2.41463 (Simulation time: 0 hr 1 min 46 sec) 
Heartbeat CPU 0 instructions: 4000000 cycles: 1626538 heartbeat IPC: 2.6034 cumulative IPC: 2.45921 (Simulation time: 0 hr 2 min 18 sec) 
Heartbeat CPU 0 instructions: 5000000 cycles: 2038845 heartbeat IPC: 2.42538 cumulative IPC: 2.45237 (Simulation time: 0 hr 2 min 50 sec) 
Heartbeat CPU 0 instructions: 6000000 cycles: 2511000 heartbeat IPC: 2.11795 cumulative IPC: 2.38949 (Simulation time: 0 hr 3 min 24 sec) 
Heartbeat CPU 0 instructions: 7000002 cycles: 2883194 heartbeat IPC: 2.68678 cumulative IPC: 2.42786 (Simulation time: 0 hr 3 min 56 sec) 
Heartbeat CPU 0 instructions: 8000000 cycles: 3308579 heartbeat IPC: 2.35081 cumulative IPC: 2.41796 (Simulation time: 0 hr 4 min 35 sec) 
Heartbeat CPU 0 instructions: 9000001 cycles: 3747124 heartbeat IPC: 2.28027 cumulative IPC: 2.40184 (Simulation time: 0 hr 5 min 10 sec) 
Heartbeat CPU 0 instructions: 10000002 cycles: 4159245 heartbeat IPC: 2.42647 cumulative IPC: 2.40428 (Simulation time: 0 hr 5 min 47 sec) 
Heartbeat CPU 0 instructions: 11000001 cycles: 4570212 heartbeat IPC: 2.43328 cumulative IPC: 2.40689 (Simulation time: 0 hr 6 min 24 sec) 
Heartbeat CPU 0 instructions: 12000000 cycles: 4954150 heartbeat IPC: 2.60458 cumulative IPC: 2.42221 (Simulation time: 0 hr 6 min 57 sec) 
Heartbeat CPU 0 instructions: 13000003 cycles: 5353005 heartbeat IPC: 2.50718 cumulative IPC: 2.42854 (Simulation time: 0 hr 7 min 31 sec) 
Heartbeat CPU 0 instructions: 14000002 cycles: 5840707 heartbeat IPC: 2.05043 cumulative IPC: 2.39697 (Simulation time: 0 hr 8 min 7 sec) 
Heartbeat CPU 0 instructions: 15000003 cycles: 6215251 heartbeat IPC: 2.66992 cumulative IPC: 2.41342 (Simulation time: 0 hr 8 min 41 sec) 
Heartbeat CPU 0 instructions: 16000000 cycles: 6623253 heartbeat IPC: 2.45096 cumulative IPC: 2.41573 (Simulation time: 0 hr 9 min 19 sec) 
Heartbeat CPU 0 instructions: 17000001 cycles: 7077296 heartbeat IPC: 2.20244 cumulative IPC: 2.40205 (Simulation time: 0 hr 9 min 55 sec) 
Heartbeat CPU 0 instructions: 18000003 cycles: 7486367 heartbeat IPC: 2.44457 cumulative IPC: 2.40437 (Simulation time: 0 hr 10 min 30 sec) 
Heartbeat CPU 0 instructions: 19000002 cycles: 7904426 heartbeat IPC: 2.392 cumulative IPC: 2.40372 (Simulation time: 0 hr 11 min 10 sec) 
Heartbeat CPU 0 instructions: 20000000 cycles: 8288396 heartbeat IPC: 2.60436 cumulative IPC: 2.41301 (Simulation time: 0 hr 11 min 40 sec) 
Heartbeat CPU 0 instructions: 21000000 cycles: 8682619 heartbeat IPC: 2.53664 cumulative IPC: 2.41863 (Simulation time: 0 hr 12 min 13 sec) 
Heartbeat CPU 0 instructions: 22000000 cycles: 9176391 heartbeat IPC: 2.02523 cumulative IPC: 2.39746 (Simulation time: 0 hr 12 min 48 sec) 
Heartbeat CPU 0 instructions: 23000002 cycles: 9549595 heartbeat IPC: 2.67951 cumulative IPC: 2.40848 (Simulation time: 0 hr 13 min 23 sec) 
Heartbeat CPU 0 instructions: 24000000 cycles: 9940923 heartbeat IPC: 2.5554 cumulative IPC: 2.41426 (Simulation time: 0 hr 13 min 59 sec) 
Heartbeat CPU 0 instructions: 25000003 cycles: 10419318 heartbeat IPC: 2.09033 cumulative IPC: 2.39939 (Simulation time: 0 hr 14 min 35 sec) 
Heartbeat CPU 0 instructions: 26000001 cycles: 10818208 heartbeat IPC: 2.50695 cumulative IPC: 2.40336 (Simulation time: 0 hr 15 min 11 sec) 
Heartbeat CPU 0 instructions: 27000002 cycles: 11236330 heartbeat IPC: 2.39165 cumulative IPC: 2.40292 (Simulation time: 0 hr 15 min 49 sec) 
Heartbeat CPU 0 instructions: 28000000 cycles: 11620518 heartbeat IPC: 2.60289 cumulative IPC: 2.40953 (Simulation time: 0 hr 16 min 22 sec) 
Heartbeat CPU 0 instructions: 29000000 cycles: 12010449 heartbeat IPC: 2.56456 cumulative IPC: 2.41456 (Simulation time: 0 hr 16 min 54 sec) 
Heartbeat CPU 0 instructions: 30000003 cycles: 12508748 heartbeat IPC: 2.00683 cumulative IPC: 2.39832 (Simulation time: 0 hr 17 min 29 sec) 
Heartbeat CPU 0 instructions: 31000001 cycles: 12880891 heartbeat IPC: 2.68713 cumulative IPC: 2.40667 (Simulation time: 0 hr 18 min 4 sec) 
Heartbeat CPU 0 instructions: 32000000 cycles: 13260886 heartbeat IPC: 2.63161 cumulative IPC: 2.41311 (Simulation time: 0 hr 18 min 39 sec) 
Heartbeat CPU 0 instructions: 33000002 cycles: 13683857 heartbeat IPC: 2.36423 cumulative IPC: 2.4116 (Simulation time: 0 hr 19 min 17 sec) 
Heartbeat CPU 0 instructions: 34000003 cycles: 14095438 heartbeat IPC: 2.42966 cumulative IPC: 2.41213 (Simulation time: 0 hr 19 min 53 sec) 
Heartbeat CPU 0 instructions: 35000003 cycles: 14506095 heartbeat IPC: 2.43512 cumulative IPC: 2.41278 (Simulation time: 0 hr 20 min 31 sec) 
Heartbeat CPU 0 instructions: 36000000 cycles: 14889850 heartbeat IPC: 2.60582 cumulative IPC: 2.41775 (Simulation time: 0 hr 21 min 3 sec) 
Heartbeat CPU 0 instructions: 37000000 cycles: 15288535 heartbeat IPC: 2.50825 cumulative IPC: 2.42011 (Simulation time: 0 hr 21 min 36 sec) 
Heartbeat CPU 0 instructions: 38000000 cycles: 15775637 heartbeat IPC: 2.05296 cumulative IPC: 2.40878 (Simulation time: 0 hr 22 min 12 sec) 
Heartbeat CPU 0 instructions: 39000002 cycles: 16147340 heartbeat IPC: 2.69033 cumulative IPC: 2.41526 (Simulation time: 0 hr 22 min 47 sec) 
Heartbeat CPU 0 instructions: 40000000 cycles: 16556463 heartbeat IPC: 2.44425 cumulative IPC: 2.41597 (Simulation time: 0 hr 23 min 23 sec) 
Heartbeat CPU 0 instructions: 41000001 cycles: 17010888 heartbeat IPC: 2.20059 cumulative IPC: 2.41022 (Simulation time: 0 hr 23 min 59 sec) 
Heartbeat CPU 0 instructions: 42000003 cycles: 17419922 heartbeat IPC: 2.44479 cumulative IPC: 2.41103 (Simulation time: 0 hr 24 min 35 sec) 
Heartbeat CPU 0 instructions: 43000000 cycles: 17838405 heartbeat IPC: 2.38958 cumulative IPC: 2.41053 (Simulation time: 0 hr 25 min 12 sec) 
Heartbeat CPU 0 instructions: 44000000 cycles: 18222121 heartbeat IPC: 2.60609 cumulative IPC: 2.41465 (Simulation time: 0 hr 25 min 44 sec) 
Heartbeat CPU 0 instructions: 45000003 cycles: 18615573 heartbeat IPC: 2.54161 cumulative IPC: 2.41733 (Simulation time: 0 hr 26 min 15 sec) 
Heartbeat CPU 0 instructions: 46000001 cycles: 19110112 heartbeat IPC: 2.02208 cumulative IPC: 2.4071 (Simulation time: 0 hr 26 min 50 sec) 
Heartbeat CPU 0 instructions: 47000001 cycles: 19484345 heartbeat IPC: 2.67213 cumulative IPC: 2.41219 (Simulation time: 0 hr 27 min 25 sec) 
Heartbeat CPU 0 instructions: 48000000 cycles: 19874428 heartbeat IPC: 2.56355 cumulative IPC: 2.41516 (Simulation time: 0 hr 28 min 0 sec) 
Heartbeat CPU 0 instructions: 49000000 cycles: 20530255 heartbeat IPC: 1.52479 cumulative IPC: 2.38672 (Simulation time: 0 hr 28 min 44 sec) 
Heartbeat CPU 0 instructions: 50000003 cycles: 21055383 heartbeat IPC: 1.9043 cumulative IPC: 2.37469 (Simulation time: 0 hr 29 min 27 sec) 

Warmup complete CPU 0 instructions: 50000003 cycles: 21055383 (Simulation time: 0 hr 29 min 27 sec) 

Heartbeat CPU 0 instructions: 51000002 cycles: 23554004 heartbeat IPC: 0.40022 cumulative IPC: 0.40022 (Simulation time: 0 hr 30 min 29 sec) 
Heartbeat CPU 0 instructions: 52000000 cycles: 27299223 heartbeat IPC: 0.267007 cumulative IPC: 0.320315 (Simulation time: 0 hr 31 min 28 sec) 
Heartbeat CPU 0 instructions: 53000003 cycles: 29945139 heartbeat IPC: 0.377942 cumulative IPC: 0.337467 (Simulation time: 0 hr 32 min 19 sec) 
Heartbeat CPU 0 instructions: 54000000 cycles: 32404926 heartbeat IPC: 0.406538 cumulative IPC: 0.352437 (Simulation time: 0 hr 33 min 11 sec) 
Heartbeat CPU 0 instructions: 55000002 cycles: 35834448 heartbeat IPC: 0.291586 cumulative IPC: 0.338316 (Simulation time: 0 hr 33 min 59 sec) 
Heartbeat CPU 0 instructions: 56000000 cycles: 39078328 heartbeat IPC: 0.308272 cumulative IPC: 0.332909 (Simulation time: 0 hr 34 min 50 sec) 
Heartbeat CPU 0 instructions: 57000003 cycles: 41632049 heartbeat IPC: 0.391587 cumulative IPC: 0.340191 (Simulation time: 0 hr 35 min 36 sec) 
Heartbeat CPU 0 instructions: 58000002 cycles: 43821480 heartbeat IPC: 0.456739 cumulative IPC: 0.3514 (Simulation time: 0 hr 36 min 24 sec) 
Heartbeat CPU 0 instructions: 59000002 cycles: 45364304 heartbeat IPC: 0.648162 cumulative IPC: 0.370234 (Simulation time: 0 hr 37 min 8 sec) 
Heartbeat CPU 0 instructions: 60000000 cycles: 46897819 heartbeat IPC: 0.652095 cumulative IPC: 0.38696 (Simulation time: 0 hr 37 min 49 sec) 
Heartbeat CPU 0 instructions: 61000002 cycles: 49599214 heartbeat IPC: 0.37018 cumulative IPC: 0.385372 (Simulation time: 0 hr 38 min 41 sec) 
Heartbeat CPU 0 instructions: 62000000 cycles: 52014530 heartbeat IPC: 0.414024 cumulative IPC: 0.387607 (Simulation time: 0 hr 39 min 33 sec) 
Heartbeat CPU 0 instructions: 63000002 cycles: 53927044 heartbeat IPC: 0.522873 cumulative IPC: 0.395477 (Simulation time: 0 hr 40 min 21 sec) 
Heartbeat CPU 0 instructions: 64000000 cycles: 56362266 heartbeat IPC: 0.410639 cumulative IPC: 0.396523 (Simulation time: 0 hr 41 min 2 sec) 
Heartbeat CPU 0 instructions: 65000000 cycles: 59625048 heartbeat IPC: 0.306487 cumulative IPC: 0.388907 (Simulation time: 0 hr 41 min 55 sec) 
Heartbeat CPU 0 instructions: 66000001 cycles: 60841853 heartbeat IPC: 0.821825 cumulative IPC: 0.402147 (Simulation time: 0 hr 42 min 25 sec) 
Heartbeat CPU 0 instructions: 67000000 cycles: 62127703 heartbeat IPC: 0.777695 cumulative IPC: 0.413904 (Simulation time: 0 hr 42 min 56 sec) 
Heartbeat CPU 0 instructions: 68000000 cycles: 65617781 heartbeat IPC: 0.286527 cumulative IPC: 0.403928 (Simulation time: 0 hr 43 min 48 sec) 
Heartbeat CPU 0 instructions: 69000000 cycles: 68287870 heartbeat IPC: 0.374519 cumulative IPC: 0.402265 (Simulation time: 0 hr 44 min 25 sec) 
Heartbeat CPU 0 instructions: 70000001 cycles: 70931421 heartbeat IPC: 0.378279 cumulative IPC: 0.400994 (Simulation time: 0 hr 45 min 3 sec) 
Heartbeat CPU 0 instructions: 71000000 cycles: 73406798 heartbeat IPC: 0.403978 cumulative IPC: 0.401135 (Simulation time: 0 hr 45 min 53 sec) 
Heartbeat CPU 0 instructions: 72000000 cycles: 76246903 heartbeat IPC: 0.3521 cumulative IPC: 0.398612 (Simulation time: 0 hr 46 min 38 sec) 
Heartbeat CPU 0 instructions: 73000001 cycles: 79007435 heartbeat IPC: 0.362249 cumulative IPC: 0.39688 (Simulation time: 0 hr 47 min 31 sec) 
Heartbeat CPU 0 instructions: 74000000 cycles: 80887741 heartbeat IPC: 0.531828 cumulative IPC: 0.401121 (Simulation time: 0 hr 48 min 7 sec) 
Heartbeat CPU 0 instructions: 75000002 cycles: 82109970 heartbeat IPC: 0.818179 cumulative IPC: 0.40947 (Simulation time: 0 hr 48 min 37 sec) 
Heartbeat CPU 0 instructions: 76000000 cycles: 85608416 heartbeat IPC: 0.285841 cumulative IPC: 0.40277 (Simulation time: 0 hr 49 min 29 sec) 
Heartbeat CPU 0 instructions: 77000000 cycles: 88064282 heartbeat IPC: 0.407188 cumulative IPC: 0.402932 (Simulation time: 0 hr 50 min 7 sec) 
Heartbeat CPU 0 instructions: 78000003 cycles: 90649975 heartbeat IPC: 0.386745 cumulative IPC: 0.40233 (Simulation time: 0 hr 50 min 44 sec) 
Heartbeat CPU 0 instructions: 79000001 cycles: 93978583 heartbeat IPC: 0.300425 cumulative IPC: 0.397679 (Simulation time: 0 hr 51 min 39 sec) 
Heartbeat CPU 0 instructions: 80000000 cycles: 96392634 heartbeat IPC: 0.414241 cumulative IPC: 0.398209 (Simulation time: 0 hr 52 min 23 sec) 
Heartbeat CPU 0 instructions: 81000003 cycles: 99336107 heartbeat IPC: 0.339736 cumulative IPC: 0.396011 (Simulation time: 0 hr 53 min 15 sec) 
Heartbeat CPU 0 instructions: 82000000 cycles: 100964685 heartbeat IPC: 0.614031 cumulative IPC: 0.400454 (Simulation time: 0 hr 53 min 46 sec) 
Heartbeat CPU 0 instructions: 83000001 cycles: 102248478 heartbeat IPC: 0.778943 cumulative IPC: 0.406438 (Simulation time: 0 hr 54 min 17 sec) 
Heartbeat CPU 0 instructions: 84000000 cycles: 105564148 heartbeat IPC: 0.301598 cumulative IPC: 0.402325 (Simulation time: 0 hr 55 min 5 sec) 
Heartbeat CPU 0 instructions: 85000000 cycles: 108017629 heartbeat IPC: 0.407584 cumulative IPC: 0.402473 (Simulation time: 0 hr 55 min 43 sec) 
Heartbeat CPU 0 instructions: 86000000 cycles: 110731777 heartbeat IPC: 0.36844 cumulative IPC: 0.401443 (Simulation time: 0 hr 56 min 23 sec) 
Heartbeat CPU 0 instructions: 87000000 cycles: 113814206 heartbeat IPC: 0.324419 cumulative IPC: 0.398884 (Simulation time: 0 hr 57 min 19 sec) 
Heartbeat CPU 0 instructions: 88000000 cycles: 115952484 heartbeat IPC: 0.467666 cumulative IPC: 0.400434 (Simulation time: 0 hr 58 min 1 sec) 
Heartbeat CPU 0 instructions: 89000001 cycles: 119229274 heartbeat IPC: 0.305177 cumulative IPC: 0.397254 (Simulation time: 0 hr 58 min 54 sec) 
Heartbeat CPU 0 instructions: 90000002 cycles: 120439345 heartbeat IPC: 0.826399 cumulative IPC: 0.402479 (Simulation time: 0 hr 59 min 24 sec) 
Heartbeat CPU 0 instructions: 91000000 cycles: 121764109 heartbeat IPC: 0.75485 cumulative IPC: 0.407115 (Simulation time: 0 hr 59 min 57 sec) 
Heartbeat CPU 0 instructions: 92000000 cycles: 125345898 heartbeat IPC: 0.27919 cumulative IPC: 0.402721 (Simulation time: 1 hr 0 min 50 sec) 
Heartbeat CPU 0 instructions: 93000000 cycles: 127996904 heartbeat IPC: 0.377215 cumulative IPC: 0.402089 (Simulation time: 1 hr 1 min 27 sec) 
Heartbeat CPU 0 instructions: 94000001 cycles: 130605131 heartbeat IPC: 0.383403 cumulative IPC: 0.401644 (Simulation time: 1 hr 2 min 6 sec) 
Heartbeat CPU 0 instructions: 95000003 cycles: 133790796 heartbeat IPC: 0.313907 cumulative IPC: 0.399165 (Simulation time: 1 hr 2 min 59 sec) 
Heartbeat CPU 0 instructions: 96000000 cycles: 135643303 heartbeat IPC: 0.539807 cumulative IPC: 0.401438 (Simulation time: 1 hr 3 min 45 sec) 
Heartbeat CPU 0 instructions: 97000003 cycles: 138768313 heartbeat IPC: 0.32 cumulative IPC: 0.399276 (Simulation time: 1 hr 4 min 34 sec) 
Heartbeat CPU 0 instructions: 98000003 cycles: 140000806 heartbeat IPC: 0.811364 cumulative IPC: 0.403546 (Simulation time: 1 hr 5 min 5 sec) 
Heartbeat CPU 0 instructions: 99000000 cycles: 142439893 heartbeat IPC: 0.409988 cumulative IPC: 0.403676 (Simulation time: 1 hr 5 min 48 sec) 
Heartbeat CPU 0 instructions: 100000000 cycles: 145157795 heartbeat IPC: 0.367931 cumulative IPC: 0.402893 (Simulation time: 1 hr 6 min 30 sec) 
Heartbeat CPU 0 instructions: 101000001 cycles: 147711624 heartbeat IPC: 0.391569 cumulative IPC: 0.402665 (Simulation time: 1 hr 7 min 5 sec) 
Heartbeat CPU 0 instructions: 102000002 cycles: 150505421 heartbeat IPC: 0.357936 cumulative IPC: 0.401699 (Simulation time: 1 hr 7 min 39 sec) 
Heartbeat CPU 0 instructions: 103000002 cycles: 153571741 heartbeat IPC: 0.326124 cumulative IPC: 0.399951 (Simulation time: 1 hr 8 min 26 sec) 
Heartbeat CPU 0 instructions: 104000000 cycles: 155779111 heartbeat IPC: 0.453027 cumulative IPC: 0.40082 (Simulation time: 1 hr 9 min 6 sec) 
Heartbeat CPU 0 instructions: 105000000 cycles: 158094806 heartbeat IPC: 0.431836 cumulative IPC: 0.401344 (Simulation time: 1 hr 9 min 38 sec) 
Heartbeat CPU 0 instructions: 106000001 cycles: 159300249 heartbeat IPC: 0.829571 cumulative IPC: 0.405078 (Simulation time: 1 hr 10 min 5 sec) 
Heartbeat CPU 0 instructions: 107000001 cycles: 162512059 heartbeat IPC: 0.311351 cumulative IPC: 0.40295 (Simulation time: 1 hr 10 min 44 sec) 
Heartbeat CPU 0 instructions: 108000000 cycles: 164838270 heartbeat IPC: 0.429883 cumulative IPC: 0.403386 (Simulation time: 1 hr 11 min 17 sec) 
Heartbeat CPU 0 instructions: 109000003 cycles: 167491860 heartbeat IPC: 0.376849 cumulative IPC: 0.402905 (Simulation time: 1 hr 11 min 48 sec) 
Heartbeat CPU 0 instructions: 110000001 cycles: 170677394 heartbeat IPC: 0.313918 cumulative IPC: 0.401011 (Simulation time: 1 hr 12 min 31 sec) 
Heartbeat CPU 0 instructions: 111000001 cycles: 172647603 heartbeat IPC: 0.50756 cumulative IPC: 0.402395 (Simulation time: 1 hr 13 min 6 sec) 
Heartbeat CPU 0 instructions: 112000000 cycles: 174655007 heartbeat IPC: 0.498155 cumulative IPC: 0.403647 (Simulation time: 1 hr 13 min 43 sec) 
Heartbeat CPU 0 instructions: 113000000 cycles: 177295732 heartbeat IPC: 0.378684 cumulative IPC: 0.403225 (Simulation time: 1 hr 14 min 18 sec) 
Heartbeat CPU 0 instructions: 114000000 cycles: 178530082 heartbeat IPC: 0.810143 cumulative IPC: 0.406414 (Simulation time: 1 hr 14 min 43 sec) 
Heartbeat CPU 0 instructions: 115000003 cycles: 181598446 heartbeat IPC: 0.325908 cumulative IPC: 0.404876 (Simulation time: 1 hr 15 min 22 sec) 
Heartbeat CPU 0 instructions: 116000000 cycles: 184028628 heartbeat IPC: 0.411491 cumulative IPC: 0.404974 (Simulation time: 1 hr 15 min 53 sec) 
Heartbeat CPU 0 instructions: 117000000 cycles: 186707530 heartbeat IPC: 0.373287 cumulative IPC: 0.404462 (Simulation time: 1 hr 16 min 22 sec) 
Heartbeat CPU 0 instructions: 118000003 cycles: 190064166 heartbeat IPC: 0.297918 cumulative IPC: 0.402346 (Simulation time: 1 hr 17 min 1 sec) 
Heartbeat CPU 0 instructions: 119000002 cycles: 191920480 heartbeat IPC: 0.538701 cumulative IPC: 0.403827 (Simulation time: 1 hr 17 min 31 sec) 
Heartbeat CPU 0 instructions: 120000000 cycles: 193862669 heartbeat IPC: 0.514882 cumulative IPC: 0.405075 (Simulation time: 1 hr 18 min 4 sec) 
Heartbeat CPU 0 instructions: 121000000 cycles: 196666808 heartbeat IPC: 0.356616 cumulative IPC: 0.404302 (Simulation time: 1 hr 18 min 35 sec) 
Heartbeat CPU 0 instructions: 122000000 cycles: 197874783 heartbeat IPC: 0.827832 cumulative IPC: 0.407195 (Simulation time: 1 hr 18 min 58 sec) 
Heartbeat CPU 0 instructions: 123000000 cycles: 200551939 heartbeat IPC: 0.373531 cumulative IPC: 0.406693 (Simulation time: 1 hr 19 min 28 sec) 
Heartbeat CPU 0 instructions: 124000000 cycles: 203151344 heartbeat IPC: 0.384703 cumulative IPC: 0.406379 (Simulation time: 1 hr 19 min 58 sec) 
Heartbeat CPU 0 instructions: 125000001 cycles: 205757016 heartbeat IPC: 0.383779 cumulative IPC: 0.40606 (Simulation time: 1 hr 20 min 25 sec) 
Heartbeat CPU 0 instructions: 126000000 cycles: 208675726 heartbeat IPC: 0.342617 cumulative IPC: 0.405073 (Simulation time: 1 hr 20 min 57 sec) 
Heartbeat CPU 0 instructions: 127000002 cycles: 211562679 heartbeat IPC: 0.346387 cumulative IPC: 0.404184 (Simulation time: 1 hr 21 min 45 sec) 
Heartbeat CPU 0 instructions: 128000000 cycles: 213944519 heartbeat IPC: 0.419843 cumulative IPC: 0.404377 (Simulation time: 1 hr 22 min 23 sec) 
Heartbeat CPU 0 instructions: 129000000 cycles: 216076519 heartbeat IPC: 0.469043 cumulative IPC: 0.405084 (Simulation time: 1 hr 22 min 47 sec) 
Heartbeat CPU 0 instructions: 130000000 cycles: 217330640 heartbeat IPC: 0.797371 cumulative IPC: 0.407591 (Simulation time: 1 hr 23 min 9 sec) 
Heartbeat CPU 0 instructions: 131000003 cycles: 220551253 heartbeat IPC: 0.310501 cumulative IPC: 0.406023 (Simulation time: 1 hr 23 min 40 sec) 
Heartbeat CPU 0 instructions: 132000000 cycles: 223013735 heartbeat IPC: 0.406093 cumulative IPC: 0.406024 (Simulation time: 1 hr 24 min 4 sec) 
Heartbeat CPU 0 instructions: 133000000 cycles: 225677933 heartbeat IPC: 0.375347 cumulative IPC: 0.405625 (Simulation time: 1 hr 24 min 26 sec) 
Heartbeat CPU 0 instructions: 134000001 cycles: 229097231 heartbeat IPC: 0.292458 cumulative IPC: 0.403765 (Simulation time: 1 hr 24 min 58 sec) 
Heartbeat CPU 0 instructions: 135000003 cycles: 231022886 heartbeat IPC: 0.519305 cumulative IPC: 0.404825 (Simulation time: 1 hr 25 min 21 sec) 
Heartbeat CPU 0 instructions: 136000000 cycles: 233022041 heartbeat IPC: 0.50021 cumulative IPC: 0.405724 (Simulation time: 1 hr 25 min 47 sec) 
Heartbeat CPU 0 instructions: 137000000 cycles: 235716804 heartbeat IPC: 0.37109 cumulative IPC: 0.405289 (Simulation time: 1 hr 26 min 11 sec) 
Heartbeat CPU 0 instructions: 138000000 cycles: 236924686 heartbeat IPC: 0.827895 cumulative IPC: 0.407654 (Simulation time: 1 hr 26 min 28 sec) 
Heartbeat CPU 0 instructions: 139000001 cycles: 239715798 heartbeat IPC: 0.358281 cumulative IPC: 0.407024 (Simulation time: 1 hr 26 min 51 sec) 
Heartbeat CPU 0 instructions: 140000000 cycles: 242156060 heartbeat IPC: 0.409792 cumulative IPC: 0.407054 (Simulation time: 1 hr 27 min 12 sec) 
Heartbeat CPU 0 instructions: 141000003 cycles: 244815682 heartbeat IPC: 0.375994 cumulative IPC: 0.406685 (Simulation time: 1 hr 27 min 30 sec) 
Heartbeat CPU 0 instructions: 142000001 cycles: 248028964 heartbeat IPC: 0.311208 cumulative IPC: 0.405334 (Simulation time: 1 hr 27 min 58 sec) 
Heartbeat CPU 0 instructions: 143000001 cycles: 252560562 heartbeat IPC: 0.220673 cumulative IPC: 0.401719 (Simulation time: 1 hr 28 min 30 sec) 
Heartbeat CPU 0 instructions: 144000000 cycles: 256190154 heartbeat IPC: 0.275513 cumulative IPC: 0.399771 (Simulation time: 1 hr 29 min 0 sec) 
Heartbeat CPU 0 instructions: 145000001 cycles: 259119188 heartbeat IPC: 0.34141 cumulative IPC: 0.399053 (Simulation time: 1 hr 29 min 31 sec) 
Heartbeat CPU 0 instructions: 146000000 cycles: 262971363 heartbeat IPC: 0.259593 cumulative IPC: 0.396832 (Simulation time: 1 hr 29 min 59 sec) 
Heartbeat CPU 0 instructions: 147000000 cycles: 265517051 heartbeat IPC: 0.392821 cumulative IPC: 0.39679 (Simulation time: 1 hr 30 min 25 sec) 
Heartbeat CPU 0 instructions: 148000000 cycles: 268643365 heartbeat IPC: 0.319865 cumulative IPC: 0.395819 (Simulation time: 1 hr 30 min 52 sec) 
Heartbeat CPU 0 instructions: 149000000 cycles: 271819343 heartbeat IPC: 0.314864 cumulative IPC: 0.394794 (Simulation time: 1 hr 31 min 14 sec) 
Heartbeat CPU 0 instructions: 150000001 cycles: 274696360 heartbeat IPC: 0.347583 cumulative IPC: 0.394258 (Simulation time: 1 hr 31 min 38 sec) 
Finished CPU 0 instructions: 100000001 cycles: 253640981 cummulative IPC: 0.394258 (Simulation time: 1 hr 31 min 38 sec) 

ChampSim completed all CPUs

Region of Interest Statistics

CPU 0 cummulative IPC: 0.394258 instructions: 100000001 cycles: 253640981
LLC TOTAL     ACCESS:    6713447  HIT:    3344298  MISS:    3369149
LLC LOAD      ACCESS:    1679489  HIT:     718063  MISS:     961426
LLC RFO       ACCESS:     736915  HIT:     259674  MISS:     477241
LLC PREFETCH  ACCESS:    2656870  HIT:    1150485  MISS:    1506385
LLC WRITEBACK ACCESS:    1640173  HIT:    1216076  MISS:     424097
OPTgen accesses: 53025
OPTgen hits: 38239
OPTgen hit rate: 72.115


