
*** ChampSim Multicore Out-of-Order Simulator ***

Warmup Instructions: 50000000
Simulation Instructions: 100000000
Configuration: 2
Number of CPUs: 1
LLC sets: 2048
LLC ways: 16
Off-chip DRAM Channels: 1 Width: 64-bit Data Rate: 1600 MT/s

CPU 0 runs /datasets/cs240c-wi22-a00-public/data/Assignment2-gz/cactusADM_734B.trace.gz
CPU 0 L1D next line prefetcher
CPU 0 L2C IP-based stride prefetcher
Initialize Hawkeye state
Heartbeat CPU 0 instructions: 1000003 cycles: 592726 heartbeat IPC: 1.68713 cumulative IPC: 1.68713 (Simulation time: 0 hr 0 min 50 sec) 
Heartbeat CPU 0 instructions: 2000001 cycles: 1185927 heartbeat IPC: 1.68577 cumulative IPC: 1.68645 (Simulation time: 0 hr 1 min 35 sec) 
Heartbeat CPU 0 instructions: 3000003 cycles: 1778979 heartbeat IPC: 1.6862 cumulative IPC: 1.68636 (Simulation time: 0 hr 2 min 23 sec) 
Heartbeat CPU 0 instructions: 4000000 cycles: 2371929 heartbeat IPC: 1.68648 cumulative IPC: 1.68639 (Simulation time: 0 hr 3 min 5 sec) 
Heartbeat CPU 0 instructions: 5000000 cycles: 2965279 heartbeat IPC: 1.68535 cumulative IPC: 1.68618 (Simulation time: 0 hr 3 min 51 sec) 
Heartbeat CPU 0 instructions: 6000002 cycles: 3558551 heartbeat IPC: 1.68557 cumulative IPC: 1.68608 (Simulation time: 0 hr 4 min 34 sec) 
Heartbeat CPU 0 instructions: 7000000 cycles: 4151394 heartbeat IPC: 1.68678 cumulative IPC: 1.68618 (Simulation time: 0 hr 5 min 20 sec) 
Heartbeat CPU 0 instructions: 8000000 cycles: 4744343 heartbeat IPC: 1.68649 cumulative IPC: 1.68622 (Simulation time: 0 hr 6 min 2 sec) 
Heartbeat CPU 0 instructions: 9000001 cycles: 5337493 heartbeat IPC: 1.68592 cumulative IPC: 1.68619 (Simulation time: 0 hr 6 min 47 sec) 
Heartbeat CPU 0 instructions: 10000003 cycles: 5958967 heartbeat IPC: 1.60908 cumulative IPC: 1.67814 (Simulation time: 0 hr 7 min 32 sec) 
Heartbeat CPU 0 instructions: 11000003 cycles: 6686336 heartbeat IPC: 1.37482 cumulative IPC: 1.64515 (Simulation time: 0 hr 8 min 29 sec) 
Heartbeat CPU 0 instructions: 12000000 cycles: 7279034 heartbeat IPC: 1.68719 cumulative IPC: 1.64857 (Simulation time: 0 hr 9 min 16 sec) 
Heartbeat CPU 0 instructions: 13000002 cycles: 7872643 heartbeat IPC: 1.68461 cumulative IPC: 1.65129 (Simulation time: 0 hr 10 min 4 sec) 
Heartbeat CPU 0 instructions: 14000000 cycles: 8465789 heartbeat IPC: 1.68592 cumulative IPC: 1.65371 (Simulation time: 0 hr 10 min 51 sec) 
Heartbeat CPU 0 instructions: 15000000 cycles: 9058690 heartbeat IPC: 1.68662 cumulative IPC: 1.65587 (Simulation time: 0 hr 11 min 38 sec) 
Heartbeat CPU 0 instructions: 16000000 cycles: 9651934 heartbeat IPC: 1.68565 cumulative IPC: 1.6577 (Simulation time: 0 hr 12 min 23 sec) 
Heartbeat CPU 0 instructions: 17000002 cycles: 10245052 heartbeat IPC: 1.68601 cumulative IPC: 1.65934 (Simulation time: 0 hr 13 min 9 sec) 
Heartbeat CPU 0 instructions: 18000001 cycles: 10838494 heartbeat IPC: 1.68508 cumulative IPC: 1.66075 (Simulation time: 0 hr 13 min 54 sec) 
Heartbeat CPU 0 instructions: 19000001 cycles: 11431295 heartbeat IPC: 1.68691 cumulative IPC: 1.6621 (Simulation time: 0 hr 14 min 39 sec) 
Heartbeat CPU 0 instructions: 20000000 cycles: 12024523 heartbeat IPC: 1.68569 cumulative IPC: 1.66327 (Simulation time: 0 hr 15 min 24 sec) 
Heartbeat CPU 0 instructions: 21000002 cycles: 12617792 heartbeat IPC: 1.68558 cumulative IPC: 1.66432 (Simulation time: 0 hr 16 min 12 sec) 
Heartbeat CPU 0 instructions: 22000000 cycles: 13210834 heartbeat IPC: 1.68622 cumulative IPC: 1.6653 (Simulation time: 0 hr 17 min 2 sec) 
Heartbeat CPU 0 instructions: 23000001 cycles: 13804229 heartbeat IPC: 1.68522 cumulative IPC: 1.66616 (Simulation time: 0 hr 17 min 50 sec) 
Heartbeat CPU 0 instructions: 24000000 cycles: 14558145 heartbeat IPC: 1.32641 cumulative IPC: 1.64856 (Simulation time: 0 hr 18 min 48 sec) 
Heartbeat CPU 0 instructions: 25000000 cycles: 15151145 heartbeat IPC: 1.68634 cumulative IPC: 1.65004 (Simulation time: 0 hr 19 min 36 sec) 
Heartbeat CPU 0 instructions: 26000001 cycles: 15743819 heartbeat IPC: 1.68727 cumulative IPC: 1.65144 (Simulation time: 0 hr 20 min 21 sec) 
Heartbeat CPU 0 instructions: 27000003 cycles: 16337211 heartbeat IPC: 1.68523 cumulative IPC: 1.65267 (Simulation time: 0 hr 21 min 6 sec) 
Heartbeat CPU 0 instructions: 28000000 cycles: 16930187 heartbeat IPC: 1.6864 cumulative IPC: 1.65385 (Simulation time: 0 hr 21 min 51 sec) 
Heartbeat CPU 0 instructions: 29000001 cycles: 17523458 heartbeat IPC: 1.68557 cumulative IPC: 1.65492 (Simulation time: 0 hr 22 min 37 sec) 
Heartbeat CPU 0 instructions: 30000001 cycles: 18116077 heartbeat IPC: 1.68742 cumulative IPC: 1.65599 (Simulation time: 0 hr 23 min 23 sec) 
Heartbeat CPU 0 instructions: 31000000 cycles: 18709217 heartbeat IPC: 1.68594 cumulative IPC: 1.65694 (Simulation time: 0 hr 24 min 9 sec) 
Heartbeat CPU 0 instructions: 32000000 cycles: 19302315 heartbeat IPC: 1.68606 cumulative IPC: 1.65783 (Simulation time: 0 hr 24 min 55 sec) 
Heartbeat CPU 0 instructions: 33000000 cycles: 19895073 heartbeat IPC: 1.68703 cumulative IPC: 1.6587 (Simulation time: 0 hr 25 min 43 sec) 
Heartbeat CPU 0 instructions: 34000002 cycles: 20488335 heartbeat IPC: 1.6856 cumulative IPC: 1.65948 (Simulation time: 0 hr 26 min 30 sec) 
Heartbeat CPU 0 instructions: 35000001 cycles: 21081367 heartbeat IPC: 1.68625 cumulative IPC: 1.66023 (Simulation time: 0 hr 27 min 16 sec) 
Heartbeat CPU 0 instructions: 36000000 cycles: 21674476 heartbeat IPC: 1.68603 cumulative IPC: 1.66094 (Simulation time: 0 hr 28 min 2 sec) 
Heartbeat CPU 0 instructions: 37000003 cycles: 22428190 heartbeat IPC: 1.32677 cumulative IPC: 1.64971 (Simulation time: 0 hr 28 min 59 sec) 
Heartbeat CPU 0 instructions: 38000001 cycles: 23021277 heartbeat IPC: 1.68609 cumulative IPC: 1.65065 (Simulation time: 0 hr 29 min 45 sec) 
Heartbeat CPU 0 instructions: 39000003 cycles: 23614256 heartbeat IPC: 1.6864 cumulative IPC: 1.65154 (Simulation time: 0 hr 30 min 32 sec) 
Heartbeat CPU 0 instructions: 40000000 cycles: 24207058 heartbeat IPC: 1.6869 cumulative IPC: 1.65241 (Simulation time: 0 hr 31 min 18 sec) 
Heartbeat CPU 0 instructions: 41000001 cycles: 24800281 heartbeat IPC: 1.68571 cumulative IPC: 1.65321 (Simulation time: 0 hr 32 min 4 sec) 
Heartbeat CPU 0 instructions: 42000002 cycles: 25393356 heartbeat IPC: 1.68613 cumulative IPC: 1.65398 (Simulation time: 0 hr 32 min 52 sec) 
Heartbeat CPU 0 instructions: 43000000 cycles: 25986416 heartbeat IPC: 1.68617 cumulative IPC: 1.65471 (Simulation time: 0 hr 33 min 38 sec) 
Heartbeat CPU 0 instructions: 44000000 cycles: 26579269 heartbeat IPC: 1.68676 cumulative IPC: 1.65543 (Simulation time: 0 hr 34 min 27 sec) 
Heartbeat CPU 0 instructions: 45000003 cycles: 27172246 heartbeat IPC: 1.68641 cumulative IPC: 1.6561 (Simulation time: 0 hr 35 min 15 sec) 
Heartbeat CPU 0 instructions: 46000003 cycles: 27765500 heartbeat IPC: 1.68562 cumulative IPC: 1.65673 (Simulation time: 0 hr 36 min 1 sec) 
Heartbeat CPU 0 instructions: 47000001 cycles: 28358111 heartbeat IPC: 1.68744 cumulative IPC: 1.65737 (Simulation time: 0 hr 36 min 47 sec) 
Heartbeat CPU 0 instructions: 48000000 cycles: 28951073 heartbeat IPC: 1.68645 cumulative IPC: 1.65797 (Simulation time: 0 hr 37 min 33 sec) 
Heartbeat CPU 0 instructions: 49000000 cycles: 29544068 heartbeat IPC: 1.68635 cumulative IPC: 1.65854 (Simulation time: 0 hr 38 min 18 sec) 
Heartbeat CPU 0 instructions: 50000000 cycles: 30298335 heartbeat IPC: 1.32579 cumulative IPC: 1.65026 (Simulation time: 0 hr 39 min 12 sec) 

Warmup complete CPU 0 instructions: 50000004 cycles: 30298336 (Simulation time: 0 hr 39 min 12 sec) 

Heartbeat CPU 0 instructions: 51000000 cycles: 32026231 heartbeat IPC: 0.578739 cumulative IPC: 0.578737 (Simulation time: 0 hr 39 min 59 sec) 
Heartbeat CPU 0 instructions: 52000000 cycles: 33763919 heartbeat IPC: 0.575477 cumulative IPC: 0.577102 (Simulation time: 0 hr 40 min 46 sec) 
Heartbeat CPU 0 instructions: 53000003 cycles: 35501207 heartbeat IPC: 0.575612 cumulative IPC: 0.576605 (Simulation time: 0 hr 41 min 36 sec) 
Heartbeat CPU 0 instructions: 54000000 cycles: 37187150 heartbeat IPC: 0.593138 cumulative IPC: 0.580651 (Simulation time: 0 hr 42 min 27 sec) 
Heartbeat CPU 0 instructions: 55000001 cycles: 38861803 heartbeat IPC: 0.597139 cumulative IPC: 0.583875 (Simulation time: 0 hr 43 min 17 sec) 
Heartbeat CPU 0 instructions: 56000000 cycles: 40612160 heartbeat IPC: 0.571311 cumulative IPC: 0.581743 (Simulation time: 0 hr 44 min 7 sec) 
Heartbeat CPU 0 instructions: 57000000 cycles: 42359795 heartbeat IPC: 0.572202 cumulative IPC: 0.580361 (Simulation time: 0 hr 44 min 58 sec) 
Heartbeat CPU 0 instructions: 58000001 cycles: 44092659 heartbeat IPC: 0.57708 cumulative IPC: 0.579948 (Simulation time: 0 hr 45 min 47 sec) 
Heartbeat CPU 0 instructions: 59000000 cycles: 45751089 heartbeat IPC: 0.602979 cumulative IPC: 0.58242 (Simulation time: 0 hr 46 min 35 sec) 
Heartbeat CPU 0 instructions: 60000000 cycles: 47457769 heartbeat IPC: 0.585933 cumulative IPC: 0.58277 (Simulation time: 0 hr 47 min 24 sec) 
Heartbeat CPU 0 instructions: 61000002 cycles: 49198009 heartbeat IPC: 0.574635 cumulative IPC: 0.582021 (Simulation time: 0 hr 48 min 13 sec) 
Heartbeat CPU 0 instructions: 62000002 cycles: 50938884 heartbeat IPC: 0.574424 cumulative IPC: 0.58138 (Simulation time: 0 hr 49 min 4 sec) 
Heartbeat CPU 0 instructions: 63000002 cycles: 58291184 heartbeat IPC: 0.136012 cumulative IPC: 0.464404 (Simulation time: 0 hr 50 min 3 sec) 
Heartbeat CPU 0 instructions: 64000000 cycles: 60238948 heartbeat IPC: 0.513408 cumulative IPC: 0.467592 (Simulation time: 0 hr 50 min 52 sec) 
Heartbeat CPU 0 instructions: 65000003 cycles: 61975265 heartbeat IPC: 0.575933 cumulative IPC: 0.473531 (Simulation time: 0 hr 51 min 43 sec) 
Heartbeat CPU 0 instructions: 66000001 cycles: 63714917 heartbeat IPC: 0.574826 cumulative IPC: 0.478804 (Simulation time: 0 hr 52 min 33 sec) 
Heartbeat CPU 0 instructions: 67000000 cycles: 65449234 heartbeat IPC: 0.576595 cumulative IPC: 0.483629 (Simulation time: 0 hr 53 min 23 sec) 
Heartbeat CPU 0 instructions: 68000000 cycles: 67111109 heartbeat IPC: 0.60173 cumulative IPC: 0.488961 (Simulation time: 0 hr 54 min 15 sec) 
Heartbeat CPU 0 instructions: 69000000 cycles: 68811223 heartbeat IPC: 0.588196 cumulative IPC: 0.493341 (Simulation time: 0 hr 55 min 2 sec) 
Heartbeat CPU 0 instructions: 70000001 cycles: 70551683 heartbeat IPC: 0.574561 cumulative IPC: 0.496853 (Simulation time: 0 hr 55 min 52 sec) 
Heartbeat CPU 0 instructions: 71000001 cycles: 72292302 heartbeat IPC: 0.574508 cumulative IPC: 0.500072 (Simulation time: 0 hr 56 min 42 sec) 
Heartbeat CPU 0 instructions: 72000000 cycles: 74011670 heartbeat IPC: 0.581608 cumulative IPC: 0.503279 (Simulation time: 0 hr 57 min 32 sec) 
Heartbeat CPU 0 instructions: 73000003 cycles: 75660279 heartbeat IPC: 0.606574 cumulative IPC: 0.507033 (Simulation time: 0 hr 58 min 21 sec) 
Heartbeat CPU 0 instructions: 74000002 cycles: 77392132 heartbeat IPC: 0.577416 cumulative IPC: 0.509621 (Simulation time: 0 hr 59 min 11 sec) 
Heartbeat CPU 0 instructions: 75000002 cycles: 79132960 heartbeat IPC: 0.574439 cumulative IPC: 0.511932 (Simulation time: 1 hr 0 min 1 sec) 
Heartbeat CPU 0 instructions: 76000000 cycles: 85291916 heartbeat IPC: 0.162365 cumulative IPC: 0.472782 (Simulation time: 1 hr 0 min 58 sec) 
Heartbeat CPU 0 instructions: 77000000 cycles: 88467598 heartbeat IPC: 0.314893 cumulative IPC: 0.464163 (Simulation time: 1 hr 1 min 49 sec) 
Heartbeat CPU 0 instructions: 78000002 cycles: 90162406 heartbeat IPC: 0.590039 cumulative IPC: 0.467726 (Simulation time: 1 hr 2 min 38 sec) 
Heartbeat CPU 0 instructions: 79000002 cycles: 91903009 heartbeat IPC: 0.574514 cumulative IPC: 0.470743 (Simulation time: 1 hr 3 min 23 sec) 
Heartbeat CPU 0 instructions: 80000000 cycles: 93640038 heartbeat IPC: 0.575695 cumulative IPC: 0.473622 (Simulation time: 1 hr 4 min 14 sec) 
Heartbeat CPU 0 instructions: 81000000 cycles: 95366035 heartbeat IPC: 0.579375 cumulative IPC: 0.476427 (Simulation time: 1 hr 5 min 5 sec) 
Heartbeat CPU 0 instructions: 82000003 cycles: 97010295 heartbeat IPC: 0.608178 cumulative IPC: 0.479674 (Simulation time: 1 hr 5 min 45 sec) 
Heartbeat CPU 0 instructions: 83000003 cycles: 98739602 heartbeat IPC: 0.578266 cumulative IPC: 0.482165 (Simulation time: 1 hr 6 min 32 sec) 
Heartbeat CPU 0 instructions: 84000000 cycles: 100478530 heartbeat IPC: 0.575065 cumulative IPC: 0.484467 (Simulation time: 1 hr 7 min 15 sec) 
Heartbeat CPU 0 instructions: 85000003 cycles: 102218082 heartbeat IPC: 0.574862 cumulative IPC: 0.486654 (Simulation time: 1 hr 8 min 2 sec) 
Heartbeat CPU 0 instructions: 86000000 cycles: 103911865 heartbeat IPC: 0.590393 cumulative IPC: 0.48904 (Simulation time: 1 hr 8 min 47 sec) 
Heartbeat CPU 0 instructions: 87000000 cycles: 105586238 heartbeat IPC: 0.597238 cumulative IPC: 0.491447 (Simulation time: 1 hr 9 min 28 sec) 
Heartbeat CPU 0 instructions: 88000000 cycles: 107354017 heartbeat IPC: 0.565682 cumulative IPC: 0.49315 (Simulation time: 1 hr 10 min 10 sec) 
Heartbeat CPU 0 instructions: 89000002 cycles: 112448647 heartbeat IPC: 0.196286 cumulative IPC: 0.474739 (Simulation time: 1 hr 10 min 54 sec) 
Heartbeat CPU 0 instructions: 90000002 cycles: 116701310 heartbeat IPC: 0.235147 cumulative IPC: 0.462947 (Simulation time: 1 hr 11 min 36 sec) 
Heartbeat CPU 0 instructions: 91000003 cycles: 118348325 heartbeat IPC: 0.60716 cumulative IPC: 0.465645 (Simulation time: 1 hr 12 min 14 sec) 
Heartbeat CPU 0 instructions: 92000000 cycles: 120076578 heartbeat IPC: 0.578617 cumulative IPC: 0.467819 (Simulation time: 1 hr 12 min 54 sec) 
Heartbeat CPU 0 instructions: 93000000 cycles: 121815230 heartbeat IPC: 0.575158 cumulative IPC: 0.469859 (Simulation time: 1 hr 13 min 33 sec) 
Heartbeat CPU 0 instructions: 94000003 cycles: 123555915 heartbeat IPC: 0.574488 cumulative IPC: 0.471812 (Simulation time: 1 hr 14 min 13 sec) 
Heartbeat CPU 0 instructions: 95000000 cycles: 125254356 heartbeat IPC: 0.588773 cumulative IPC: 0.473904 (Simulation time: 1 hr 14 min 50 sec) 
Heartbeat CPU 0 instructions: 96000000 cycles: 126924593 heartbeat IPC: 0.598717 cumulative IPC: 0.476061 (Simulation time: 1 hr 15 min 30 sec) 
Heartbeat CPU 0 instructions: 97000001 cycles: 128661506 heartbeat IPC: 0.575735 cumulative IPC: 0.477821 (Simulation time: 1 hr 16 min 9 sec) 
Heartbeat CPU 0 instructions: 98000000 cycles: 130401715 heartbeat IPC: 0.574643 cumulative IPC: 0.479504 (Simulation time: 1 hr 16 min 47 sec) 
Heartbeat CPU 0 instructions: 99000001 cycles: 132140906 heartbeat IPC: 0.574981 cumulative IPC: 0.481135 (Simulation time: 1 hr 17 min 27 sec) 
Heartbeat CPU 0 instructions: 100000000 cycles: 133810084 heartbeat IPC: 0.599097 cumulative IPC: 0.483037 (Simulation time: 1 hr 18 min 6 sec) 
Heartbeat CPU 0 instructions: 101000000 cycles: 135513703 heartbeat IPC: 0.586986 cumulative IPC: 0.48472 (Simulation time: 1 hr 18 min 43 sec) 
Heartbeat CPU 0 instructions: 102000002 cycles: 139528890 heartbeat IPC: 0.249055 cumulative IPC: 0.476057 (Simulation time: 1 hr 19 min 25 sec) 
Heartbeat CPU 0 instructions: 103000000 cycles: 144860851 heartbeat IPC: 0.187548 cumulative IPC: 0.462629 (Simulation time: 1 hr 20 min 10 sec) 
Heartbeat CPU 0 instructions: 104000000 cycles: 146564228 heartbeat IPC: 0.587069 cumulative IPC: 0.464453 (Simulation time: 1 hr 20 min 51 sec) 
Heartbeat CPU 0 instructions: 105000000 cycles: 148227063 heartbeat IPC: 0.601383 cumulative IPC: 0.466383 (Simulation time: 1 hr 21 min 31 sec) 
Heartbeat CPU 0 instructions: 106000002 cycles: 149959310 heartbeat IPC: 0.577286 cumulative IPC: 0.467989 (Simulation time: 1 hr 22 min 10 sec) 
Heartbeat CPU 0 instructions: 107000001 cycles: 151700054 heartbeat IPC: 0.574466 cumulative IPC: 0.469516 (Simulation time: 1 hr 22 min 44 sec) 
Heartbeat CPU 0 instructions: 108000000 cycles: 153434831 heartbeat IPC: 0.576442 cumulative IPC: 0.471022 (Simulation time: 1 hr 23 min 21 sec) 
Heartbeat CPU 0 instructions: 109000001 cycles: 155107821 heartbeat IPC: 0.597733 cumulative IPC: 0.47272 (Simulation time: 1 hr 23 min 53 sec) 
Heartbeat CPU 0 instructions: 110000003 cycles: 156800587 heartbeat IPC: 0.59075 cumulative IPC: 0.4743 (Simulation time: 1 hr 24 min 21 sec) 
Heartbeat CPU 0 instructions: 111000002 cycles: 158540242 heartbeat IPC: 0.574826 cumulative IPC: 0.475664 (Simulation time: 1 hr 24 min 51 sec) 
Heartbeat CPU 0 instructions: 112000000 cycles: 160279986 heartbeat IPC: 0.574796 cumulative IPC: 0.47699 (Simulation time: 1 hr 25 min 20 sec) 
Heartbeat CPU 0 instructions: 113000002 cycles: 162008211 heartbeat IPC: 0.578629 cumulative IPC: 0.478324 (Simulation time: 1 hr 25 min 50 sec) 
Heartbeat CPU 0 instructions: 114000000 cycles: 163654859 heartbeat IPC: 0.607293 cumulative IPC: 0.479917 (Simulation time: 1 hr 26 min 21 sec) 
Heartbeat CPU 0 instructions: 115000002 cycles: 166459787 heartbeat IPC: 0.356516 cumulative IPC: 0.477374 (Simulation time: 1 hr 26 min 51 sec) 
Heartbeat CPU 0 instructions: 116000000 cycles: 172976051 heartbeat IPC: 0.153462 cumulative IPC: 0.462581 (Simulation time: 1 hr 27 min 23 sec) 
Heartbeat CPU 0 instructions: 117000000 cycles: 174726157 heartbeat IPC: 0.571394 cumulative IPC: 0.4639 (Simulation time: 1 hr 27 min 51 sec) 
Heartbeat CPU 0 instructions: 118000002 cycles: 176405774 heartbeat IPC: 0.595375 cumulative IPC: 0.465411 (Simulation time: 1 hr 28 min 18 sec) 
Heartbeat CPU 0 instructions: 119000003 cycles: 178096056 heartbeat IPC: 0.591618 cumulative IPC: 0.466854 (Simulation time: 1 hr 28 min 44 sec) 
Heartbeat CPU 0 instructions: 120000000 cycles: 179837112 heartbeat IPC: 0.574362 cumulative IPC: 0.468106 (Simulation time: 1 hr 29 min 10 sec) 
Heartbeat CPU 0 instructions: 121000001 cycles: 181579375 heartbeat IPC: 0.573967 cumulative IPC: 0.469325 (Simulation time: 1 hr 29 min 37 sec) 
Heartbeat CPU 0 instructions: 122000003 cycles: 183309339 heartbeat IPC: 0.578048 cumulative IPC: 0.470554 (Simulation time: 1 hr 30 min 2 sec) 
Heartbeat CPU 0 instructions: 123000000 cycles: 184961867 heartbeat IPC: 0.605132 cumulative IPC: 0.471992 (Simulation time: 1 hr 30 min 28 sec) 
Heartbeat CPU 0 instructions: 124000000 cycles: 186686384 heartbeat IPC: 0.579872 cumulative IPC: 0.473182 (Simulation time: 1 hr 30 min 53 sec) 
Heartbeat CPU 0 instructions: 125000002 cycles: 188428142 heartbeat IPC: 0.574134 cumulative IPC: 0.474294 (Simulation time: 1 hr 31 min 18 sec) 
Heartbeat CPU 0 instructions: 126000000 cycles: 190169939 heartbeat IPC: 0.574119 cumulative IPC: 0.475381 (Simulation time: 1 hr 31 min 42 sec) 
Heartbeat CPU 0 instructions: 127000001 cycles: 191875968 heartbeat IPC: 0.586157 cumulative IPC: 0.476551 (Simulation time: 1 hr 32 min 5 sec) 
Heartbeat CPU 0 instructions: 128000000 cycles: 193548303 heartbeat IPC: 0.597966 cumulative IPC: 0.477795 (Simulation time: 1 hr 32 min 28 sec) 
Heartbeat CPU 0 instructions: 129000002 cycles: 201164955 heartbeat IPC: 0.131292 cumulative IPC: 0.462349 (Simulation time: 1 hr 32 min 56 sec) 
Heartbeat CPU 0 instructions: 130000001 cycles: 202903440 heartbeat IPC: 0.575213 cumulative IPC: 0.463486 (Simulation time: 1 hr 33 min 18 sec) 
Heartbeat CPU 0 instructions: 131000002 cycles: 204636884 heartbeat IPC: 0.576887 cumulative IPC: 0.464613 (Simulation time: 1 hr 33 min 38 sec) 
Heartbeat CPU 0 instructions: 132000000 cycles: 206292688 heartbeat IPC: 0.603935 cumulative IPC: 0.465924 (Simulation time: 1 hr 33 min 58 sec) 
Heartbeat CPU 0 instructions: 133000000 cycles: 208011060 heartbeat IPC: 0.581946 cumulative IPC: 0.467046 (Simulation time: 1 hr 34 min 17 sec) 
Heartbeat CPU 0 instructions: 134000000 cycles: 209751865 heartbeat IPC: 0.574447 cumulative IPC: 0.468088 (Simulation time: 1 hr 34 min 35 sec) 
Heartbeat CPU 0 instructions: 135000003 cycles: 211492447 heartbeat IPC: 0.574522 cumulative IPC: 0.46911 (Simulation time: 1 hr 34 min 53 sec) 
Heartbeat CPU 0 instructions: 136000000 cycles: 213199259 heartbeat IPC: 0.585886 cumulative IPC: 0.4702 (Simulation time: 1 hr 35 min 10 sec) 
Heartbeat CPU 0 instructions: 137000001 cycles: 214863071 heartbeat IPC: 0.60103 cumulative IPC: 0.471379 (Simulation time: 1 hr 35 min 26 sec) 
Heartbeat CPU 0 instructions: 138000003 cycles: 216598371 heartbeat IPC: 0.57627 cumulative IPC: 0.472356 (Simulation time: 1 hr 35 min 42 sec) 
Heartbeat CPU 0 instructions: 139000000 cycles: 218340413 heartbeat IPC: 0.574037 cumulative IPC: 0.473298 (Simulation time: 1 hr 35 min 57 sec) 
Heartbeat CPU 0 instructions: 140000000 cycles: 220079572 heartbeat IPC: 0.574991 cumulative IPC: 0.47423 (Simulation time: 1 hr 36 min 12 sec) 
Heartbeat CPU 0 instructions: 141000002 cycles: 221757878 heartbeat IPC: 0.59584 cumulative IPC: 0.475296 (Simulation time: 1 hr 36 min 27 sec) 
Heartbeat CPU 0 instructions: 142000000 cycles: 228890929 heartbeat IPC: 0.140192 cumulative IPC: 0.46326 (Simulation time: 1 hr 36 min 44 sec) 
Heartbeat CPU 0 instructions: 143000000 cycles: 230631356 heartbeat IPC: 0.574572 cumulative IPC: 0.464227 (Simulation time: 1 hr 36 min 57 sec) 
Heartbeat CPU 0 instructions: 144000000 cycles: 232374383 heartbeat IPC: 0.573715 cumulative IPC: 0.465171 (Simulation time: 1 hr 37 min 10 sec) 
Heartbeat CPU 0 instructions: 145000002 cycles: 234086476 heartbeat IPC: 0.584082 cumulative IPC: 0.46617 (Simulation time: 1 hr 37 min 23 sec) 
Heartbeat CPU 0 instructions: 146000003 cycles: 235748448 heartbeat IPC: 0.601695 cumulative IPC: 0.467267 (Simulation time: 1 hr 37 min 35 sec) 
Heartbeat CPU 0 instructions: 147000001 cycles: 237483358 heartbeat IPC: 0.576398 cumulative IPC: 0.468181 (Simulation time: 1 hr 37 min 47 sec) 
Heartbeat CPU 0 instructions: 148000000 cycles: 239264808 heartbeat IPC: 0.56134 cumulative IPC: 0.468975 (Simulation time: 1 hr 37 min 58 sec) 
Heartbeat CPU 0 instructions: 149000001 cycles: 241007225 heartbeat IPC: 0.573916 cumulative IPC: 0.469843 (Simulation time: 1 hr 38 min 8 sec) 
Heartbeat CPU 0 instructions: 150000000 cycles: 242685880 heartbeat IPC: 0.595714 cumulative IPC: 0.470837 (Simulation time: 1 hr 38 min 19 sec) 
Finished CPU 0 instructions: 100000000 cycles: 212387549 cummulative IPC: 0.470837 (Simulation time: 1 hr 38 min 19 sec) 

ChampSim completed all CPUs

Region of Interest Statistics

CPU 0 cummulative IPC: 0.470837 instructions: 100000000 cycles: 212387549
LLC TOTAL     ACCESS:    1107845  HIT:     299281  MISS:     808564
LLC LOAD      ACCESS:      19206  HIT:       2739  MISS:      16467
LLC RFO       ACCESS:     245174  HIT:      87623  MISS:     157551
LLC PREFETCH  ACCESS:     596903  HIT:     100267  MISS:     496636
LLC WRITEBACK ACCESS:     246562  HIT:     108652  MISS:     137910
OPTgen accesses: 6488
OPTgen hits: 2324
OPTgen hit rate: 35.82


