
*** ChampSim Multicore Out-of-Order Simulator ***

Warmup Instructions: 50000000
Simulation Instructions: 100000000
Configuration: 2
Number of CPUs: 1
LLC sets: 2048
LLC ways: 16
Off-chip DRAM Channels: 1 Width: 64-bit Data Rate: 1600 MT/s

CPU 0 runs /datasets/cs240c-wi22-a00-public/data/Assignment2-gz/leslie3d_1186B.trace.gz
CPU 0 L1D next line prefetcher
CPU 0 L2C IP-based stride prefetcher
Initialize Hawkeye state
Heartbeat CPU 0 instructions: 1000002 cycles: 564509 heartbeat IPC: 1.77145 cumulative IPC: 1.77145 (Simulation time: 0 hr 0 min 45 sec) 
Heartbeat CPU 0 instructions: 2000000 cycles: 1215810 heartbeat IPC: 1.53539 cumulative IPC: 1.64499 (Simulation time: 0 hr 1 min 30 sec) 
Heartbeat CPU 0 instructions: 3000000 cycles: 1867537 heartbeat IPC: 1.53438 cumulative IPC: 1.60639 (Simulation time: 0 hr 2 min 19 sec) 
Heartbeat CPU 0 instructions: 4000000 cycles: 2473072 heartbeat IPC: 1.65143 cumulative IPC: 1.61742 (Simulation time: 0 hr 3 min 6 sec) 
Heartbeat CPU 0 instructions: 5000000 cycles: 3083389 heartbeat IPC: 1.63849 cumulative IPC: 1.62159 (Simulation time: 0 hr 3 min 50 sec) 
Heartbeat CPU 0 instructions: 6000000 cycles: 3735110 heartbeat IPC: 1.5344 cumulative IPC: 1.60638 (Simulation time: 0 hr 4 min 34 sec) 
Heartbeat CPU 0 instructions: 7000001 cycles: 4386339 heartbeat IPC: 1.53556 cumulative IPC: 1.59586 (Simulation time: 0 hr 5 min 19 sec) 
Heartbeat CPU 0 instructions: 8000000 cycles: 4950911 heartbeat IPC: 1.77125 cumulative IPC: 1.61586 (Simulation time: 0 hr 6 min 1 sec) 
Heartbeat CPU 0 instructions: 9000003 cycles: 5602199 heartbeat IPC: 1.53542 cumulative IPC: 1.60651 (Simulation time: 0 hr 6 min 46 sec) 
Heartbeat CPU 0 instructions: 10000001 cycles: 6253364 heartbeat IPC: 1.53571 cumulative IPC: 1.59914 (Simulation time: 0 hr 7 min 31 sec) 
Heartbeat CPU 0 instructions: 11000000 cycles: 6820146 heartbeat IPC: 1.76435 cumulative IPC: 1.61287 (Simulation time: 0 hr 8 min 13 sec) 
Heartbeat CPU 0 instructions: 12000000 cycles: 7469237 heartbeat IPC: 1.54062 cumulative IPC: 1.60659 (Simulation time: 0 hr 8 min 57 sec) 
Heartbeat CPU 0 instructions: 13000002 cycles: 8120722 heartbeat IPC: 1.53496 cumulative IPC: 1.60084 (Simulation time: 0 hr 9 min 41 sec) 
Heartbeat CPU 0 instructions: 14000000 cycles: 8755149 heartbeat IPC: 1.57622 cumulative IPC: 1.59906 (Simulation time: 0 hr 10 min 23 sec) 
Heartbeat CPU 0 instructions: 15000000 cycles: 9336234 heartbeat IPC: 1.72092 cumulative IPC: 1.60664 (Simulation time: 0 hr 11 min 6 sec) 
Heartbeat CPU 0 instructions: 16000000 cycles: 9987798 heartbeat IPC: 1.53477 cumulative IPC: 1.60195 (Simulation time: 0 hr 11 min 51 sec) 
Heartbeat CPU 0 instructions: 17000000 cycles: 10638862 heartbeat IPC: 1.53595 cumulative IPC: 1.59792 (Simulation time: 0 hr 12 min 35 sec) 
Heartbeat CPU 0 instructions: 18000003 cycles: 11203334 heartbeat IPC: 1.77157 cumulative IPC: 1.60666 (Simulation time: 0 hr 13 min 18 sec) 
Heartbeat CPU 0 instructions: 19000003 cycles: 11854614 heartbeat IPC: 1.53544 cumulative IPC: 1.60275 (Simulation time: 0 hr 14 min 4 sec) 
Heartbeat CPU 0 instructions: 20000000 cycles: 12505779 heartbeat IPC: 1.5357 cumulative IPC: 1.59926 (Simulation time: 0 hr 14 min 49 sec) 
Heartbeat CPU 0 instructions: 21000001 cycles: 13101420 heartbeat IPC: 1.67887 cumulative IPC: 1.60288 (Simulation time: 0 hr 15 min 32 sec) 
Heartbeat CPU 0 instructions: 22000003 cycles: 13721400 heartbeat IPC: 1.61296 cumulative IPC: 1.60334 (Simulation time: 0 hr 16 min 16 sec) 
Heartbeat CPU 0 instructions: 23000001 cycles: 14372563 heartbeat IPC: 1.53571 cumulative IPC: 1.60027 (Simulation time: 0 hr 17 min 1 sec) 
Heartbeat CPU 0 instructions: 24000000 cycles: 15024202 heartbeat IPC: 1.53459 cumulative IPC: 1.59742 (Simulation time: 0 hr 17 min 47 sec) 
Heartbeat CPU 0 instructions: 25000000 cycles: 15588256 heartbeat IPC: 1.77288 cumulative IPC: 1.60377 (Simulation time: 0 hr 18 min 30 sec) 
Heartbeat CPU 0 instructions: 26000003 cycles: 16240231 heartbeat IPC: 1.53381 cumulative IPC: 1.60096 (Simulation time: 0 hr 19 min 14 sec) 
Heartbeat CPU 0 instructions: 27000000 cycles: 16891857 heartbeat IPC: 1.53462 cumulative IPC: 1.5984 (Simulation time: 0 hr 19 min 59 sec) 
Heartbeat CPU 0 instructions: 28000000 cycles: 17455988 heartbeat IPC: 1.77264 cumulative IPC: 1.60403 (Simulation time: 0 hr 20 min 44 sec) 
Heartbeat CPU 0 instructions: 29000002 cycles: 18107429 heartbeat IPC: 1.53506 cumulative IPC: 1.60155 (Simulation time: 0 hr 21 min 29 sec) 
Heartbeat CPU 0 instructions: 30000002 cycles: 18758776 heartbeat IPC: 1.53528 cumulative IPC: 1.59925 (Simulation time: 0 hr 22 min 14 sec) 
Heartbeat CPU 0 instructions: 31000002 cycles: 19382825 heartbeat IPC: 1.60244 cumulative IPC: 1.59935 (Simulation time: 0 hr 22 min 58 sec) 
Heartbeat CPU 0 instructions: 32000000 cycles: 19974310 heartbeat IPC: 1.69066 cumulative IPC: 1.60206 (Simulation time: 0 hr 23 min 41 sec) 
Heartbeat CPU 0 instructions: 33000000 cycles: 20625867 heartbeat IPC: 1.53479 cumulative IPC: 1.59993 (Simulation time: 0 hr 24 min 26 sec) 
Heartbeat CPU 0 instructions: 34000000 cycles: 21277900 heartbeat IPC: 1.53366 cumulative IPC: 1.5979 (Simulation time: 0 hr 25 min 11 sec) 
Heartbeat CPU 0 instructions: 35000000 cycles: 21842141 heartbeat IPC: 1.77229 cumulative IPC: 1.60241 (Simulation time: 0 hr 25 min 52 sec) 
Heartbeat CPU 0 instructions: 36000000 cycles: 22493705 heartbeat IPC: 1.53477 cumulative IPC: 1.60045 (Simulation time: 0 hr 26 min 40 sec) 
Heartbeat CPU 0 instructions: 37000003 cycles: 23145420 heartbeat IPC: 1.53442 cumulative IPC: 1.59859 (Simulation time: 0 hr 27 min 25 sec) 
Heartbeat CPU 0 instructions: 38000002 cycles: 23731097 heartbeat IPC: 1.70742 cumulative IPC: 1.60127 (Simulation time: 0 hr 28 min 8 sec) 
Heartbeat CPU 0 instructions: 39000000 cycles: 24361306 heartbeat IPC: 1.58677 cumulative IPC: 1.6009 (Simulation time: 0 hr 28 min 53 sec) 
Heartbeat CPU 0 instructions: 40000000 cycles: 25013114 heartbeat IPC: 1.53419 cumulative IPC: 1.59916 (Simulation time: 0 hr 29 min 40 sec) 
Heartbeat CPU 0 instructions: 41000000 cycles: 25664088 heartbeat IPC: 1.53616 cumulative IPC: 1.59756 (Simulation time: 0 hr 30 min 25 sec) 
Heartbeat CPU 0 instructions: 42000000 cycles: 26228910 heartbeat IPC: 1.77047 cumulative IPC: 1.60129 (Simulation time: 0 hr 31 min 7 sec) 
Heartbeat CPU 0 instructions: 43000002 cycles: 26880026 heartbeat IPC: 1.53583 cumulative IPC: 1.5997 (Simulation time: 0 hr 31 min 51 sec) 
Heartbeat CPU 0 instructions: 44000000 cycles: 27531603 heartbeat IPC: 1.53473 cumulative IPC: 1.59816 (Simulation time: 0 hr 32 min 34 sec) 
Heartbeat CPU 0 instructions: 45000001 cycles: 28090728 heartbeat IPC: 1.78851 cumulative IPC: 1.60195 (Simulation time: 0 hr 33 min 15 sec) 
Heartbeat CPU 0 instructions: 46000001 cycles: 28591471 heartbeat IPC: 1.99703 cumulative IPC: 1.60887 (Simulation time: 0 hr 33 min 56 sec) 
Heartbeat CPU 0 instructions: 47000001 cycles: 29092145 heartbeat IPC: 1.99731 cumulative IPC: 1.61556 (Simulation time: 0 hr 34 min 39 sec) 
Heartbeat CPU 0 instructions: 48000000 cycles: 29593000 heartbeat IPC: 1.99658 cumulative IPC: 1.62201 (Simulation time: 0 hr 35 min 19 sec) 
Heartbeat CPU 0 instructions: 49000002 cycles: 30093386 heartbeat IPC: 1.99846 cumulative IPC: 1.62826 (Simulation time: 0 hr 35 min 59 sec) 
Heartbeat CPU 0 instructions: 50000001 cycles: 30594313 heartbeat IPC: 1.9963 cumulative IPC: 1.63429 (Simulation time: 0 hr 36 min 40 sec) 

Warmup complete CPU 0 instructions: 50000001 cycles: 30594313 (Simulation time: 0 hr 36 min 40 sec) 

Heartbeat CPU 0 instructions: 51000000 cycles: 32244543 heartbeat IPC: 0.605976 cumulative IPC: 0.605976 (Simulation time: 0 hr 37 min 28 sec) 
Heartbeat CPU 0 instructions: 52000000 cycles: 33800178 heartbeat IPC: 0.642824 cumulative IPC: 0.623856 (Simulation time: 0 hr 38 min 15 sec) 
Heartbeat CPU 0 instructions: 53000003 cycles: 35445437 heartbeat IPC: 0.607809 cumulative IPC: 0.618414 (Simulation time: 0 hr 39 min 3 sec) 
Heartbeat CPU 0 instructions: 54000003 cycles: 37009349 heartbeat IPC: 0.639422 cumulative IPC: 0.623535 (Simulation time: 0 hr 39 min 50 sec) 
Heartbeat CPU 0 instructions: 55000001 cycles: 38860071 heartbeat IPC: 0.540329 cumulative IPC: 0.604905 (Simulation time: 0 hr 40 min 38 sec) 
Heartbeat CPU 0 instructions: 56000000 cycles: 41238147 heartbeat IPC: 0.420508 cumulative IPC: 0.563707 (Simulation time: 0 hr 41 min 27 sec) 
Heartbeat CPU 0 instructions: 57000003 cycles: 43551808 heartbeat IPC: 0.432217 cumulative IPC: 0.540228 (Simulation time: 0 hr 42 min 20 sec) 
Heartbeat CPU 0 instructions: 58000001 cycles: 45916853 heartbeat IPC: 0.422824 cumulative IPC: 0.522107 (Simulation time: 0 hr 43 min 12 sec) 
Heartbeat CPU 0 instructions: 59000003 cycles: 48250200 heartbeat IPC: 0.42857 cumulative IPC: 0.509745 (Simulation time: 0 hr 44 min 7 sec) 
Heartbeat CPU 0 instructions: 60000000 cycles: 50609897 heartbeat IPC: 0.423782 cumulative IPC: 0.499611 (Simulation time: 0 hr 45 min 6 sec) 
Heartbeat CPU 0 instructions: 61000003 cycles: 52952867 heartbeat IPC: 0.42681 cumulative IPC: 0.491982 (Simulation time: 0 hr 46 min 4 sec) 
Heartbeat CPU 0 instructions: 62000001 cycles: 55288831 heartbeat IPC: 0.428088 cumulative IPC: 0.485938 (Simulation time: 0 hr 47 min 1 sec) 
Heartbeat CPU 0 instructions: 63000000 cycles: 57264809 heartbeat IPC: 0.506078 cumulative IPC: 0.48743 (Simulation time: 0 hr 47 min 56 sec) 
Heartbeat CPU 0 instructions: 64000000 cycles: 58499345 heartbeat IPC: 0.810021 cumulative IPC: 0.501702 (Simulation time: 0 hr 48 min 42 sec) 
Heartbeat CPU 0 instructions: 65000000 cycles: 59756620 heartbeat IPC: 0.795371 cumulative IPC: 0.514363 (Simulation time: 0 hr 49 min 27 sec) 
Heartbeat CPU 0 instructions: 66000002 cycles: 61002507 heartbeat IPC: 0.802643 cumulative IPC: 0.526174 (Simulation time: 0 hr 50 min 15 sec) 
Heartbeat CPU 0 instructions: 67000001 cycles: 62242946 heartbeat IPC: 0.806165 cumulative IPC: 0.537148 (Simulation time: 0 hr 51 min 1 sec) 
Heartbeat CPU 0 instructions: 68000000 cycles: 63551631 heartbeat IPC: 0.764125 cumulative IPC: 0.546161 (Simulation time: 0 hr 51 min 47 sec) 
Heartbeat CPU 0 instructions: 69000000 cycles: 64782070 heartbeat IPC: 0.812718 cumulative IPC: 0.555754 (Simulation time: 0 hr 52 min 32 sec) 
Heartbeat CPU 0 instructions: 70000000 cycles: 66060860 heartbeat IPC: 0.781989 cumulative IPC: 0.563912 (Simulation time: 0 hr 53 min 18 sec) 
Heartbeat CPU 0 instructions: 71000003 cycles: 67301418 heartbeat IPC: 0.806091 cumulative IPC: 0.572096 (Simulation time: 0 hr 54 min 3 sec) 
Heartbeat CPU 0 instructions: 72000000 cycles: 68570473 heartbeat IPC: 0.787986 cumulative IPC: 0.579311 (Simulation time: 0 hr 54 min 48 sec) 
Heartbeat CPU 0 instructions: 73000000 cycles: 69838056 heartbeat IPC: 0.788903 cumulative IPC: 0.586081 (Simulation time: 0 hr 55 min 35 sec) 
Heartbeat CPU 0 instructions: 74000000 cycles: 71078338 heartbeat IPC: 0.806268 cumulative IPC: 0.592826 (Simulation time: 0 hr 56 min 21 sec) 
Heartbeat CPU 0 instructions: 75000003 cycles: 72367291 heartbeat IPC: 0.775826 cumulative IPC: 0.598473 (Simulation time: 0 hr 57 min 10 sec) 
Heartbeat CPU 0 instructions: 76000000 cycles: 73611143 heartbeat IPC: 0.803952 cumulative IPC: 0.604415 (Simulation time: 0 hr 57 min 56 sec) 
Heartbeat CPU 0 instructions: 77000000 cycles: 74899351 heartbeat IPC: 0.776272 cumulative IPC: 0.609411 (Simulation time: 0 hr 58 min 44 sec) 
Heartbeat CPU 0 instructions: 78000001 cycles: 76160172 heartbeat IPC: 0.793135 cumulative IPC: 0.614495 (Simulation time: 0 hr 59 min 30 sec) 
Heartbeat CPU 0 instructions: 79000001 cycles: 77446721 heartbeat IPC: 0.777273 cumulative IPC: 0.618965 (Simulation time: 1 hr 0 min 17 sec) 
Heartbeat CPU 0 instructions: 80000000 cycles: 78724554 heartbeat IPC: 0.782574 cumulative IPC: 0.623309 (Simulation time: 1 hr 1 min 3 sec) 
Heartbeat CPU 0 instructions: 81000000 cycles: 79971488 heartbeat IPC: 0.801967 cumulative IPC: 0.62782 (Simulation time: 1 hr 1 min 47 sec) 
Heartbeat CPU 0 instructions: 82000003 cycles: 81257674 heartbeat IPC: 0.777495 cumulative IPC: 0.63162 (Simulation time: 1 hr 2 min 32 sec) 
Heartbeat CPU 0 instructions: 83000001 cycles: 82515415 heartbeat IPC: 0.795075 cumulative IPC: 0.63558 (Simulation time: 1 hr 3 min 16 sec) 
Heartbeat CPU 0 instructions: 84000000 cycles: 83797315 heartbeat IPC: 0.780091 cumulative IPC: 0.639062 (Simulation time: 1 hr 3 min 58 sec) 
Heartbeat CPU 0 instructions: 85000001 cycles: 85054919 heartbeat IPC: 0.795164 cumulative IPC: 0.642666 (Simulation time: 1 hr 4 min 42 sec) 
Heartbeat CPU 0 instructions: 86000003 cycles: 86336095 heartbeat IPC: 0.780534 cumulative IPC: 0.645835 (Simulation time: 1 hr 5 min 23 sec) 
Heartbeat CPU 0 instructions: 87000001 cycles: 87598687 heartbeat IPC: 0.79202 cumulative IPC: 0.649073 (Simulation time: 1 hr 6 min 8 sec) 
Heartbeat CPU 0 instructions: 88000000 cycles: 88865568 heartbeat IPC: 0.789339 cumulative IPC: 0.652123 (Simulation time: 1 hr 6 min 57 sec) 
Heartbeat CPU 0 instructions: 89000001 cycles: 90157236 heartbeat IPC: 0.774194 cumulative IPC: 0.65477 (Simulation time: 1 hr 7 min 34 sec) 
Heartbeat CPU 0 instructions: 90000003 cycles: 91428865 heartbeat IPC: 0.786394 cumulative IPC: 0.657521 (Simulation time: 1 hr 8 min 17 sec) 
Heartbeat CPU 0 instructions: 91000000 cycles: 92727856 heartbeat IPC: 0.769826 cumulative IPC: 0.659869 (Simulation time: 1 hr 8 min 54 sec) 
Heartbeat CPU 0 instructions: 92000000 cycles: 93989819 heartbeat IPC: 0.792416 cumulative IPC: 0.662508 (Simulation time: 1 hr 9 min 32 sec) 
Heartbeat CPU 0 instructions: 93000002 cycles: 95292547 heartbeat IPC: 0.767621 cumulative IPC: 0.664624 (Simulation time: 1 hr 10 min 10 sec) 
Heartbeat CPU 0 instructions: 94000000 cycles: 96535748 heartbeat IPC: 0.804374 cumulative IPC: 0.667259 (Simulation time: 1 hr 10 min 52 sec) 
Heartbeat CPU 0 instructions: 95000003 cycles: 97778639 heartbeat IPC: 0.804578 cumulative IPC: 0.669799 (Simulation time: 1 hr 11 min 31 sec) 
Heartbeat CPU 0 instructions: 96000000 cycles: 99057463 heartbeat IPC: 0.781966 cumulative IPC: 0.671894 (Simulation time: 1 hr 12 min 9 sec) 
Heartbeat CPU 0 instructions: 97000001 cycles: 100298291 heartbeat IPC: 0.805914 cumulative IPC: 0.67428 (Simulation time: 1 hr 12 min 48 sec) 
Heartbeat CPU 0 instructions: 98000002 cycles: 101590697 heartbeat IPC: 0.773751 cumulative IPC: 0.676091 (Simulation time: 1 hr 13 min 30 sec) 
Heartbeat CPU 0 instructions: 99000000 cycles: 102830646 heartbeat IPC: 0.806483 cumulative IPC: 0.678329 (Simulation time: 1 hr 14 min 4 sec) 
Heartbeat CPU 0 instructions: 100000000 cycles: 104123573 heartbeat IPC: 0.773439 cumulative IPC: 0.680001 (Simulation time: 1 hr 14 min 38 sec) 
Heartbeat CPU 0 instructions: 101000000 cycles: 105369858 heartbeat IPC: 0.802385 cumulative IPC: 0.682041 (Simulation time: 1 hr 15 min 12 sec) 
Heartbeat CPU 0 instructions: 102000001 cycles: 106616026 heartbeat IPC: 0.802461 cumulative IPC: 0.684015 (Simulation time: 1 hr 15 min 50 sec) 
Heartbeat CPU 0 instructions: 103000002 cycles: 107915007 heartbeat IPC: 0.769835 cumulative IPC: 0.685457 (Simulation time: 1 hr 16 min 26 sec) 
Heartbeat CPU 0 instructions: 104000000 cycles: 109154825 heartbeat IPC: 0.806568 cumulative IPC: 0.687368 (Simulation time: 1 hr 17 min 2 sec) 
Heartbeat CPU 0 instructions: 105000001 cycles: 110453359 heartbeat IPC: 0.7701 cumulative IPC: 0.688713 (Simulation time: 1 hr 17 min 38 sec) 
Heartbeat CPU 0 instructions: 106000002 cycles: 111700740 heartbeat IPC: 0.801681 cumulative IPC: 0.690451 (Simulation time: 1 hr 18 min 10 sec) 
Heartbeat CPU 0 instructions: 107000000 cycles: 112987952 heartbeat IPC: 0.776871 cumulative IPC: 0.691801 (Simulation time: 1 hr 18 min 44 sec) 
Heartbeat CPU 0 instructions: 108000000 cycles: 114245428 heartbeat IPC: 0.795244 cumulative IPC: 0.693356 (Simulation time: 1 hr 19 min 18 sec) 
Heartbeat CPU 0 instructions: 109000003 cycles: 115492126 heartbeat IPC: 0.802121 cumulative IPC: 0.694953 (Simulation time: 1 hr 19 min 52 sec) 
Heartbeat CPU 0 instructions: 110000001 cycles: 116785435 heartbeat IPC: 0.773209 cumulative IPC: 0.696127 (Simulation time: 1 hr 20 min 28 sec) 
Heartbeat CPU 0 instructions: 111000001 cycles: 118022307 heartbeat IPC: 0.808491 cumulative IPC: 0.697717 (Simulation time: 1 hr 21 min 3 sec) 
Heartbeat CPU 0 instructions: 112000000 cycles: 119359305 heartbeat IPC: 0.747944 cumulative IPC: 0.698474 (Simulation time: 1 hr 21 min 43 sec) 
Heartbeat CPU 0 instructions: 113000000 cycles: 121045484 heartbeat IPC: 0.593057 cumulative IPC: 0.696508 (Simulation time: 1 hr 22 min 20 sec) 
Heartbeat CPU 0 instructions: 114000000 cycles: 122663807 heartbeat IPC: 0.617924 cumulative IPC: 0.695127 (Simulation time: 1 hr 22 min 55 sec) 
Heartbeat CPU 0 instructions: 115000000 cycles: 124278947 heartbeat IPC: 0.619141 cumulative IPC: 0.693817 (Simulation time: 1 hr 23 min 26 sec) 
Heartbeat CPU 0 instructions: 116000000 cycles: 125894545 heartbeat IPC: 0.618966 cumulative IPC: 0.692548 (Simulation time: 1 hr 23 min 56 sec) 
Heartbeat CPU 0 instructions: 117000002 cycles: 127511749 heartbeat IPC: 0.618352 cumulative IPC: 0.69131 (Simulation time: 1 hr 24 min 23 sec) 
Heartbeat CPU 0 instructions: 118000000 cycles: 129144883 heartbeat IPC: 0.612318 cumulative IPC: 0.690001 (Simulation time: 1 hr 24 min 49 sec) 
Heartbeat CPU 0 instructions: 119000001 cycles: 130778504 heartbeat IPC: 0.612138 cumulative IPC: 0.688731 (Simulation time: 1 hr 25 min 13 sec) 
Heartbeat CPU 0 instructions: 120000000 cycles: 132448152 heartbeat IPC: 0.598928 cumulative IPC: 0.687259 (Simulation time: 1 hr 25 min 39 sec) 
Heartbeat CPU 0 instructions: 121000002 cycles: 134104643 heartbeat IPC: 0.603687 cumulative IPC: 0.685922 (Simulation time: 1 hr 26 min 5 sec) 
Heartbeat CPU 0 instructions: 122000000 cycles: 135783641 heartbeat IPC: 0.595592 cumulative IPC: 0.68448 (Simulation time: 1 hr 26 min 32 sec) 
Heartbeat CPU 0 instructions: 123000002 cycles: 137437035 heartbeat IPC: 0.604818 cumulative IPC: 0.683247 (Simulation time: 1 hr 26 min 57 sec) 
Heartbeat CPU 0 instructions: 124000000 cycles: 139094801 heartbeat IPC: 0.60322 cumulative IPC: 0.682025 (Simulation time: 1 hr 27 min 20 sec) 
Heartbeat CPU 0 instructions: 125000003 cycles: 140761240 heartbeat IPC: 0.600084 cumulative IPC: 0.680785 (Simulation time: 1 hr 27 min 44 sec) 
Heartbeat CPU 0 instructions: 126000000 cycles: 142408165 heartbeat IPC: 0.60719 cumulative IPC: 0.679701 (Simulation time: 1 hr 28 min 12 sec) 
Heartbeat CPU 0 instructions: 127000001 cycles: 144102656 heartbeat IPC: 0.590148 cumulative IPC: 0.678364 (Simulation time: 1 hr 28 min 37 sec) 
Heartbeat CPU 0 instructions: 128000000 cycles: 145760447 heartbeat IPC: 0.603212 cumulative IPC: 0.677282 (Simulation time: 1 hr 29 min 1 sec) 
Heartbeat CPU 0 instructions: 129000001 cycles: 147399591 heartbeat IPC: 0.610075 cumulative IPC: 0.676339 (Simulation time: 1 hr 29 min 27 sec) 
Heartbeat CPU 0 instructions: 130000003 cycles: 149082773 heartbeat IPC: 0.594114 cumulative IPC: 0.675171 (Simulation time: 1 hr 29 min 51 sec) 
Heartbeat CPU 0 instructions: 131000001 cycles: 154531113 heartbeat IPC: 0.183542 cumulative IPC: 0.653559 (Simulation time: 1 hr 30 min 39 sec) 
Heartbeat CPU 0 instructions: 132000000 cycles: 157451749 heartbeat IPC: 0.342391 cumulative IPC: 0.646395 (Simulation time: 1 hr 31 min 21 sec) 
Heartbeat CPU 0 instructions: 133000000 cycles: 160022741 heartbeat IPC: 0.388955 cumulative IPC: 0.641281 (Simulation time: 1 hr 31 min 55 sec) 
Heartbeat CPU 0 instructions: 134000000 cycles: 161375756 heartbeat IPC: 0.73909 cumulative IPC: 0.642293 (Simulation time: 1 hr 32 min 13 sec) 
Heartbeat CPU 0 instructions: 135000001 cycles: 162633635 heartbeat IPC: 0.79499 cumulative IPC: 0.643748 (Simulation time: 1 hr 32 min 31 sec) 
Heartbeat CPU 0 instructions: 136000000 cycles: 163896332 heartbeat IPC: 0.791955 cumulative IPC: 0.645151 (Simulation time: 1 hr 32 min 50 sec) 
Heartbeat CPU 0 instructions: 137000001 cycles: 165327990 heartbeat IPC: 0.698492 cumulative IPC: 0.645718 (Simulation time: 1 hr 33 min 10 sec) 
Heartbeat CPU 0 instructions: 138000003 cycles: 166879221 heartbeat IPC: 0.644651 cumulative IPC: 0.645706 (Simulation time: 1 hr 33 min 29 sec) 
Heartbeat CPU 0 instructions: 139000001 cycles: 168384515 heartbeat IPC: 0.664321 cumulative IPC: 0.645909 (Simulation time: 1 hr 33 min 46 sec) 
Heartbeat CPU 0 instructions: 140000000 cycles: 169904105 heartbeat IPC: 0.658072 cumulative IPC: 0.646042 (Simulation time: 1 hr 34 min 4 sec) 
Heartbeat CPU 0 instructions: 141000003 cycles: 171423270 heartbeat IPC: 0.658258 cumulative IPC: 0.646174 (Simulation time: 1 hr 34 min 20 sec) 
Heartbeat CPU 0 instructions: 142000003 cycles: 172976667 heartbeat IPC: 0.64375 cumulative IPC: 0.646147 (Simulation time: 1 hr 34 min 35 sec) 
Heartbeat CPU 0 instructions: 143000000 cycles: 174486529 heartbeat IPC: 0.66231 cumulative IPC: 0.646317 (Simulation time: 1 hr 34 min 50 sec) 
Heartbeat CPU 0 instructions: 144000000 cycles: 175999455 heartbeat IPC: 0.660971 cumulative IPC: 0.64647 (Simulation time: 1 hr 35 min 6 sec) 
Heartbeat CPU 0 instructions: 145000001 cycles: 177548141 heartbeat IPC: 0.645709 cumulative IPC: 0.646462 (Simulation time: 1 hr 35 min 21 sec) 
Heartbeat CPU 0 instructions: 146000003 cycles: 179069472 heartbeat IPC: 0.65732 cumulative IPC: 0.646573 (Simulation time: 1 hr 35 min 34 sec) 
Heartbeat CPU 0 instructions: 147000001 cycles: 181115189 heartbeat IPC: 0.488825 cumulative IPC: 0.644429 (Simulation time: 1 hr 35 min 49 sec) 
Heartbeat CPU 0 instructions: 148000000 cycles: 183616936 heartbeat IPC: 0.39972 cumulative IPC: 0.640428 (Simulation time: 1 hr 36 min 6 sec) 
Heartbeat CPU 0 instructions: 149000003 cycles: 185998272 heartbeat IPC: 0.419934 cumulative IPC: 0.637049 (Simulation time: 1 hr 36 min 21 sec) 
Heartbeat CPU 0 instructions: 150000001 cycles: 188296361 heartbeat IPC: 0.435143 cumulative IPC: 0.634107 (Simulation time: 1 hr 36 min 36 sec) 
Finished CPU 0 instructions: 100000000 cycles: 157702048 cummulative IPC: 0.634107 (Simulation time: 1 hr 36 min 36 sec) 

ChampSim completed all CPUs

Region of Interest Statistics

CPU 0 cummulative IPC: 0.634107 instructions: 100000000 cycles: 157702048
LLC TOTAL     ACCESS:    4660906  HIT:    1273882  MISS:    3387024
LLC LOAD      ACCESS:     475659  HIT:     126780  MISS:     348879
LLC RFO       ACCESS:     797675  HIT:      90858  MISS:     706817
LLC PREFETCH  ACCESS:    2243078  HIT:     519994  MISS:    1723084
LLC WRITEBACK ACCESS:    1144494  HIT:     536250  MISS:     608244
OPTgen accesses: 23816
OPTgen hits: 11492
OPTgen hit rate: 48.2533


