
*** ChampSim Multicore Out-of-Order Simulator ***

Warmup Instructions: 50000000
Simulation Instructions: 100000000
Configuration: 2
Number of CPUs: 1
LLC sets: 2048
LLC ways: 16
Off-chip DRAM Channels: 1 Width: 64-bit Data Rate: 1600 MT/s

CPU 0 runs /datasets/cs240c-wi22-a00-public/data/Assignment2-gz/milc_744B.trace.gz
CPU 0 L1D next line prefetcher
CPU 0 L2C IP-based stride prefetcher
Initialize Hawkeye state
Heartbeat CPU 0 instructions: 1000000 cycles: 383656 heartbeat IPC: 2.6065 cumulative IPC: 2.6065 (Simulation time: 0 hr 0 min 35 sec) 
Heartbeat CPU 0 instructions: 2000001 cycles: 767293 heartbeat IPC: 2.60663 cumulative IPC: 2.60657 (Simulation time: 0 hr 1 min 10 sec) 
Heartbeat CPU 0 instructions: 3000001 cycles: 1150974 heartbeat IPC: 2.60633 cumulative IPC: 2.60649 (Simulation time: 0 hr 1 min 48 sec) 
Heartbeat CPU 0 instructions: 4000000 cycles: 1534617 heartbeat IPC: 2.60659 cumulative IPC: 2.60651 (Simulation time: 0 hr 2 min 23 sec) 
Heartbeat CPU 0 instructions: 5000001 cycles: 1918298 heartbeat IPC: 2.60633 cumulative IPC: 2.60648 (Simulation time: 0 hr 2 min 58 sec) 
Heartbeat CPU 0 instructions: 6000002 cycles: 2301951 heartbeat IPC: 2.60652 cumulative IPC: 2.60649 (Simulation time: 0 hr 3 min 34 sec) 
Heartbeat CPU 0 instructions: 7000002 cycles: 2685605 heartbeat IPC: 2.60652 cumulative IPC: 2.60649 (Simulation time: 0 hr 4 min 13 sec) 
Heartbeat CPU 0 instructions: 8000000 cycles: 3069239 heartbeat IPC: 2.60665 cumulative IPC: 2.60651 (Simulation time: 0 hr 4 min 49 sec) 
Heartbeat CPU 0 instructions: 9000003 cycles: 3452946 heartbeat IPC: 2.60616 cumulative IPC: 2.60647 (Simulation time: 0 hr 5 min 27 sec) 
Heartbeat CPU 0 instructions: 10000002 cycles: 3836611 heartbeat IPC: 2.60644 cumulative IPC: 2.60647 (Simulation time: 0 hr 6 min 5 sec) 
Heartbeat CPU 0 instructions: 11000003 cycles: 4220269 heartbeat IPC: 2.60649 cumulative IPC: 2.60647 (Simulation time: 0 hr 6 min 40 sec) 
Heartbeat CPU 0 instructions: 12000000 cycles: 4603919 heartbeat IPC: 2.60653 cumulative IPC: 2.60648 (Simulation time: 0 hr 7 min 15 sec) 
Heartbeat CPU 0 instructions: 13000002 cycles: 4987595 heartbeat IPC: 2.60637 cumulative IPC: 2.60647 (Simulation time: 0 hr 7 min 51 sec) 
Heartbeat CPU 0 instructions: 14000001 cycles: 5371239 heartbeat IPC: 2.60658 cumulative IPC: 2.60648 (Simulation time: 0 hr 8 min 29 sec) 
Heartbeat CPU 0 instructions: 15000001 cycles: 5754911 heartbeat IPC: 2.60639 cumulative IPC: 2.60647 (Simulation time: 0 hr 9 min 6 sec) 
Heartbeat CPU 0 instructions: 16000000 cycles: 6138558 heartbeat IPC: 2.60656 cumulative IPC: 2.60648 (Simulation time: 0 hr 9 min 44 sec) 
Heartbeat CPU 0 instructions: 17000001 cycles: 6522213 heartbeat IPC: 2.60651 cumulative IPC: 2.60648 (Simulation time: 0 hr 10 min 20 sec) 
Heartbeat CPU 0 instructions: 18000003 cycles: 6905855 heartbeat IPC: 2.6066 cumulative IPC: 2.60648 (Simulation time: 0 hr 10 min 58 sec) 
Heartbeat CPU 0 instructions: 19000002 cycles: 7289496 heartbeat IPC: 2.6066 cumulative IPC: 2.60649 (Simulation time: 0 hr 11 min 35 sec) 
Heartbeat CPU 0 instructions: 20000000 cycles: 7673132 heartbeat IPC: 2.60663 cumulative IPC: 2.6065 (Simulation time: 0 hr 12 min 11 sec) 
Heartbeat CPU 0 instructions: 21000003 cycles: 8056837 heartbeat IPC: 2.60618 cumulative IPC: 2.60648 (Simulation time: 0 hr 12 min 48 sec) 
Heartbeat CPU 0 instructions: 22000002 cycles: 8440504 heartbeat IPC: 2.60642 cumulative IPC: 2.60648 (Simulation time: 0 hr 13 min 23 sec) 
Heartbeat CPU 0 instructions: 23000000 cycles: 8824165 heartbeat IPC: 2.60646 cumulative IPC: 2.60648 (Simulation time: 0 hr 13 min 59 sec) 
Heartbeat CPU 0 instructions: 24000000 cycles: 9207788 heartbeat IPC: 2.60673 cumulative IPC: 2.60649 (Simulation time: 0 hr 14 min 34 sec) 
Heartbeat CPU 0 instructions: 25000002 cycles: 9591463 heartbeat IPC: 2.60638 cumulative IPC: 2.60648 (Simulation time: 0 hr 15 min 11 sec) 
Heartbeat CPU 0 instructions: 26000001 cycles: 9975122 heartbeat IPC: 2.60648 cumulative IPC: 2.60648 (Simulation time: 0 hr 15 min 46 sec) 
Heartbeat CPU 0 instructions: 27000001 cycles: 10358818 heartbeat IPC: 2.60623 cumulative IPC: 2.60648 (Simulation time: 0 hr 16 min 21 sec) 
Heartbeat CPU 0 instructions: 28000000 cycles: 10742467 heartbeat IPC: 2.60655 cumulative IPC: 2.60648 (Simulation time: 0 hr 16 min 57 sec) 
Heartbeat CPU 0 instructions: 29000000 cycles: 11126140 heartbeat IPC: 2.60639 cumulative IPC: 2.60647 (Simulation time: 0 hr 17 min 32 sec) 
Heartbeat CPU 0 instructions: 30000003 cycles: 11509791 heartbeat IPC: 2.60654 cumulative IPC: 2.60648 (Simulation time: 0 hr 18 min 7 sec) 
Heartbeat CPU 0 instructions: 31000002 cycles: 11893424 heartbeat IPC: 2.60666 cumulative IPC: 2.60648 (Simulation time: 0 hr 18 min 44 sec) 
Heartbeat CPU 0 instructions: 32000000 cycles: 12277079 heartbeat IPC: 2.6065 cumulative IPC: 2.60648 (Simulation time: 0 hr 19 min 21 sec) 
Heartbeat CPU 0 instructions: 33000001 cycles: 12660737 heartbeat IPC: 2.60649 cumulative IPC: 2.60648 (Simulation time: 0 hr 19 min 57 sec) 
Heartbeat CPU 0 instructions: 34000002 cycles: 13044413 heartbeat IPC: 2.60637 cumulative IPC: 2.60648 (Simulation time: 0 hr 20 min 32 sec) 
Heartbeat CPU 0 instructions: 35000000 cycles: 13428051 heartbeat IPC: 2.60662 cumulative IPC: 2.60648 (Simulation time: 0 hr 21 min 7 sec) 
Heartbeat CPU 0 instructions: 36000000 cycles: 13811694 heartbeat IPC: 2.60659 cumulative IPC: 2.60649 (Simulation time: 0 hr 21 min 42 sec) 
Heartbeat CPU 0 instructions: 37000001 cycles: 14195360 heartbeat IPC: 2.60644 cumulative IPC: 2.60649 (Simulation time: 0 hr 22 min 19 sec) 
Heartbeat CPU 0 instructions: 38000000 cycles: 14579025 heartbeat IPC: 2.60644 cumulative IPC: 2.60648 (Simulation time: 0 hr 22 min 54 sec) 
Heartbeat CPU 0 instructions: 39000002 cycles: 14962680 heartbeat IPC: 2.60651 cumulative IPC: 2.60649 (Simulation time: 0 hr 23 min 30 sec) 
Heartbeat CPU 0 instructions: 40000000 cycles: 15346358 heartbeat IPC: 2.60635 cumulative IPC: 2.60648 (Simulation time: 0 hr 24 min 6 sec) 
Heartbeat CPU 0 instructions: 41000003 cycles: 15730024 heartbeat IPC: 2.60644 cumulative IPC: 2.60648 (Simulation time: 0 hr 24 min 41 sec) 
Heartbeat CPU 0 instructions: 42000002 cycles: 16113669 heartbeat IPC: 2.60657 cumulative IPC: 2.60648 (Simulation time: 0 hr 25 min 17 sec) 
Heartbeat CPU 0 instructions: 43000002 cycles: 16497335 heartbeat IPC: 2.60643 cumulative IPC: 2.60648 (Simulation time: 0 hr 25 min 51 sec) 
Heartbeat CPU 0 instructions: 44000000 cycles: 16880988 heartbeat IPC: 2.60652 cumulative IPC: 2.60648 (Simulation time: 0 hr 26 min 26 sec) 
Heartbeat CPU 0 instructions: 45000000 cycles: 17264648 heartbeat IPC: 2.60647 cumulative IPC: 2.60648 (Simulation time: 0 hr 27 min 1 sec) 
Heartbeat CPU 0 instructions: 46000002 cycles: 17648338 heartbeat IPC: 2.60628 cumulative IPC: 2.60648 (Simulation time: 0 hr 27 min 37 sec) 
Heartbeat CPU 0 instructions: 47000002 cycles: 18031991 heartbeat IPC: 2.60652 cumulative IPC: 2.60648 (Simulation time: 0 hr 28 min 14 sec) 
Heartbeat CPU 0 instructions: 48000000 cycles: 18415635 heartbeat IPC: 2.60658 cumulative IPC: 2.60648 (Simulation time: 0 hr 28 min 49 sec) 
Heartbeat CPU 0 instructions: 49000001 cycles: 18799298 heartbeat IPC: 2.60646 cumulative IPC: 2.60648 (Simulation time: 0 hr 29 min 22 sec) 
Heartbeat CPU 0 instructions: 50000000 cycles: 19182930 heartbeat IPC: 2.60666 cumulative IPC: 2.60648 (Simulation time: 0 hr 29 min 57 sec) 

Warmup complete CPU 0 instructions: 50000004 cycles: 19182931 (Simulation time: 0 hr 29 min 57 sec) 

Heartbeat CPU 0 instructions: 51000001 cycles: 20631920 heartbeat IPC: 0.690137 cumulative IPC: 0.690134 (Simulation time: 0 hr 30 min 36 sec) 
Heartbeat CPU 0 instructions: 52000000 cycles: 22063727 heartbeat IPC: 0.698417 cumulative IPC: 0.694251 (Simulation time: 0 hr 31 min 15 sec) 
Heartbeat CPU 0 instructions: 53000000 cycles: 23484645 heartbeat IPC: 0.70377 cumulative IPC: 0.697396 (Simulation time: 0 hr 31 min 56 sec) 
Heartbeat CPU 0 instructions: 54000001 cycles: 24904024 heartbeat IPC: 0.704534 cumulative IPC: 0.699167 (Simulation time: 0 hr 32 min 34 sec) 
Heartbeat CPU 0 instructions: 55000003 cycles: 26326910 heartbeat IPC: 0.702798 cumulative IPC: 0.69989 (Simulation time: 0 hr 33 min 12 sec) 
Heartbeat CPU 0 instructions: 56000000 cycles: 27752253 heartbeat IPC: 0.701583 cumulative IPC: 0.700172 (Simulation time: 0 hr 33 min 51 sec) 
Heartbeat CPU 0 instructions: 57000000 cycles: 29171502 heartbeat IPC: 0.704598 cumulative IPC: 0.700801 (Simulation time: 0 hr 34 min 30 sec) 
Heartbeat CPU 0 instructions: 58000000 cycles: 30588480 heartbeat IPC: 0.705727 cumulative IPC: 0.701413 (Simulation time: 0 hr 35 min 8 sec) 
Heartbeat CPU 0 instructions: 59000002 cycles: 32010639 heartbeat IPC: 0.703158 cumulative IPC: 0.701606 (Simulation time: 0 hr 35 min 47 sec) 
Heartbeat CPU 0 instructions: 60000000 cycles: 33423658 heartbeat IPC: 0.707703 cumulative IPC: 0.702211 (Simulation time: 0 hr 36 min 25 sec) 
Heartbeat CPU 0 instructions: 61000001 cycles: 34842537 heartbeat IPC: 0.704782 cumulative IPC: 0.702444 (Simulation time: 0 hr 37 min 3 sec) 
Heartbeat CPU 0 instructions: 62000003 cycles: 36272694 heartbeat IPC: 0.699225 cumulative IPC: 0.702175 (Simulation time: 0 hr 37 min 43 sec) 
Heartbeat CPU 0 instructions: 63000001 cycles: 37693273 heartbeat IPC: 0.703937 cumulative IPC: 0.70231 (Simulation time: 0 hr 38 min 22 sec) 
Heartbeat CPU 0 instructions: 64000000 cycles: 39111813 heartbeat IPC: 0.704949 cumulative IPC: 0.702498 (Simulation time: 0 hr 39 min 1 sec) 
Heartbeat CPU 0 instructions: 65000002 cycles: 40535519 heartbeat IPC: 0.702394 cumulative IPC: 0.702491 (Simulation time: 0 hr 39 min 38 sec) 
Heartbeat CPU 0 instructions: 66000001 cycles: 41952255 heartbeat IPC: 0.705847 cumulative IPC: 0.7027 (Simulation time: 0 hr 40 min 17 sec) 
Heartbeat CPU 0 instructions: 67000003 cycles: 43373336 heartbeat IPC: 0.703691 cumulative IPC: 0.702758 (Simulation time: 0 hr 40 min 55 sec) 
Heartbeat CPU 0 instructions: 68000000 cycles: 44801173 heartbeat IPC: 0.700358 cumulative IPC: 0.702624 (Simulation time: 0 hr 41 min 36 sec) 
Heartbeat CPU 0 instructions: 69000003 cycles: 46224047 heartbeat IPC: 0.702805 cumulative IPC: 0.702634 (Simulation time: 0 hr 42 min 13 sec) 
Heartbeat CPU 0 instructions: 70000002 cycles: 47640827 heartbeat IPC: 0.705825 cumulative IPC: 0.702793 (Simulation time: 0 hr 42 min 50 sec) 
Heartbeat CPU 0 instructions: 71000002 cycles: 49049718 heartbeat IPC: 0.709778 cumulative IPC: 0.703122 (Simulation time: 0 hr 43 min 27 sec) 
Heartbeat CPU 0 instructions: 72000000 cycles: 50473323 heartbeat IPC: 0.702441 cumulative IPC: 0.703091 (Simulation time: 0 hr 44 min 6 sec) 
Heartbeat CPU 0 instructions: 73000002 cycles: 51896364 heartbeat IPC: 0.702722 cumulative IPC: 0.703075 (Simulation time: 0 hr 44 min 44 sec) 
Heartbeat CPU 0 instructions: 74000002 cycles: 53316071 heartbeat IPC: 0.704371 cumulative IPC: 0.703129 (Simulation time: 0 hr 45 min 23 sec) 
Heartbeat CPU 0 instructions: 75000001 cycles: 54733601 heartbeat IPC: 0.705452 cumulative IPC: 0.703222 (Simulation time: 0 hr 46 min 2 sec) 
Heartbeat CPU 0 instructions: 76000000 cycles: 56154547 heartbeat IPC: 0.703756 cumulative IPC: 0.703242 (Simulation time: 0 hr 46 min 39 sec) 
Heartbeat CPU 0 instructions: 77000002 cycles: 57573848 heartbeat IPC: 0.704574 cumulative IPC: 0.703291 (Simulation time: 0 hr 47 min 17 sec) 
Heartbeat CPU 0 instructions: 78000000 cycles: 58996778 heartbeat IPC: 0.702774 cumulative IPC: 0.703273 (Simulation time: 0 hr 47 min 55 sec) 
Heartbeat CPU 0 instructions: 79000000 cycles: 60422129 heartbeat IPC: 0.701582 cumulative IPC: 0.703214 (Simulation time: 0 hr 48 min 34 sec) 
Heartbeat CPU 0 instructions: 80000000 cycles: 61843464 heartbeat IPC: 0.703564 cumulative IPC: 0.703226 (Simulation time: 0 hr 49 min 13 sec) 
Heartbeat CPU 0 instructions: 81000003 cycles: 63262689 heartbeat IPC: 0.704612 cumulative IPC: 0.703271 (Simulation time: 0 hr 49 min 52 sec) 
Heartbeat CPU 0 instructions: 82000003 cycles: 64684719 heartbeat IPC: 0.70322 cumulative IPC: 0.703269 (Simulation time: 0 hr 50 min 30 sec) 
Heartbeat CPU 0 instructions: 83000002 cycles: 66106911 heartbeat IPC: 0.703139 cumulative IPC: 0.703265 (Simulation time: 0 hr 51 min 9 sec) 
Heartbeat CPU 0 instructions: 84000000 cycles: 67527281 heartbeat IPC: 0.70404 cumulative IPC: 0.703288 (Simulation time: 0 hr 51 min 48 sec) 
Heartbeat CPU 0 instructions: 85000000 cycles: 68947357 heartbeat IPC: 0.704188 cumulative IPC: 0.703314 (Simulation time: 0 hr 52 min 27 sec) 
Heartbeat CPU 0 instructions: 86000001 cycles: 70366631 heartbeat IPC: 0.704586 cumulative IPC: 0.703349 (Simulation time: 0 hr 53 min 7 sec) 
Heartbeat CPU 0 instructions: 87000001 cycles: 71792318 heartbeat IPC: 0.701416 cumulative IPC: 0.703296 (Simulation time: 0 hr 53 min 45 sec) 
Heartbeat CPU 0 instructions: 88000000 cycles: 73213904 heartbeat IPC: 0.703439 cumulative IPC: 0.7033 (Simulation time: 0 hr 54 min 24 sec) 
Heartbeat CPU 0 instructions: 89000001 cycles: 74628649 heartbeat IPC: 0.706842 cumulative IPC: 0.703391 (Simulation time: 0 hr 55 min 2 sec) 
Heartbeat CPU 0 instructions: 90000000 cycles: 76055374 heartbeat IPC: 0.700905 cumulative IPC: 0.703328 (Simulation time: 0 hr 55 min 41 sec) 
Heartbeat CPU 0 instructions: 91000001 cycles: 77479644 heartbeat IPC: 0.702115 cumulative IPC: 0.703299 (Simulation time: 0 hr 56 min 21 sec) 
Heartbeat CPU 0 instructions: 92000000 cycles: 82032940 heartbeat IPC: 0.219621 cumulative IPC: 0.668258 (Simulation time: 0 hr 57 min 46 sec) 
Heartbeat CPU 0 instructions: 93000000 cycles: 86676211 heartbeat IPC: 0.215365 cumulative IPC: 0.6371 (Simulation time: 0 hr 59 min 12 sec) 
Heartbeat CPU 0 instructions: 94000000 cycles: 89872853 heartbeat IPC: 0.312828 cumulative IPC: 0.622437 (Simulation time: 1 hr 0 min 20 sec) 
Heartbeat CPU 0 instructions: 95000000 cycles: 91179514 heartbeat IPC: 0.765309 cumulative IPC: 0.62503 (Simulation time: 1 hr 1 min 4 sec) 
Heartbeat CPU 0 instructions: 96000000 cycles: 92528654 heartbeat IPC: 0.741213 cumulative IPC: 0.627167 (Simulation time: 1 hr 1 min 44 sec) 
Heartbeat CPU 0 instructions: 97000002 cycles: 93784619 heartbeat IPC: 0.796202 cumulative IPC: 0.630013 (Simulation time: 1 hr 2 min 22 sec) 
Heartbeat CPU 0 instructions: 98000003 cycles: 95033188 heartbeat IPC: 0.800918 cumulative IPC: 0.632826 (Simulation time: 1 hr 2 min 58 sec) 
Heartbeat CPU 0 instructions: 99000000 cycles: 96282710 heartbeat IPC: 0.800304 cumulative IPC: 0.63554 (Simulation time: 1 hr 3 min 34 sec) 
Heartbeat CPU 0 instructions: 100000000 cycles: 97533360 heartbeat IPC: 0.799584 cumulative IPC: 0.638159 (Simulation time: 1 hr 4 min 10 sec) 
Heartbeat CPU 0 instructions: 101000001 cycles: 98787567 heartbeat IPC: 0.797317 cumulative IPC: 0.640666 (Simulation time: 1 hr 4 min 45 sec) 
Heartbeat CPU 0 instructions: 102000000 cycles: 100049296 heartbeat IPC: 0.792562 cumulative IPC: 0.643036 (Simulation time: 1 hr 5 min 20 sec) 
Heartbeat CPU 0 instructions: 103000002 cycles: 101310180 heartbeat IPC: 0.793096 cumulative IPC: 0.64534 (Simulation time: 1 hr 5 min 56 sec) 
Heartbeat CPU 0 instructions: 104000000 cycles: 102569797 heartbeat IPC: 0.793891 cumulative IPC: 0.647584 (Simulation time: 1 hr 6 min 26 sec) 
Heartbeat CPU 0 instructions: 105000003 cycles: 103829363 heartbeat IPC: 0.793927 cumulative IPC: 0.649762 (Simulation time: 1 hr 6 min 58 sec) 
Heartbeat CPU 0 instructions: 106000002 cycles: 105086248 heartbeat IPC: 0.795617 cumulative IPC: 0.651896 (Simulation time: 1 hr 7 min 32 sec) 
Heartbeat CPU 0 instructions: 107000002 cycles: 106346254 heartbeat IPC: 0.793647 cumulative IPC: 0.653945 (Simulation time: 1 hr 8 min 5 sec) 
Heartbeat CPU 0 instructions: 108000000 cycles: 107609690 heartbeat IPC: 0.791491 cumulative IPC: 0.65591 (Simulation time: 1 hr 8 min 38 sec) 
Heartbeat CPU 0 instructions: 109000001 cycles: 108866860 heartbeat IPC: 0.795438 cumulative IPC: 0.657866 (Simulation time: 1 hr 9 min 9 sec) 
Heartbeat CPU 0 instructions: 110000001 cycles: 110125857 heartbeat IPC: 0.794283 cumulative IPC: 0.659754 (Simulation time: 1 hr 9 min 40 sec) 
Heartbeat CPU 0 instructions: 111000000 cycles: 111384149 heartbeat IPC: 0.794727 cumulative IPC: 0.661596 (Simulation time: 1 hr 10 min 15 sec) 
Heartbeat CPU 0 instructions: 112000000 cycles: 112640941 heartbeat IPC: 0.795677 cumulative IPC: 0.6634 (Simulation time: 1 hr 10 min 47 sec) 
Heartbeat CPU 0 instructions: 113000002 cycles: 113901410 heartbeat IPC: 0.793357 cumulative IPC: 0.665129 (Simulation time: 1 hr 11 min 20 sec) 
Heartbeat CPU 0 instructions: 114000000 cycles: 115155820 heartbeat IPC: 0.797186 cumulative IPC: 0.666855 (Simulation time: 1 hr 11 min 49 sec) 
Heartbeat CPU 0 instructions: 115000002 cycles: 116413384 heartbeat IPC: 0.79519 cumulative IPC: 0.668515 (Simulation time: 1 hr 12 min 23 sec) 
Heartbeat CPU 0 instructions: 116000000 cycles: 117673361 heartbeat IPC: 0.793664 cumulative IPC: 0.670116 (Simulation time: 1 hr 12 min 55 sec) 
Heartbeat CPU 0 instructions: 117000003 cycles: 118929060 heartbeat IPC: 0.796372 cumulative IPC: 0.671705 (Simulation time: 1 hr 13 min 29 sec) 
Heartbeat CPU 0 instructions: 118000000 cycles: 120189001 heartbeat IPC: 0.793686 cumulative IPC: 0.673227 (Simulation time: 1 hr 14 min 0 sec) 
Heartbeat CPU 0 instructions: 119000003 cycles: 121451064 heartbeat IPC: 0.792356 cumulative IPC: 0.674697 (Simulation time: 1 hr 14 min 29 sec) 
Heartbeat CPU 0 instructions: 120000000 cycles: 122711904 heartbeat IPC: 0.79312 cumulative IPC: 0.676139 (Simulation time: 1 hr 14 min 59 sec) 
Heartbeat CPU 0 instructions: 121000003 cycles: 123971575 heartbeat IPC: 0.79386 cumulative IPC: 0.677554 (Simulation time: 1 hr 15 min 28 sec) 
Heartbeat CPU 0 instructions: 122000001 cycles: 125228176 heartbeat IPC: 0.795796 cumulative IPC: 0.678955 (Simulation time: 1 hr 15 min 58 sec) 
Heartbeat CPU 0 instructions: 123000000 cycles: 126482731 heartbeat IPC: 0.797095 cumulative IPC: 0.680337 (Simulation time: 1 hr 16 min 27 sec) 
Heartbeat CPU 0 instructions: 124000000 cycles: 127737427 heartbeat IPC: 0.797006 cumulative IPC: 0.681685 (Simulation time: 1 hr 16 min 57 sec) 
Heartbeat CPU 0 instructions: 125000003 cycles: 128997257 heartbeat IPC: 0.79376 cumulative IPC: 0.682971 (Simulation time: 1 hr 17 min 28 sec) 
Heartbeat CPU 0 instructions: 126000000 cycles: 130252249 heartbeat IPC: 0.796815 cumulative IPC: 0.684257 (Simulation time: 1 hr 17 min 59 sec) 
Heartbeat CPU 0 instructions: 127000000 cycles: 131510695 heartbeat IPC: 0.794631 cumulative IPC: 0.685494 (Simulation time: 1 hr 18 min 29 sec) 
Heartbeat CPU 0 instructions: 128000000 cycles: 132767219 heartbeat IPC: 0.795846 cumulative IPC: 0.686715 (Simulation time: 1 hr 19 min 0 sec) 
Heartbeat CPU 0 instructions: 129000000 cycles: 134029055 heartbeat IPC: 0.792496 cumulative IPC: 0.687877 (Simulation time: 1 hr 19 min 30 sec) 
Heartbeat CPU 0 instructions: 130000002 cycles: 135284971 heartbeat IPC: 0.796233 cumulative IPC: 0.689049 (Simulation time: 1 hr 20 min 2 sec) 
Heartbeat CPU 0 instructions: 131000002 cycles: 136544137 heartbeat IPC: 0.794176 cumulative IPC: 0.690177 (Simulation time: 1 hr 20 min 33 sec) 
Heartbeat CPU 0 instructions: 132000000 cycles: 137803041 heartbeat IPC: 0.79434 cumulative IPC: 0.691282 (Simulation time: 1 hr 21 min 4 sec) 
Heartbeat CPU 0 instructions: 133000002 cycles: 139059559 heartbeat IPC: 0.795852 cumulative IPC: 0.692378 (Simulation time: 1 hr 21 min 34 sec) 
Heartbeat CPU 0 instructions: 134000002 cycles: 140318272 heartbeat IPC: 0.794462 cumulative IPC: 0.693439 (Simulation time: 1 hr 22 min 1 sec) 
Heartbeat CPU 0 instructions: 135000000 cycles: 141574929 heartbeat IPC: 0.795761 cumulative IPC: 0.69449 (Simulation time: 1 hr 22 min 28 sec) 
Heartbeat CPU 0 instructions: 136000000 cycles: 142832473 heartbeat IPC: 0.795201 cumulative IPC: 0.695514 (Simulation time: 1 hr 22 min 54 sec) 
Heartbeat CPU 0 instructions: 137000001 cycles: 144088215 heartbeat IPC: 0.796343 cumulative IPC: 0.696528 (Simulation time: 1 hr 23 min 20 sec) 
Heartbeat CPU 0 instructions: 138000003 cycles: 145352860 heartbeat IPC: 0.790737 cumulative IPC: 0.697472 (Simulation time: 1 hr 23 min 45 sec) 
Heartbeat CPU 0 instructions: 139000001 cycles: 146607310 heartbeat IPC: 0.797161 cumulative IPC: 0.698453 (Simulation time: 1 hr 24 min 9 sec) 
Heartbeat CPU 0 instructions: 140000000 cycles: 147865965 heartbeat IPC: 0.794498 cumulative IPC: 0.699393 (Simulation time: 1 hr 24 min 30 sec) 
Heartbeat CPU 0 instructions: 141000003 cycles: 149124362 heartbeat IPC: 0.794664 cumulative IPC: 0.700316 (Simulation time: 1 hr 24 min 52 sec) 
Heartbeat CPU 0 instructions: 142000001 cycles: 150382222 heartbeat IPC: 0.794999 cumulative IPC: 0.701223 (Simulation time: 1 hr 25 min 14 sec) 
Heartbeat CPU 0 instructions: 143000001 cycles: 151640763 heartbeat IPC: 0.794571 cumulative IPC: 0.70211 (Simulation time: 1 hr 25 min 36 sec) 
Heartbeat CPU 0 instructions: 144000000 cycles: 152890050 heartbeat IPC: 0.800456 cumulative IPC: 0.703029 (Simulation time: 1 hr 25 min 57 sec) 
Heartbeat CPU 0 instructions: 145000001 cycles: 154147264 heartbeat IPC: 0.79541 cumulative IPC: 0.70389 (Simulation time: 1 hr 26 min 20 sec) 
Heartbeat CPU 0 instructions: 146000003 cycles: 155407115 heartbeat IPC: 0.793746 cumulative IPC: 0.704721 (Simulation time: 1 hr 26 min 43 sec) 
Heartbeat CPU 0 instructions: 147000003 cycles: 156663706 heartbeat IPC: 0.795804 cumulative IPC: 0.705553 (Simulation time: 1 hr 27 min 5 sec) 
Heartbeat CPU 0 instructions: 148000000 cycles: 157923193 heartbeat IPC: 0.793972 cumulative IPC: 0.706356 (Simulation time: 1 hr 27 min 25 sec) 
Heartbeat CPU 0 instructions: 149000001 cycles: 159181981 heartbeat IPC: 0.794416 cumulative IPC: 0.707148 (Simulation time: 1 hr 27 min 46 sec) 
Heartbeat CPU 0 instructions: 150000003 cycles: 160443314 heartbeat IPC: 0.792814 cumulative IPC: 0.707913 (Simulation time: 1 hr 28 min 7 sec) 
Finished CPU 0 instructions: 100000003 cycles: 141260384 cummulative IPC: 0.707913 (Simulation time: 1 hr 28 min 7 sec) 

ChampSim completed all CPUs

Region of Interest Statistics

CPU 0 cummulative IPC: 0.707913 instructions: 100000003 cycles: 141260384
LLC TOTAL     ACCESS:    2853535  HIT:      76633  MISS:    2776902
LLC LOAD      ACCESS:     878620  HIT:        149  MISS:     878471
LLC RFO       ACCESS:     539880  HIT:       4967  MISS:     534913
LLC PREFETCH  ACCESS:     755052  HIT:       6253  MISS:     748799
LLC WRITEBACK ACCESS:     679983  HIT:      65264  MISS:     614719
OPTgen accesses: 25470
OPTgen hits: 184
OPTgen hit rate: 0.722419


