
*** ChampSim Multicore Out-of-Order Simulator ***

Warmup Instructions: 50000000
Simulation Instructions: 100000000
Configuration: 2
Number of CPUs: 1
LLC sets: 2048
LLC ways: 16
Off-chip DRAM Channels: 1 Width: 64-bit Data Rate: 1600 MT/s

CPU 0 runs /datasets/cs240c-wi22-a00-public/data/Assignment2-gz/lbm_1004B.trace.gz
CPU 0 L1D next line prefetcher
CPU 0 L2C IP-based stride prefetcher
Initialize Hawkeye state
Heartbeat CPU 0 instructions: 1000002 cycles: 391414 heartbeat IPC: 2.55484 cumulative IPC: 2.55484 (Simulation time: 0 hr 0 min 35 sec) 
Heartbeat CPU 0 instructions: 2000001 cycles: 782838 heartbeat IPC: 2.55477 cumulative IPC: 2.55481 (Simulation time: 0 hr 1 min 9 sec) 
Heartbeat CPU 0 instructions: 3000001 cycles: 1174187 heartbeat IPC: 2.55526 cumulative IPC: 2.55496 (Simulation time: 0 hr 1 min 44 sec) 
Heartbeat CPU 0 instructions: 4000000 cycles: 1570368 heartbeat IPC: 2.5241 cumulative IPC: 2.54717 (Simulation time: 0 hr 2 min 21 sec) 
Heartbeat CPU 0 instructions: 5000002 cycles: 1961787 heartbeat IPC: 2.55481 cumulative IPC: 2.5487 (Simulation time: 0 hr 2 min 56 sec) 
Heartbeat CPU 0 instructions: 6000002 cycles: 2353155 heartbeat IPC: 2.55514 cumulative IPC: 2.54977 (Simulation time: 0 hr 3 min 31 sec) 
Heartbeat CPU 0 instructions: 7000003 cycles: 2749263 heartbeat IPC: 2.52457 cumulative IPC: 2.54614 (Simulation time: 0 hr 4 min 5 sec) 
Heartbeat CPU 0 instructions: 8000000 cycles: 3140613 heartbeat IPC: 2.55525 cumulative IPC: 2.54727 (Simulation time: 0 hr 4 min 38 sec) 
Heartbeat CPU 0 instructions: 9000003 cycles: 3532038 heartbeat IPC: 2.55478 cumulative IPC: 2.5481 (Simulation time: 0 hr 5 min 11 sec) 
Heartbeat CPU 0 instructions: 10000000 cycles: 3923410 heartbeat IPC: 2.55511 cumulative IPC: 2.5488 (Simulation time: 0 hr 5 min 44 sec) 
Heartbeat CPU 0 instructions: 11000000 cycles: 4319651 heartbeat IPC: 2.52372 cumulative IPC: 2.5465 (Simulation time: 0 hr 6 min 17 sec) 
Heartbeat CPU 0 instructions: 12000000 cycles: 4710979 heartbeat IPC: 2.5554 cumulative IPC: 2.54724 (Simulation time: 0 hr 6 min 51 sec) 
Heartbeat CPU 0 instructions: 13000002 cycles: 5102384 heartbeat IPC: 2.5549 cumulative IPC: 2.54783 (Simulation time: 0 hr 7 min 25 sec) 
Heartbeat CPU 0 instructions: 14000003 cycles: 5498560 heartbeat IPC: 2.52413 cumulative IPC: 2.54612 (Simulation time: 0 hr 8 min 0 sec) 
Heartbeat CPU 0 instructions: 15000003 cycles: 5889986 heartbeat IPC: 2.55476 cumulative IPC: 2.5467 (Simulation time: 0 hr 8 min 34 sec) 
Heartbeat CPU 0 instructions: 16000000 cycles: 6281369 heartbeat IPC: 2.55503 cumulative IPC: 2.54722 (Simulation time: 0 hr 9 min 8 sec) 
Heartbeat CPU 0 instructions: 17000000 cycles: 6677519 heartbeat IPC: 2.5243 cumulative IPC: 2.54586 (Simulation time: 0 hr 9 min 42 sec) 
Heartbeat CPU 0 instructions: 18000000 cycles: 7068901 heartbeat IPC: 2.55505 cumulative IPC: 2.54636 (Simulation time: 0 hr 10 min 14 sec) 
Heartbeat CPU 0 instructions: 19000003 cycles: 7460255 heartbeat IPC: 2.55524 cumulative IPC: 2.54683 (Simulation time: 0 hr 10 min 48 sec) 
Heartbeat CPU 0 instructions: 20000000 cycles: 7851649 heartbeat IPC: 2.55496 cumulative IPC: 2.54724 (Simulation time: 0 hr 11 min 22 sec) 
Heartbeat CPU 0 instructions: 21000003 cycles: 8247808 heartbeat IPC: 2.52425 cumulative IPC: 2.54613 (Simulation time: 0 hr 11 min 55 sec) 
Heartbeat CPU 0 instructions: 22000002 cycles: 8639271 heartbeat IPC: 2.55452 cumulative IPC: 2.54651 (Simulation time: 0 hr 12 min 28 sec) 
Heartbeat CPU 0 instructions: 23000001 cycles: 9030612 heartbeat IPC: 2.55531 cumulative IPC: 2.54689 (Simulation time: 0 hr 13 min 2 sec) 
Heartbeat CPU 0 instructions: 24000000 cycles: 9426828 heartbeat IPC: 2.52387 cumulative IPC: 2.54593 (Simulation time: 0 hr 13 min 37 sec) 
Heartbeat CPU 0 instructions: 25000003 cycles: 9818233 heartbeat IPC: 2.55491 cumulative IPC: 2.54628 (Simulation time: 0 hr 14 min 11 sec) 
Heartbeat CPU 0 instructions: 26000002 cycles: 10209624 heartbeat IPC: 2.55499 cumulative IPC: 2.54662 (Simulation time: 0 hr 14 min 44 sec) 
Heartbeat CPU 0 instructions: 27000001 cycles: 10600990 heartbeat IPC: 2.55515 cumulative IPC: 2.54693 (Simulation time: 0 hr 15 min 18 sec) 
Heartbeat CPU 0 instructions: 28000000 cycles: 10997175 heartbeat IPC: 2.52407 cumulative IPC: 2.54611 (Simulation time: 0 hr 15 min 51 sec) 
Heartbeat CPU 0 instructions: 29000002 cycles: 11388575 heartbeat IPC: 2.55494 cumulative IPC: 2.54641 (Simulation time: 0 hr 16 min 24 sec) 
Heartbeat CPU 0 instructions: 30000003 cycles: 11779968 heartbeat IPC: 2.55498 cumulative IPC: 2.5467 (Simulation time: 0 hr 16 min 57 sec) 
Heartbeat CPU 0 instructions: 31000003 cycles: 12176194 heartbeat IPC: 2.52381 cumulative IPC: 2.54595 (Simulation time: 0 hr 17 min 33 sec) 
Heartbeat CPU 0 instructions: 32000000 cycles: 12567577 heartbeat IPC: 2.55503 cumulative IPC: 2.54623 (Simulation time: 0 hr 18 min 5 sec) 
Heartbeat CPU 0 instructions: 33000003 cycles: 12959013 heartbeat IPC: 2.5547 cumulative IPC: 2.54649 (Simulation time: 0 hr 18 min 41 sec) 
Heartbeat CPU 0 instructions: 34000002 cycles: 13355128 heartbeat IPC: 2.52452 cumulative IPC: 2.54584 (Simulation time: 0 hr 19 min 15 sec) 
Heartbeat CPU 0 instructions: 35000003 cycles: 13746547 heartbeat IPC: 2.55481 cumulative IPC: 2.54609 (Simulation time: 0 hr 19 min 49 sec) 
Heartbeat CPU 0 instructions: 36000000 cycles: 14137952 heartbeat IPC: 2.55489 cumulative IPC: 2.54634 (Simulation time: 0 hr 20 min 23 sec) 
Heartbeat CPU 0 instructions: 37000002 cycles: 14529362 heartbeat IPC: 2.55487 cumulative IPC: 2.54657 (Simulation time: 0 hr 20 min 58 sec) 
Heartbeat CPU 0 instructions: 38000000 cycles: 14925556 heartbeat IPC: 2.52401 cumulative IPC: 2.54597 (Simulation time: 0 hr 21 min 30 sec) 
Heartbeat CPU 0 instructions: 39000003 cycles: 15316879 heartbeat IPC: 2.55544 cumulative IPC: 2.54621 (Simulation time: 0 hr 22 min 4 sec) 
Heartbeat CPU 0 instructions: 40000000 cycles: 15708275 heartbeat IPC: 2.55495 cumulative IPC: 2.54643 (Simulation time: 0 hr 22 min 39 sec) 
Heartbeat CPU 0 instructions: 41000002 cycles: 16104480 heartbeat IPC: 2.52395 cumulative IPC: 2.54588 (Simulation time: 0 hr 23 min 13 sec) 
Heartbeat CPU 0 instructions: 42000003 cycles: 16495916 heartbeat IPC: 2.5547 cumulative IPC: 2.54608 (Simulation time: 0 hr 23 min 47 sec) 
Heartbeat CPU 0 instructions: 43000000 cycles: 16887294 heartbeat IPC: 2.55507 cumulative IPC: 2.54629 (Simulation time: 0 hr 24 min 21 sec) 
Heartbeat CPU 0 instructions: 44000000 cycles: 17283454 heartbeat IPC: 2.52423 cumulative IPC: 2.54579 (Simulation time: 0 hr 24 min 55 sec) 
Heartbeat CPU 0 instructions: 45000003 cycles: 17674851 heartbeat IPC: 2.55496 cumulative IPC: 2.54599 (Simulation time: 0 hr 25 min 29 sec) 
Heartbeat CPU 0 instructions: 46000003 cycles: 18066204 heartbeat IPC: 2.55524 cumulative IPC: 2.54619 (Simulation time: 0 hr 26 min 1 sec) 
Heartbeat CPU 0 instructions: 47000002 cycles: 18457603 heartbeat IPC: 2.55493 cumulative IPC: 2.54638 (Simulation time: 0 hr 26 min 36 sec) 
Heartbeat CPU 0 instructions: 48000000 cycles: 18853776 heartbeat IPC: 2.52414 cumulative IPC: 2.54591 (Simulation time: 0 hr 27 min 10 sec) 
Heartbeat CPU 0 instructions: 49000000 cycles: 19245202 heartbeat IPC: 2.55476 cumulative IPC: 2.54609 (Simulation time: 0 hr 27 min 44 sec) 
Heartbeat CPU 0 instructions: 50000003 cycles: 19636536 heartbeat IPC: 2.55537 cumulative IPC: 2.54627 (Simulation time: 0 hr 28 min 17 sec) 

Warmup complete CPU 0 instructions: 50000003 cycles: 19636536 (Simulation time: 0 hr 28 min 17 sec) 

Heartbeat CPU 0 instructions: 51000001 cycles: 21116888 heartbeat IPC: 0.675514 cumulative IPC: 0.675514 (Simulation time: 0 hr 29 min 0 sec) 
Heartbeat CPU 0 instructions: 52000000 cycles: 22524766 heartbeat IPC: 0.710288 cumulative IPC: 0.692465 (Simulation time: 0 hr 29 min 42 sec) 
Heartbeat CPU 0 instructions: 53000002 cycles: 23975144 heartbeat IPC: 0.689477 cumulative IPC: 0.691466 (Simulation time: 0 hr 30 min 24 sec) 
Heartbeat CPU 0 instructions: 54000002 cycles: 25402762 heartbeat IPC: 0.700467 cumulative IPC: 0.693694 (Simulation time: 0 hr 31 min 5 sec) 
Heartbeat CPU 0 instructions: 55000001 cycles: 26799755 heartbeat IPC: 0.715822 cumulative IPC: 0.69801 (Simulation time: 0 hr 31 min 45 sec) 
Heartbeat CPU 0 instructions: 56000000 cycles: 28223342 heartbeat IPC: 0.70245 cumulative IPC: 0.698746 (Simulation time: 0 hr 32 min 26 sec) 
Heartbeat CPU 0 instructions: 57000003 cycles: 29668608 heartbeat IPC: 0.691916 cumulative IPC: 0.697762 (Simulation time: 0 hr 33 min 5 sec) 
Heartbeat CPU 0 instructions: 58000003 cycles: 31163242 heartbeat IPC: 0.66906 cumulative IPC: 0.69404 (Simulation time: 0 hr 33 min 48 sec) 
Heartbeat CPU 0 instructions: 59000002 cycles: 32596128 heartbeat IPC: 0.697892 cumulative IPC: 0.694466 (Simulation time: 0 hr 34 min 32 sec) 
Heartbeat CPU 0 instructions: 60000000 cycles: 33987536 heartbeat IPC: 0.718695 cumulative IPC: 0.696815 (Simulation time: 0 hr 35 min 11 sec) 
Heartbeat CPU 0 instructions: 61000003 cycles: 35410303 heartbeat IPC: 0.702858 cumulative IPC: 0.69736 (Simulation time: 0 hr 35 min 52 sec) 
Heartbeat CPU 0 instructions: 62000001 cycles: 36789374 heartbeat IPC: 0.725124 cumulative IPC: 0.699593 (Simulation time: 0 hr 36 min 33 sec) 
Heartbeat CPU 0 instructions: 63000001 cycles: 38210979 heartbeat IPC: 0.70343 cumulative IPC: 0.699886 (Simulation time: 0 hr 37 min 12 sec) 
Heartbeat CPU 0 instructions: 64000000 cycles: 39633397 heartbeat IPC: 0.703028 cumulative IPC: 0.70011 (Simulation time: 0 hr 37 min 56 sec) 
Heartbeat CPU 0 instructions: 65000000 cycles: 41079314 heartbeat IPC: 0.691603 cumulative IPC: 0.699536 (Simulation time: 0 hr 38 min 36 sec) 
Heartbeat CPU 0 instructions: 66000000 cycles: 42485971 heartbeat IPC: 0.710905 cumulative IPC: 0.700236 (Simulation time: 0 hr 39 min 17 sec) 
Heartbeat CPU 0 instructions: 67000000 cycles: 43874376 heartbeat IPC: 0.720251 cumulative IPC: 0.701383 (Simulation time: 0 hr 39 min 58 sec) 
Heartbeat CPU 0 instructions: 68000000 cycles: 45315862 heartbeat IPC: 0.693729 cumulative IPC: 0.700953 (Simulation time: 0 hr 40 min 38 sec) 
Heartbeat CPU 0 instructions: 69000000 cycles: 46686409 heartbeat IPC: 0.729636 cumulative IPC: 0.702406 (Simulation time: 0 hr 41 min 16 sec) 
Heartbeat CPU 0 instructions: 70000000 cycles: 48110573 heartbeat IPC: 0.702166 cumulative IPC: 0.702394 (Simulation time: 0 hr 41 min 56 sec) 
Heartbeat CPU 0 instructions: 71000002 cycles: 49563043 heartbeat IPC: 0.688484 cumulative IPC: 0.701719 (Simulation time: 0 hr 42 min 36 sec) 
Heartbeat CPU 0 instructions: 72000000 cycles: 51783061 heartbeat IPC: 0.450446 cumulative IPC: 0.684366 (Simulation time: 0 hr 43 min 29 sec) 
Heartbeat CPU 0 instructions: 73000002 cycles: 54715023 heartbeat IPC: 0.341069 cumulative IPC: 0.655672 (Simulation time: 0 hr 44 min 30 sec) 
Heartbeat CPU 0 instructions: 74000002 cycles: 61207123 heartbeat IPC: 0.154033 cumulative IPC: 0.577331 (Simulation time: 0 hr 46 min 12 sec) 
Heartbeat CPU 0 instructions: 75000003 cycles: 63620591 heartbeat IPC: 0.414342 cumulative IPC: 0.568388 (Simulation time: 0 hr 47 min 7 sec) 
Heartbeat CPU 0 instructions: 76000000 cycles: 65659365 heartbeat IPC: 0.490489 cumulative IPC: 0.564937 (Simulation time: 0 hr 47 min 55 sec) 
Heartbeat CPU 0 instructions: 77000000 cycles: 67093695 heartbeat IPC: 0.69719 cumulative IPC: 0.568934 (Simulation time: 0 hr 48 min 34 sec) 
Heartbeat CPU 0 instructions: 78000002 cycles: 68534049 heartbeat IPC: 0.694275 cumulative IPC: 0.572626 (Simulation time: 0 hr 49 min 16 sec) 
Heartbeat CPU 0 instructions: 79000002 cycles: 70006585 heartbeat IPC: 0.679101 cumulative IPC: 0.575739 (Simulation time: 0 hr 49 min 58 sec) 
Heartbeat CPU 0 instructions: 80000000 cycles: 71426625 heartbeat IPC: 0.704204 cumulative IPC: 0.579261 (Simulation time: 0 hr 50 min 37 sec) 
Heartbeat CPU 0 instructions: 81000001 cycles: 72754631 heartbeat IPC: 0.753009 cumulative IPC: 0.583605 (Simulation time: 0 hr 51 min 14 sec) 
Heartbeat CPU 0 instructions: 82000002 cycles: 74109608 heartbeat IPC: 0.738021 cumulative IPC: 0.587446 (Simulation time: 0 hr 51 min 55 sec) 
Heartbeat CPU 0 instructions: 83000003 cycles: 75661438 heartbeat IPC: 0.644401 cumulative IPC: 0.589024 (Simulation time: 0 hr 52 min 35 sec) 
Heartbeat CPU 0 instructions: 84000000 cycles: 77058043 heartbeat IPC: 0.71602 cumulative IPC: 0.592113 (Simulation time: 0 hr 53 min 15 sec) 
Heartbeat CPU 0 instructions: 85000000 cycles: 78389299 heartbeat IPC: 0.75117 cumulative IPC: 0.595717 (Simulation time: 0 hr 53 min 56 sec) 
Heartbeat CPU 0 instructions: 86000000 cycles: 79892672 heartbeat IPC: 0.665171 cumulative IPC: 0.597449 (Simulation time: 0 hr 54 min 37 sec) 
Heartbeat CPU 0 instructions: 87000002 cycles: 81336023 heartbeat IPC: 0.692834 cumulative IPC: 0.599681 (Simulation time: 0 hr 55 min 17 sec) 
Heartbeat CPU 0 instructions: 88000000 cycles: 82702007 heartbeat IPC: 0.732072 cumulative IPC: 0.602548 (Simulation time: 0 hr 55 min 57 sec) 
Heartbeat CPU 0 instructions: 89000003 cycles: 84104137 heartbeat IPC: 0.713203 cumulative IPC: 0.604955 (Simulation time: 0 hr 56 min 37 sec) 
Heartbeat CPU 0 instructions: 90000002 cycles: 85580751 heartbeat IPC: 0.677224 cumulative IPC: 0.606573 (Simulation time: 0 hr 57 min 18 sec) 
Heartbeat CPU 0 instructions: 91000001 cycles: 86977037 heartbeat IPC: 0.716185 cumulative IPC: 0.608846 (Simulation time: 0 hr 57 min 59 sec) 
Heartbeat CPU 0 instructions: 92000000 cycles: 88310769 heartbeat IPC: 0.749775 cumulative IPC: 0.611583 (Simulation time: 0 hr 58 min 39 sec) 
Heartbeat CPU 0 instructions: 93000003 cycles: 89777313 heartbeat IPC: 0.681877 cumulative IPC: 0.613053 (Simulation time: 0 hr 59 min 20 sec) 
Heartbeat CPU 0 instructions: 94000002 cycles: 91229011 heartbeat IPC: 0.688848 cumulative IPC: 0.61459 (Simulation time: 0 hr 59 min 58 sec) 
Heartbeat CPU 0 instructions: 95000000 cycles: 92586242 heartbeat IPC: 0.736793 cumulative IPC: 0.616863 (Simulation time: 1 hr 0 min 38 sec) 
Heartbeat CPU 0 instructions: 96000000 cycles: 93946603 heartbeat IPC: 0.735099 cumulative IPC: 0.619028 (Simulation time: 1 hr 1 min 15 sec) 
Heartbeat CPU 0 instructions: 97000002 cycles: 95402982 heartbeat IPC: 0.686636 cumulative IPC: 0.620327 (Simulation time: 1 hr 1 min 53 sec) 
Heartbeat CPU 0 instructions: 98000001 cycles: 96847537 heartbeat IPC: 0.692254 cumulative IPC: 0.621673 (Simulation time: 1 hr 2 min 31 sec) 
Heartbeat CPU 0 instructions: 99000000 cycles: 98261228 heartbeat IPC: 0.707367 cumulative IPC: 0.623214 (Simulation time: 1 hr 3 min 12 sec) 
Heartbeat CPU 0 instructions: 100000000 cycles: 99752398 heartbeat IPC: 0.670614 cumulative IPC: 0.624096 (Simulation time: 1 hr 3 min 53 sec) 
Heartbeat CPU 0 instructions: 101000000 cycles: 101212088 heartbeat IPC: 0.685077 cumulative IPC: 0.625187 (Simulation time: 1 hr 4 min 31 sec) 
Heartbeat CPU 0 instructions: 102000000 cycles: 102611947 heartbeat IPC: 0.714358 cumulative IPC: 0.626692 (Simulation time: 1 hr 5 min 11 sec) 
Heartbeat CPU 0 instructions: 103000001 cycles: 104045434 heartbeat IPC: 0.6976 cumulative IPC: 0.627896 (Simulation time: 1 hr 5 min 51 sec) 
Heartbeat CPU 0 instructions: 104000000 cycles: 105506424 heartbeat IPC: 0.684467 cumulative IPC: 0.628858 (Simulation time: 1 hr 6 min 26 sec) 
Heartbeat CPU 0 instructions: 105000001 cycles: 106960938 heartbeat IPC: 0.687516 cumulative IPC: 0.629835 (Simulation time: 1 hr 7 min 3 sec) 
Heartbeat CPU 0 instructions: 106000000 cycles: 108333318 heartbeat IPC: 0.72866 cumulative IPC: 0.631364 (Simulation time: 1 hr 7 min 43 sec) 
Heartbeat CPU 0 instructions: 107000000 cycles: 109807825 heartbeat IPC: 0.678193 cumulative IPC: 0.63213 (Simulation time: 1 hr 8 min 21 sec) 
Heartbeat CPU 0 instructions: 108000000 cycles: 111269004 heartbeat IPC: 0.684379 cumulative IPC: 0.632963 (Simulation time: 1 hr 8 min 55 sec) 
Heartbeat CPU 0 instructions: 109000003 cycles: 112674373 heartbeat IPC: 0.711559 cumulative IPC: 0.634151 (Simulation time: 1 hr 9 min 28 sec) 
Heartbeat CPU 0 instructions: 110000001 cycles: 114110947 heartbeat IPC: 0.696099 cumulative IPC: 0.635093 (Simulation time: 1 hr 10 min 2 sec) 
Heartbeat CPU 0 instructions: 111000003 cycles: 115542317 heartbeat IPC: 0.698633 cumulative IPC: 0.636041 (Simulation time: 1 hr 10 min 37 sec) 
Heartbeat CPU 0 instructions: 112000000 cycles: 116924257 heartbeat IPC: 0.723618 cumulative IPC: 0.637285 (Simulation time: 1 hr 11 min 12 sec) 
Heartbeat CPU 0 instructions: 113000001 cycles: 118332702 heartbeat IPC: 0.710004 cumulative IPC: 0.638323 (Simulation time: 1 hr 11 min 46 sec) 
Heartbeat CPU 0 instructions: 114000001 cycles: 119856740 heartbeat IPC: 0.656152 cumulative IPC: 0.638594 (Simulation time: 1 hr 12 min 21 sec) 
Heartbeat CPU 0 instructions: 115000000 cycles: 121300376 heartbeat IPC: 0.692695 cumulative IPC: 0.639362 (Simulation time: 1 hr 12 min 58 sec) 
Heartbeat CPU 0 instructions: 116000000 cycles: 122796024 heartbeat IPC: 0.668607 cumulative IPC: 0.639786 (Simulation time: 1 hr 13 min 28 sec) 
Heartbeat CPU 0 instructions: 117000000 cycles: 124332964 heartbeat IPC: 0.650643 cumulative IPC: 0.639945 (Simulation time: 1 hr 14 min 0 sec) 
Heartbeat CPU 0 instructions: 118000002 cycles: 125732080 heartbeat IPC: 0.714738 cumulative IPC: 0.640932 (Simulation time: 1 hr 14 min 31 sec) 
Heartbeat CPU 0 instructions: 119000002 cycles: 127114225 heartbeat IPC: 0.723513 cumulative IPC: 0.641994 (Simulation time: 1 hr 15 min 3 sec) 
Heartbeat CPU 0 instructions: 120000000 cycles: 128648384 heartbeat IPC: 0.651822 cumulative IPC: 0.642132 (Simulation time: 1 hr 15 min 38 sec) 
Heartbeat CPU 0 instructions: 121000002 cycles: 130104534 heartbeat IPC: 0.686744 cumulative IPC: 0.64272 (Simulation time: 1 hr 16 min 11 sec) 
Heartbeat CPU 0 instructions: 122000002 cycles: 131477578 heartbeat IPC: 0.728309 cumulative IPC: 0.643771 (Simulation time: 1 hr 16 min 40 sec) 
Heartbeat CPU 0 instructions: 123000002 cycles: 132935715 heartbeat IPC: 0.685807 cumulative IPC: 0.644312 (Simulation time: 1 hr 17 min 14 sec) 
Heartbeat CPU 0 instructions: 124000000 cycles: 134550776 heartbeat IPC: 0.61917 cumulative IPC: 0.643958 (Simulation time: 1 hr 17 min 47 sec) 
Heartbeat CPU 0 instructions: 125000000 cycles: 136041063 heartbeat IPC: 0.671012 cumulative IPC: 0.644305 (Simulation time: 1 hr 18 min 18 sec) 
Heartbeat CPU 0 instructions: 126000002 cycles: 137547025 heartbeat IPC: 0.664029 cumulative IPC: 0.644557 (Simulation time: 1 hr 18 min 47 sec) 
Heartbeat CPU 0 instructions: 127000000 cycles: 139155244 heartbeat IPC: 0.621805 cumulative IPC: 0.644251 (Simulation time: 1 hr 19 min 17 sec) 
Heartbeat CPU 0 instructions: 128000000 cycles: 140555082 heartbeat IPC: 0.714368 cumulative IPC: 0.645062 (Simulation time: 1 hr 19 min 46 sec) 
Heartbeat CPU 0 instructions: 129000000 cycles: 142034409 heartbeat IPC: 0.675983 cumulative IPC: 0.645436 (Simulation time: 1 hr 20 min 14 sec) 
Heartbeat CPU 0 instructions: 130000000 cycles: 143674590 heartbeat IPC: 0.609689 cumulative IPC: 0.644963 (Simulation time: 1 hr 20 min 44 sec) 
Heartbeat CPU 0 instructions: 131000000 cycles: 145096192 heartbeat IPC: 0.703432 cumulative IPC: 0.645626 (Simulation time: 1 hr 21 min 18 sec) 
Heartbeat CPU 0 instructions: 132000000 cycles: 146507490 heartbeat IPC: 0.708568 cumulative IPC: 0.646326 (Simulation time: 1 hr 21 min 51 sec) 
Heartbeat CPU 0 instructions: 133000001 cycles: 148134525 heartbeat IPC: 0.614616 cumulative IPC: 0.645925 (Simulation time: 1 hr 22 min 24 sec) 
Heartbeat CPU 0 instructions: 134000000 cycles: 149528692 heartbeat IPC: 0.717273 cumulative IPC: 0.64669 (Simulation time: 1 hr 22 min 52 sec) 
Heartbeat CPU 0 instructions: 135000003 cycles: 150982561 heartbeat IPC: 0.687822 cumulative IPC: 0.647146 (Simulation time: 1 hr 23 min 19 sec) 
Heartbeat CPU 0 instructions: 136000000 cycles: 152678008 heartbeat IPC: 0.589813 cumulative IPC: 0.646415 (Simulation time: 1 hr 23 min 47 sec) 
Heartbeat CPU 0 instructions: 137000000 cycles: 154106398 heartbeat IPC: 0.700089 cumulative IPC: 0.646985 (Simulation time: 1 hr 24 min 12 sec) 
Heartbeat CPU 0 instructions: 138000003 cycles: 155539300 heartbeat IPC: 0.697887 cumulative IPC: 0.647522 (Simulation time: 1 hr 24 min 36 sec) 
Heartbeat CPU 0 instructions: 139000000 cycles: 157197737 heartbeat IPC: 0.602976 cumulative IPC: 0.646985 (Simulation time: 1 hr 25 min 0 sec) 
Heartbeat CPU 0 instructions: 140000000 cycles: 158630404 heartbeat IPC: 0.697999 cumulative IPC: 0.647511 (Simulation time: 1 hr 25 min 23 sec) 
Heartbeat CPU 0 instructions: 141000001 cycles: 160106670 heartbeat IPC: 0.677385 cumulative IPC: 0.647825 (Simulation time: 1 hr 25 min 47 sec) 
Heartbeat CPU 0 instructions: 142000003 cycles: 161801409 heartbeat IPC: 0.590063 cumulative IPC: 0.647136 (Simulation time: 1 hr 26 min 11 sec) 
Heartbeat CPU 0 instructions: 143000000 cycles: 163256321 heartbeat IPC: 0.687325 cumulative IPC: 0.647543 (Simulation time: 1 hr 26 min 34 sec) 
Heartbeat CPU 0 instructions: 144000000 cycles: 164724310 heartbeat IPC: 0.681204 cumulative IPC: 0.647884 (Simulation time: 1 hr 26 min 56 sec) 
Heartbeat CPU 0 instructions: 145000000 cycles: 166444220 heartbeat IPC: 0.581426 cumulative IPC: 0.647105 (Simulation time: 1 hr 27 min 21 sec) 
Heartbeat CPU 0 instructions: 146000003 cycles: 167899107 heartbeat IPC: 0.687341 cumulative IPC: 0.6475 (Simulation time: 1 hr 27 min 42 sec) 
Heartbeat CPU 0 instructions: 147000000 cycles: 169373920 heartbeat IPC: 0.67805 cumulative IPC: 0.647801 (Simulation time: 1 hr 28 min 6 sec) 
Heartbeat CPU 0 instructions: 148000000 cycles: 171169069 heartbeat IPC: 0.557057 cumulative IPC: 0.646726 (Simulation time: 1 hr 28 min 32 sec) 
Heartbeat CPU 0 instructions: 149000001 cycles: 172588281 heartbeat IPC: 0.704617 cumulative IPC: 0.647263 (Simulation time: 1 hr 28 min 54 sec) 
Heartbeat CPU 0 instructions: 150000000 cycles: 174005311 heartbeat IPC: 0.705701 cumulative IPC: 0.647799 (Simulation time: 1 hr 29 min 16 sec) 
Finished CPU 0 instructions: 100000003 cycles: 154368815 cummulative IPC: 0.647799 (Simulation time: 1 hr 29 min 16 sec) 

ChampSim completed all CPUs

Region of Interest Statistics

CPU 0 cummulative IPC: 0.647799 instructions: 100000003 cycles: 154368815
LLC TOTAL     ACCESS:    5973956  HIT:    1894528  MISS:    4079428
LLC LOAD      ACCESS:     433847  HIT:      16482  MISS:     417365
LLC RFO       ACCESS:    2551821  HIT:     664756  MISS:    1887065
LLC PREFETCH  ACCESS:     436156  HIT:      21606  MISS:     414550
LLC WRITEBACK ACCESS:    2552132  HIT:    1191684  MISS:    1360448
OPTgen accesses: 66964
OPTgen hits: 21619
OPTgen hit rate: 32.2845


