
*** ChampSim Multicore Out-of-Order Simulator ***

Warmup Instructions: 50000000
Simulation Instructions: 100000000
Configuration: 2
Number of CPUs: 1
LLC sets: 2048
LLC ways: 16
Off-chip DRAM Channels: 1 Width: 64-bit Data Rate: 1600 MT/s

CPU 0 runs /datasets/cs240c-wi22-a00-public/data/Assignment2-gz/soplex_205B.trace.gz
CPU 0 L1D next line prefetcher
CPU 0 L2C IP-based stride prefetcher
Initialize Hawkeye state
Heartbeat CPU 0 instructions: 1000000 cycles: 395620 heartbeat IPC: 2.52768 cumulative IPC: 2.52768 (Simulation time: 0 hr 0 min 32 sec) 
Heartbeat CPU 0 instructions: 2000002 cycles: 928717 heartbeat IPC: 1.87583 cumulative IPC: 2.15351 (Simulation time: 0 hr 1 min 8 sec) 
Heartbeat CPU 0 instructions: 3000000 cycles: 1400487 heartbeat IPC: 2.11967 cumulative IPC: 2.14211 (Simulation time: 0 hr 1 min 54 sec) 
Heartbeat CPU 0 instructions: 4000000 cycles: 1761657 heartbeat IPC: 2.76878 cumulative IPC: 2.27059 (Simulation time: 0 hr 2 min 29 sec) 
Heartbeat CPU 0 instructions: 5000003 cycles: 2205047 heartbeat IPC: 2.25536 cumulative IPC: 2.26753 (Simulation time: 0 hr 3 min 11 sec) 
Heartbeat CPU 0 instructions: 6000003 cycles: 2624677 heartbeat IPC: 2.38305 cumulative IPC: 2.286 (Simulation time: 0 hr 3 min 52 sec) 
Heartbeat CPU 0 instructions: 7000000 cycles: 3009111 heartbeat IPC: 2.60122 cumulative IPC: 2.32627 (Simulation time: 0 hr 4 min 23 sec) 
Heartbeat CPU 0 instructions: 8000000 cycles: 3401664 heartbeat IPC: 2.54743 cumulative IPC: 2.35179 (Simulation time: 0 hr 4 min 55 sec) 
Heartbeat CPU 0 instructions: 9000003 cycles: 3922589 heartbeat IPC: 1.91967 cumulative IPC: 2.2944 (Simulation time: 0 hr 5 min 34 sec) 
Heartbeat CPU 0 instructions: 10000000 cycles: 4407951 heartbeat IPC: 2.06031 cumulative IPC: 2.26863 (Simulation time: 0 hr 6 min 18 sec) 
Heartbeat CPU 0 instructions: 11000001 cycles: 4777898 heartbeat IPC: 2.70309 cumulative IPC: 2.30227 (Simulation time: 0 hr 6 min 54 sec) 
Heartbeat CPU 0 instructions: 12000000 cycles: 5214866 heartbeat IPC: 2.28849 cumulative IPC: 2.30111 (Simulation time: 0 hr 7 min 32 sec) 
Heartbeat CPU 0 instructions: 13000001 cycles: 5637351 heartbeat IPC: 2.36695 cumulative IPC: 2.30605 (Simulation time: 0 hr 8 min 12 sec) 
Heartbeat CPU 0 instructions: 14000003 cycles: 6021673 heartbeat IPC: 2.60199 cumulative IPC: 2.32494 (Simulation time: 0 hr 8 min 44 sec) 
Heartbeat CPU 0 instructions: 15000000 cycles: 6432471 heartbeat IPC: 2.43428 cumulative IPC: 2.33192 (Simulation time: 0 hr 9 min 16 sec) 
Heartbeat CPU 0 instructions: 16000000 cycles: 6962873 heartbeat IPC: 1.88536 cumulative IPC: 2.2979 (Simulation time: 0 hr 9 min 54 sec) 
Heartbeat CPU 0 instructions: 17000001 cycles: 7519294 heartbeat IPC: 1.7972 cumulative IPC: 2.26085 (Simulation time: 0 hr 10 min 40 sec) 
Heartbeat CPU 0 instructions: 18000000 cycles: 8031362 heartbeat IPC: 1.95286 cumulative IPC: 2.24121 (Simulation time: 0 hr 11 min 22 sec) 
Heartbeat CPU 0 instructions: 19000002 cycles: 8706571 heartbeat IPC: 1.48103 cumulative IPC: 2.18226 (Simulation time: 0 hr 12 min 10 sec) 
Heartbeat CPU 0 instructions: 20000000 cycles: 9462664 heartbeat IPC: 1.32259 cumulative IPC: 2.11357 (Simulation time: 0 hr 12 min 52 sec) 
Heartbeat CPU 0 instructions: 21000001 cycles: 9909080 heartbeat IPC: 2.24007 cumulative IPC: 2.11927 (Simulation time: 0 hr 13 min 38 sec) 
Heartbeat CPU 0 instructions: 22000000 cycles: 10354460 heartbeat IPC: 2.24527 cumulative IPC: 2.12469 (Simulation time: 0 hr 14 min 22 sec) 
Heartbeat CPU 0 instructions: 23000000 cycles: 10796189 heartbeat IPC: 2.26383 cumulative IPC: 2.13038 (Simulation time: 0 hr 15 min 6 sec) 
Heartbeat CPU 0 instructions: 24000000 cycles: 11297482 heartbeat IPC: 1.99484 cumulative IPC: 2.12437 (Simulation time: 0 hr 15 min 49 sec) 
Heartbeat CPU 0 instructions: 25000002 cycles: 11838580 heartbeat IPC: 1.8481 cumulative IPC: 2.11174 (Simulation time: 0 hr 16 min 36 sec) 
Heartbeat CPU 0 instructions: 26000002 cycles: 12478113 heartbeat IPC: 1.56364 cumulative IPC: 2.08365 (Simulation time: 0 hr 17 min 27 sec) 
Heartbeat CPU 0 instructions: 27000003 cycles: 13064898 heartbeat IPC: 1.7042 cumulative IPC: 2.06661 (Simulation time: 0 hr 18 min 12 sec) 
Heartbeat CPU 0 instructions: 28000000 cycles: 13834948 heartbeat IPC: 1.29861 cumulative IPC: 2.02386 (Simulation time: 0 hr 19 min 4 sec) 
Heartbeat CPU 0 instructions: 29000002 cycles: 14416728 heartbeat IPC: 1.71887 cumulative IPC: 2.01155 (Simulation time: 0 hr 19 min 45 sec) 
Heartbeat CPU 0 instructions: 30000003 cycles: 14837042 heartbeat IPC: 2.37918 cumulative IPC: 2.02197 (Simulation time: 0 hr 20 min 21 sec) 
Heartbeat CPU 0 instructions: 31000003 cycles: 15303424 heartbeat IPC: 2.14417 cumulative IPC: 2.02569 (Simulation time: 0 hr 21 min 4 sec) 
Heartbeat CPU 0 instructions: 32000000 cycles: 15810668 heartbeat IPC: 1.97143 cumulative IPC: 2.02395 (Simulation time: 0 hr 21 min 49 sec) 
Heartbeat CPU 0 instructions: 33000000 cycles: 16343957 heartbeat IPC: 1.87516 cumulative IPC: 2.01909 (Simulation time: 0 hr 22 min 34 sec) 
Heartbeat CPU 0 instructions: 34000003 cycles: 16843327 heartbeat IPC: 2.00253 cumulative IPC: 2.0186 (Simulation time: 0 hr 23 min 12 sec) 
Heartbeat CPU 0 instructions: 35000003 cycles: 17211245 heartbeat IPC: 2.718 cumulative IPC: 2.03355 (Simulation time: 0 hr 23 min 48 sec) 
Heartbeat CPU 0 instructions: 36000000 cycles: 17652749 heartbeat IPC: 2.26498 cumulative IPC: 2.03934 (Simulation time: 0 hr 24 min 28 sec) 
Heartbeat CPU 0 instructions: 37000000 cycles: 18073864 heartbeat IPC: 2.37465 cumulative IPC: 2.04715 (Simulation time: 0 hr 25 min 9 sec) 
Heartbeat CPU 0 instructions: 38000003 cycles: 18457895 heartbeat IPC: 2.60396 cumulative IPC: 2.05874 (Simulation time: 0 hr 25 min 41 sec) 
Heartbeat CPU 0 instructions: 39000003 cycles: 18848615 heartbeat IPC: 2.55938 cumulative IPC: 2.06912 (Simulation time: 0 hr 26 min 13 sec) 
Heartbeat CPU 0 instructions: 40000000 cycles: 19371776 heartbeat IPC: 1.91145 cumulative IPC: 2.06486 (Simulation time: 0 hr 26 min 50 sec) 
Heartbeat CPU 0 instructions: 41000000 cycles: 19767312 heartbeat IPC: 2.52821 cumulative IPC: 2.07413 (Simulation time: 0 hr 27 min 32 sec) 
Heartbeat CPU 0 instructions: 42000001 cycles: 20185593 heartbeat IPC: 2.39074 cumulative IPC: 2.08069 (Simulation time: 0 hr 28 min 10 sec) 
Heartbeat CPU 0 instructions: 43000001 cycles: 20610096 heartbeat IPC: 2.3557 cumulative IPC: 2.08636 (Simulation time: 0 hr 28 min 51 sec) 
Heartbeat CPU 0 instructions: 44000000 cycles: 21009303 heartbeat IPC: 2.50496 cumulative IPC: 2.09431 (Simulation time: 0 hr 29 min 25 sec) 
Heartbeat CPU 0 instructions: 45000001 cycles: 21394005 heartbeat IPC: 2.59942 cumulative IPC: 2.10339 (Simulation time: 0 hr 29 min 59 sec) 
Heartbeat CPU 0 instructions: 46000000 cycles: 21879699 heartbeat IPC: 2.05891 cumulative IPC: 2.10241 (Simulation time: 0 hr 30 min 34 sec) 
Heartbeat CPU 0 instructions: 47000000 cycles: 22335226 heartbeat IPC: 2.19526 cumulative IPC: 2.1043 (Simulation time: 0 hr 31 min 18 sec) 
Heartbeat CPU 0 instructions: 48000000 cycles: 22776979 heartbeat IPC: 2.26371 cumulative IPC: 2.10739 (Simulation time: 0 hr 31 min 56 sec) 
Heartbeat CPU 0 instructions: 49000001 cycles: 23192575 heartbeat IPC: 2.40619 cumulative IPC: 2.11275 (Simulation time: 0 hr 32 min 31 sec) 
Heartbeat CPU 0 instructions: 50000003 cycles: 23613801 heartbeat IPC: 2.37403 cumulative IPC: 2.11741 (Simulation time: 0 hr 33 min 10 sec) 

Warmup complete CPU 0 instructions: 50000003 cycles: 23613801 (Simulation time: 0 hr 33 min 10 sec) 

Heartbeat CPU 0 instructions: 51000003 cycles: 25874526 heartbeat IPC: 0.442336 cumulative IPC: 0.442336 (Simulation time: 0 hr 33 min 53 sec) 
Heartbeat CPU 0 instructions: 52000000 cycles: 26987527 heartbeat IPC: 0.898469 cumulative IPC: 0.592815 (Simulation time: 0 hr 34 min 25 sec) 
Heartbeat CPU 0 instructions: 53000003 cycles: 30165360 heartbeat IPC: 0.314681 cumulative IPC: 0.457906 (Simulation time: 0 hr 35 min 13 sec) 
Heartbeat CPU 0 instructions: 54000001 cycles: 33504305 heartbeat IPC: 0.299495 cumulative IPC: 0.404428 (Simulation time: 0 hr 36 min 12 sec) 
Heartbeat CPU 0 instructions: 55000001 cycles: 36556063 heartbeat IPC: 0.32768 cumulative IPC: 0.386331 (Simulation time: 0 hr 37 min 11 sec) 
Heartbeat CPU 0 instructions: 56000000 cycles: 38346302 heartbeat IPC: 0.558584 cumulative IPC: 0.407263 (Simulation time: 0 hr 37 min 55 sec) 
Heartbeat CPU 0 instructions: 57000000 cycles: 41639458 heartbeat IPC: 0.30366 cumulative IPC: 0.388335 (Simulation time: 0 hr 38 min 54 sec) 
Heartbeat CPU 0 instructions: 58000000 cycles: 43773151 heartbeat IPC: 0.468671 cumulative IPC: 0.396838 (Simulation time: 0 hr 39 min 34 sec) 
Heartbeat CPU 0 instructions: 59000001 cycles: 44875232 heartbeat IPC: 0.907375 cumulative IPC: 0.423302 (Simulation time: 0 hr 40 min 3 sec) 
Heartbeat CPU 0 instructions: 60000000 cycles: 48080257 heartbeat IPC: 0.31201 cumulative IPC: 0.408723 (Simulation time: 0 hr 40 min 49 sec) 
Heartbeat CPU 0 instructions: 61000003 cycles: 51407531 heartbeat IPC: 0.300547 cumulative IPC: 0.395773 (Simulation time: 0 hr 41 min 46 sec) 
Heartbeat CPU 0 instructions: 62000002 cycles: 54581962 heartbeat IPC: 0.315017 cumulative IPC: 0.387495 (Simulation time: 0 hr 42 min 42 sec) 
Heartbeat CPU 0 instructions: 63000001 cycles: 56153359 heartbeat IPC: 0.636376 cumulative IPC: 0.399514 (Simulation time: 0 hr 43 min 24 sec) 
Heartbeat CPU 0 instructions: 64000000 cycles: 59824138 heartbeat IPC: 0.272421 cumulative IPC: 0.38663 (Simulation time: 0 hr 44 min 24 sec) 
Heartbeat CPU 0 instructions: 65000001 cycles: 61596652 heartbeat IPC: 0.564171 cumulative IPC: 0.394915 (Simulation time: 0 hr 44 min 59 sec) 
Heartbeat CPU 0 instructions: 66000000 cycles: 62690107 heartbeat IPC: 0.914531 cumulative IPC: 0.409455 (Simulation time: 0 hr 45 min 32 sec) 
Heartbeat CPU 0 instructions: 67000003 cycles: 65692460 heartbeat IPC: 0.333073 cumulative IPC: 0.404005 (Simulation time: 0 hr 46 min 18 sec) 
Heartbeat CPU 0 instructions: 68000000 cycles: 69024858 heartbeat IPC: 0.300083 cumulative IPC: 0.396379 (Simulation time: 0 hr 47 min 16 sec) 
Heartbeat CPU 0 instructions: 69000001 cycles: 71888737 heartbeat IPC: 0.349177 cumulative IPC: 0.393579 (Simulation time: 0 hr 48 min 10 sec) 
Heartbeat CPU 0 instructions: 70000000 cycles: 73694561 heartbeat IPC: 0.553763 cumulative IPC: 0.399355 (Simulation time: 0 hr 48 min 55 sec) 
Heartbeat CPU 0 instructions: 71000001 cycles: 77031212 heartbeat IPC: 0.299702 cumulative IPC: 0.39313 (Simulation time: 0 hr 49 min 53 sec) 
Heartbeat CPU 0 instructions: 72000000 cycles: 79158388 heartbeat IPC: 0.470106 cumulative IPC: 0.396078 (Simulation time: 0 hr 50 min 32 sec) 
Heartbeat CPU 0 instructions: 73000000 cycles: 80264973 heartbeat IPC: 0.903681 cumulative IPC: 0.405993 (Simulation time: 0 hr 51 min 4 sec) 
Heartbeat CPU 0 instructions: 74000001 cycles: 83180948 heartbeat IPC: 0.342939 cumulative IPC: 0.402907 (Simulation time: 0 hr 51 min 49 sec) 
Heartbeat CPU 0 instructions: 75000003 cycles: 86485310 heartbeat IPC: 0.302631 cumulative IPC: 0.397636 (Simulation time: 0 hr 52 min 46 sec) 
Heartbeat CPU 0 instructions: 76000000 cycles: 89837631 heartbeat IPC: 0.2983 cumulative IPC: 0.392608 (Simulation time: 0 hr 53 min 43 sec) 
Heartbeat CPU 0 instructions: 77000000 cycles: 91354538 heartbeat IPC: 0.659236 cumulative IPC: 0.398578 (Simulation time: 0 hr 54 min 26 sec) 
Heartbeat CPU 0 instructions: 78000000 cycles: 95123814 heartbeat IPC: 0.265303 cumulative IPC: 0.391554 (Simulation time: 0 hr 55 min 29 sec) 
Heartbeat CPU 0 instructions: 79000002 cycles: 96811489 heartbeat IPC: 0.592532 cumulative IPC: 0.396187 (Simulation time: 0 hr 56 min 4 sec) 
Heartbeat CPU 0 instructions: 80000000 cycles: 97900637 heartbeat IPC: 0.918147 cumulative IPC: 0.40384 (Simulation time: 0 hr 56 min 37 sec) 
Heartbeat CPU 0 instructions: 81000000 cycles: 100976121 heartbeat IPC: 0.325152 cumulative IPC: 0.400712 (Simulation time: 0 hr 57 min 26 sec) 
Heartbeat CPU 0 instructions: 82000000 cycles: 104290256 heartbeat IPC: 0.301738 cumulative IPC: 0.396646 (Simulation time: 0 hr 58 min 26 sec) 
Heartbeat CPU 0 instructions: 83000000 cycles: 107580193 heartbeat IPC: 0.303957 cumulative IPC: 0.393014 (Simulation time: 0 hr 59 min 17 sec) 
Heartbeat CPU 0 instructions: 84000000 cycles: 109216495 heartbeat IPC: 0.611134 cumulative IPC: 0.397184 (Simulation time: 1 hr 0 min 4 sec) 
Heartbeat CPU 0 instructions: 85000000 cycles: 113040624 heartbeat IPC: 0.261497 cumulative IPC: 0.391381 (Simulation time: 1 hr 1 min 5 sec) 
Heartbeat CPU 0 instructions: 86000002 cycles: 114380515 heartbeat IPC: 0.746331 cumulative IPC: 0.396621 (Simulation time: 1 hr 1 min 38 sec) 
Heartbeat CPU 0 instructions: 87000002 cycles: 115467006 heartbeat IPC: 0.920394 cumulative IPC: 0.402817 (Simulation time: 1 hr 2 min 10 sec) 
Heartbeat CPU 0 instructions: 88000000 cycles: 118795849 heartbeat IPC: 0.300404 cumulative IPC: 0.399235 (Simulation time: 1 hr 3 min 5 sec) 
Heartbeat CPU 0 instructions: 89000003 cycles: 122452445 heartbeat IPC: 0.273479 cumulative IPC: 0.394583 (Simulation time: 1 hr 4 min 11 sec) 
Heartbeat CPU 0 instructions: 90000001 cycles: 125494145 heartbeat IPC: 0.328763 cumulative IPC: 0.392617 (Simulation time: 1 hr 5 min 3 sec) 
Heartbeat CPU 0 instructions: 91000003 cycles: 127284804 heartbeat IPC: 0.558455 cumulative IPC: 0.395482 (Simulation time: 1 hr 5 min 48 sec) 
Heartbeat CPU 0 instructions: 92000000 cycles: 130903495 heartbeat IPC: 0.276342 cumulative IPC: 0.391463 (Simulation time: 1 hr 6 min 50 sec) 
Heartbeat CPU 0 instructions: 93000000 cycles: 132091153 heartbeat IPC: 0.841993 cumulative IPC: 0.396396 (Simulation time: 1 hr 7 min 17 sec) 
Heartbeat CPU 0 instructions: 94000000 cycles: 133369192 heartbeat IPC: 0.782449 cumulative IPC: 0.400891 (Simulation time: 1 hr 7 min 45 sec) 
Heartbeat CPU 0 instructions: 95000002 cycles: 136789570 heartbeat IPC: 0.292366 cumulative IPC: 0.397612 (Simulation time: 1 hr 8 min 33 sec) 
Heartbeat CPU 0 instructions: 96000000 cycles: 139731426 heartbeat IPC: 0.339921 cumulative IPC: 0.39615 (Simulation time: 1 hr 9 min 15 sec) 
Heartbeat CPU 0 instructions: 97000003 cycles: 142457659 heartbeat IPC: 0.366808 cumulative IPC: 0.395477 (Simulation time: 1 hr 9 min 53 sec) 
Heartbeat CPU 0 instructions: 98000003 cycles: 144696034 heartbeat IPC: 0.446753 cumulative IPC: 0.396425 (Simulation time: 1 hr 10 min 33 sec) 
Heartbeat CPU 0 instructions: 99000000 cycles: 147892769 heartbeat IPC: 0.312818 cumulative IPC: 0.394274 (Simulation time: 1 hr 11 min 13 sec) 
Heartbeat CPU 0 instructions: 100000000 cycles: 149057443 heartbeat IPC: 0.858609 cumulative IPC: 0.398585 (Simulation time: 1 hr 11 min 39 sec) 
Heartbeat CPU 0 instructions: 101000003 cycles: 150930582 heartbeat IPC: 0.533865 cumulative IPC: 0.400576 (Simulation time: 1 hr 12 min 10 sec) 
Heartbeat CPU 0 instructions: 102000002 cycles: 154274679 heartbeat IPC: 0.299034 cumulative IPC: 0.397977 (Simulation time: 1 hr 12 min 55 sec) 
Heartbeat CPU 0 instructions: 103000000 cycles: 156411850 heartbeat IPC: 0.467907 cumulative IPC: 0.399102 (Simulation time: 1 hr 13 min 38 sec) 
Heartbeat CPU 0 instructions: 104000000 cycles: 165072424 heartbeat IPC: 0.115466 cumulative IPC: 0.381737 (Simulation time: 1 hr 14 min 30 sec) 
Heartbeat CPU 0 instructions: 105000000 cycles: 167101150 heartbeat IPC: 0.49292 cumulative IPC: 0.383309 (Simulation time: 1 hr 15 min 20 sec) 
Heartbeat CPU 0 instructions: 106000002 cycles: 171228238 heartbeat IPC: 0.242302 cumulative IPC: 0.379367 (Simulation time: 1 hr 16 min 7 sec) 
Heartbeat CPU 0 instructions: 107000003 cycles: 175548275 heartbeat IPC: 0.23148 cumulative IPC: 0.375162 (Simulation time: 1 hr 16 min 51 sec) 
Heartbeat CPU 0 instructions: 108000000 cycles: 178879298 heartbeat IPC: 0.300207 cumulative IPC: 0.373554 (Simulation time: 1 hr 17 min 30 sec) 
Heartbeat CPU 0 instructions: 109000000 cycles: 182302854 heartbeat IPC: 0.292094 cumulative IPC: 0.371796 (Simulation time: 1 hr 18 min 8 sec) 
Heartbeat CPU 0 instructions: 110000003 cycles: 185898469 heartbeat IPC: 0.278117 cumulative IPC: 0.369721 (Simulation time: 1 hr 18 min 41 sec) 
Heartbeat CPU 0 instructions: 111000002 cycles: 189474848 heartbeat IPC: 0.279612 cumulative IPC: 0.367778 (Simulation time: 1 hr 19 min 19 sec) 
Heartbeat CPU 0 instructions: 112000000 cycles: 192106132 heartbeat IPC: 0.380042 cumulative IPC: 0.367969 (Simulation time: 1 hr 19 min 52 sec) 
Heartbeat CPU 0 instructions: 113000001 cycles: 195451317 heartbeat IPC: 0.298937 cumulative IPC: 0.366625 (Simulation time: 1 hr 20 min 30 sec) 
Heartbeat CPU 0 instructions: 114000000 cycles: 197411976 heartbeat IPC: 0.510032 cumulative IPC: 0.368243 (Simulation time: 1 hr 21 min 6 sec) 
Heartbeat CPU 0 instructions: 115000002 cycles: 198725381 heartbeat IPC: 0.761381 cumulative IPC: 0.371192 (Simulation time: 1 hr 21 min 39 sec) 
Heartbeat CPU 0 instructions: 116000000 cycles: 200097909 heartbeat IPC: 0.728581 cumulative IPC: 0.373971 (Simulation time: 1 hr 22 min 7 sec) 
Heartbeat CPU 0 instructions: 117000001 cycles: 202705737 heartbeat IPC: 0.383461 cumulative IPC: 0.37411 (Simulation time: 1 hr 22 min 44 sec) 
Heartbeat CPU 0 instructions: 118000002 cycles: 205517202 heartbeat IPC: 0.355687 cumulative IPC: 0.373825 (Simulation time: 1 hr 23 min 23 sec) 
Heartbeat CPU 0 instructions: 119000001 cycles: 207455177 heartbeat IPC: 0.516002 cumulative IPC: 0.375324 (Simulation time: 1 hr 23 min 53 sec) 
Heartbeat CPU 0 instructions: 120000000 cycles: 210168657 heartbeat IPC: 0.36853 cumulative IPC: 0.375225 (Simulation time: 1 hr 24 min 24 sec) 
Heartbeat CPU 0 instructions: 121000000 cycles: 211902825 heartbeat IPC: 0.576645 cumulative IPC: 0.37708 (Simulation time: 1 hr 24 min 51 sec) 
Heartbeat CPU 0 instructions: 122000000 cycles: 215780354 heartbeat IPC: 0.257896 cumulative IPC: 0.374675 (Simulation time: 1 hr 25 min 25 sec) 
Heartbeat CPU 0 instructions: 123000001 cycles: 216969627 heartbeat IPC: 0.840851 cumulative IPC: 0.377542 (Simulation time: 1 hr 25 min 41 sec) 
Heartbeat CPU 0 instructions: 124000000 cycles: 218102202 heartbeat IPC: 0.882943 cumulative IPC: 0.380485 (Simulation time: 1 hr 25 min 59 sec) 
Heartbeat CPU 0 instructions: 125000001 cycles: 221101009 heartbeat IPC: 0.333466 cumulative IPC: 0.379771 (Simulation time: 1 hr 26 min 28 sec) 
Heartbeat CPU 0 instructions: 126000000 cycles: 225240299 heartbeat IPC: 0.241587 cumulative IPC: 0.376935 (Simulation time: 1 hr 27 min 2 sec) 
Heartbeat CPU 0 instructions: 127000003 cycles: 227626371 heartbeat IPC: 0.4191 cumulative IPC: 0.377428 (Simulation time: 1 hr 27 min 24 sec) 
Heartbeat CPU 0 instructions: 128000000 cycles: 230429577 heartbeat IPC: 0.356733 cumulative IPC: 0.377147 (Simulation time: 1 hr 27 min 51 sec) 
Heartbeat CPU 0 instructions: 129000000 cycles: 233083102 heartbeat IPC: 0.376857 cumulative IPC: 0.377144 (Simulation time: 1 hr 28 min 15 sec) 
Heartbeat CPU 0 instructions: 130000003 cycles: 234222465 heartbeat IPC: 0.877686 cumulative IPC: 0.379851 (Simulation time: 1 hr 28 min 32 sec) 
Heartbeat CPU 0 instructions: 131000001 cycles: 236733253 heartbeat IPC: 0.398281 cumulative IPC: 0.380069 (Simulation time: 1 hr 28 min 54 sec) 
Heartbeat CPU 0 instructions: 132000000 cycles: 239964869 heartbeat IPC: 0.309442 cumulative IPC: 0.379014 (Simulation time: 1 hr 29 min 24 sec) 
Heartbeat CPU 0 instructions: 133000000 cycles: 242807773 heartbeat IPC: 0.351753 cumulative IPC: 0.37866 (Simulation time: 1 hr 29 min 48 sec) 
Heartbeat CPU 0 instructions: 134000002 cycles: 244375512 heartbeat IPC: 0.637863 cumulative IPC: 0.380501 (Simulation time: 1 hr 30 min 11 sec) 
Heartbeat CPU 0 instructions: 135000002 cycles: 248117206 heartbeat IPC: 0.267259 cumulative IPC: 0.378613 (Simulation time: 1 hr 30 min 41 sec) 
Heartbeat CPU 0 instructions: 136000000 cycles: 249865548 heartbeat IPC: 0.571969 cumulative IPC: 0.380108 (Simulation time: 1 hr 30 min 58 sec) 
Heartbeat CPU 0 instructions: 137000000 cycles: 250960009 heartbeat IPC: 0.913692 cumulative IPC: 0.382676 (Simulation time: 1 hr 31 min 13 sec) 
Heartbeat CPU 0 instructions: 138000003 cycles: 253998297 heartbeat IPC: 0.329134 cumulative IPC: 0.38197 (Simulation time: 1 hr 31 min 37 sec) 
Heartbeat CPU 0 instructions: 139000000 cycles: 257221161 heartbeat IPC: 0.310282 cumulative IPC: 0.380981 (Simulation time: 1 hr 32 min 3 sec) 
Heartbeat CPU 0 instructions: 140000000 cycles: 259372448 heartbeat IPC: 0.464838 cumulative IPC: 0.381746 (Simulation time: 1 hr 32 min 24 sec) 
Heartbeat CPU 0 instructions: 141000002 cycles: 261078622 heartbeat IPC: 0.586108 cumulative IPC: 0.383215 (Simulation time: 1 hr 32 min 44 sec) 
Heartbeat CPU 0 instructions: 142000002 cycles: 264630803 heartbeat IPC: 0.281517 cumulative IPC: 0.381716 (Simulation time: 1 hr 33 min 12 sec) 
Heartbeat CPU 0 instructions: 143000003 cycles: 266614029 heartbeat IPC: 0.504229 cumulative IPC: 0.382716 (Simulation time: 1 hr 33 min 27 sec) 
Heartbeat CPU 0 instructions: 144000000 cycles: 267719832 heartbeat IPC: 0.904317 cumulative IPC: 0.385079 (Simulation time: 1 hr 33 min 41 sec) 
Heartbeat CPU 0 instructions: 145000000 cycles: 270703922 heartbeat IPC: 0.335111 cumulative IPC: 0.384475 (Simulation time: 1 hr 34 min 0 sec) 
Heartbeat CPU 0 instructions: 146000003 cycles: 273974731 heartbeat IPC: 0.305736 cumulative IPC: 0.383446 (Simulation time: 1 hr 34 min 21 sec) 
Heartbeat CPU 0 instructions: 147000000 cycles: 275970065 heartbeat IPC: 0.501168 cumulative IPC: 0.384377 (Simulation time: 1 hr 34 min 37 sec) 
Heartbeat CPU 0 instructions: 148000000 cycles: 277488025 heartbeat IPC: 0.658779 cumulative IPC: 0.386018 (Simulation time: 1 hr 34 min 52 sec) 
Heartbeat CPU 0 instructions: 149000001 cycles: 281331208 heartbeat IPC: 0.260201 cumulative IPC: 0.384142 (Simulation time: 1 hr 35 min 12 sec) 
Heartbeat CPU 0 instructions: 150000002 cycles: 283022517 heartbeat IPC: 0.591259 cumulative IPC: 0.385492 (Simulation time: 1 hr 35 min 24 sec) 
Finished CPU 0 instructions: 100000002 cycles: 259408718 cummulative IPC: 0.385492 (Simulation time: 1 hr 35 min 24 sec) 

ChampSim completed all CPUs

Region of Interest Statistics

CPU 0 cummulative IPC: 0.385492 instructions: 100000002 cycles: 259408718
LLC TOTAL     ACCESS:    8438260  HIT:    4603586  MISS:    3834674
LLC LOAD      ACCESS:    2159634  HIT:    1005339  MISS:    1154295
LLC RFO       ACCESS:     775965  HIT:     274394  MISS:     501571
LLC PREFETCH  ACCESS:    3416773  HIT:    1599774  MISS:    1816999
LLC WRITEBACK ACCESS:    2085888  HIT:    1724079  MISS:     361809
OPTgen accesses: 69938
OPTgen hits: 51638
OPTgen hit rate: 73.834


