
*** ChampSim Multicore Out-of-Order Simulator ***

Warmup Instructions: 50000000
Simulation Instructions: 100000000
Configuration: 2
Number of CPUs: 1
LLC sets: 2048
LLC ways: 16
Off-chip DRAM Channels: 1 Width: 64-bit Data Rate: 1600 MT/s

CPU 0 runs /datasets/cs240c-wi22-a00-public/data/Assignment2-gz/omnetpp_4B.trace.gz
CPU 0 L1D next line prefetcher
CPU 0 L2C IP-based stride prefetcher
Initialize Hawkeye state
Heartbeat CPU 0 instructions: 1000001 cycles: 566983 heartbeat IPC: 1.76372 cumulative IPC: 1.76372 (Simulation time: 0 hr 0 min 39 sec) 
Heartbeat CPU 0 instructions: 2000001 cycles: 1135676 heartbeat IPC: 1.75842 cumulative IPC: 1.76107 (Simulation time: 0 hr 1 min 12 sec) 
Heartbeat CPU 0 instructions: 3000001 cycles: 1722681 heartbeat IPC: 1.70356 cumulative IPC: 1.74147 (Simulation time: 0 hr 1 min 47 sec) 
Heartbeat CPU 0 instructions: 4000000 cycles: 2292001 heartbeat IPC: 1.75648 cumulative IPC: 1.7452 (Simulation time: 0 hr 2 min 19 sec) 
Heartbeat CPU 0 instructions: 5000000 cycles: 2866190 heartbeat IPC: 1.74159 cumulative IPC: 1.74448 (Simulation time: 0 hr 2 min 53 sec) 
Heartbeat CPU 0 instructions: 6000000 cycles: 3442424 heartbeat IPC: 1.73541 cumulative IPC: 1.74296 (Simulation time: 0 hr 3 min 26 sec) 
Heartbeat CPU 0 instructions: 7000000 cycles: 4011759 heartbeat IPC: 1.75644 cumulative IPC: 1.74487 (Simulation time: 0 hr 3 min 58 sec) 
Heartbeat CPU 0 instructions: 8000000 cycles: 4565312 heartbeat IPC: 1.80651 cumulative IPC: 1.75234 (Simulation time: 0 hr 4 min 31 sec) 
Heartbeat CPU 0 instructions: 9000001 cycles: 5147473 heartbeat IPC: 1.71774 cumulative IPC: 1.74843 (Simulation time: 0 hr 5 min 6 sec) 
Heartbeat CPU 0 instructions: 10000000 cycles: 5701533 heartbeat IPC: 1.80486 cumulative IPC: 1.75391 (Simulation time: 0 hr 5 min 41 sec) 
Heartbeat CPU 0 instructions: 11000000 cycles: 6288734 heartbeat IPC: 1.70299 cumulative IPC: 1.74916 (Simulation time: 0 hr 6 min 16 sec) 
Heartbeat CPU 0 instructions: 12000000 cycles: 6939821 heartbeat IPC: 1.53589 cumulative IPC: 1.72915 (Simulation time: 0 hr 6 min 46 sec) 
Heartbeat CPU 0 instructions: 13000002 cycles: 7587007 heartbeat IPC: 1.54515 cumulative IPC: 1.71346 (Simulation time: 0 hr 7 min 16 sec) 
Heartbeat CPU 0 instructions: 14000000 cycles: 8237508 heartbeat IPC: 1.53727 cumulative IPC: 1.69954 (Simulation time: 0 hr 7 min 46 sec) 
Heartbeat CPU 0 instructions: 15000000 cycles: 8891040 heartbeat IPC: 1.53015 cumulative IPC: 1.68709 (Simulation time: 0 hr 8 min 16 sec) 
Heartbeat CPU 0 instructions: 16000000 cycles: 9461525 heartbeat IPC: 1.75289 cumulative IPC: 1.69106 (Simulation time: 0 hr 8 min 51 sec) 
Heartbeat CPU 0 instructions: 17000000 cycles: 10043542 heartbeat IPC: 1.71816 cumulative IPC: 1.69263 (Simulation time: 0 hr 9 min 26 sec) 
Heartbeat CPU 0 instructions: 18000000 cycles: 10615048 heartbeat IPC: 1.74976 cumulative IPC: 1.69571 (Simulation time: 0 hr 10 min 0 sec) 
Heartbeat CPU 0 instructions: 19000002 cycles: 11183850 heartbeat IPC: 1.75808 cumulative IPC: 1.69888 (Simulation time: 0 hr 10 min 35 sec) 
Heartbeat CPU 0 instructions: 20000000 cycles: 11731583 heartbeat IPC: 1.8257 cumulative IPC: 1.7048 (Simulation time: 0 hr 11 min 12 sec) 
Heartbeat CPU 0 instructions: 21000000 cycles: 12279830 heartbeat IPC: 1.824 cumulative IPC: 1.71012 (Simulation time: 0 hr 11 min 48 sec) 
Heartbeat CPU 0 instructions: 22000001 cycles: 12832806 heartbeat IPC: 1.8084 cumulative IPC: 1.71436 (Simulation time: 0 hr 12 min 23 sec) 
Heartbeat CPU 0 instructions: 23000000 cycles: 13414433 heartbeat IPC: 1.71931 cumulative IPC: 1.71457 (Simulation time: 0 hr 13 min 0 sec) 
Heartbeat CPU 0 instructions: 24000000 cycles: 13984246 heartbeat IPC: 1.75496 cumulative IPC: 1.71622 (Simulation time: 0 hr 13 min 33 sec) 
Heartbeat CPU 0 instructions: 25000000 cycles: 14547128 heartbeat IPC: 1.77657 cumulative IPC: 1.71855 (Simulation time: 0 hr 14 min 7 sec) 
Heartbeat CPU 0 instructions: 26000001 cycles: 15116698 heartbeat IPC: 1.75571 cumulative IPC: 1.71995 (Simulation time: 0 hr 14 min 42 sec) 
Heartbeat CPU 0 instructions: 27000001 cycles: 15683416 heartbeat IPC: 1.76455 cumulative IPC: 1.72156 (Simulation time: 0 hr 15 min 16 sec) 
Heartbeat CPU 0 instructions: 28000000 cycles: 16252640 heartbeat IPC: 1.75678 cumulative IPC: 1.7228 (Simulation time: 0 hr 15 min 50 sec) 
Heartbeat CPU 0 instructions: 29000000 cycles: 16839042 heartbeat IPC: 1.70531 cumulative IPC: 1.72219 (Simulation time: 0 hr 16 min 24 sec) 
Heartbeat CPU 0 instructions: 30000000 cycles: 17409822 heartbeat IPC: 1.75199 cumulative IPC: 1.72317 (Simulation time: 0 hr 16 min 57 sec) 
Heartbeat CPU 0 instructions: 31000000 cycles: 17985465 heartbeat IPC: 1.73719 cumulative IPC: 1.72361 (Simulation time: 0 hr 17 min 31 sec) 
Heartbeat CPU 0 instructions: 32000000 cycles: 18555301 heartbeat IPC: 1.75489 cumulative IPC: 1.72457 (Simulation time: 0 hr 18 min 4 sec) 
Heartbeat CPU 0 instructions: 33000000 cycles: 19113952 heartbeat IPC: 1.79003 cumulative IPC: 1.72649 (Simulation time: 0 hr 18 min 39 sec) 
Heartbeat CPU 0 instructions: 34000001 cycles: 19666610 heartbeat IPC: 1.80944 cumulative IPC: 1.72882 (Simulation time: 0 hr 19 min 13 sec) 
Heartbeat CPU 0 instructions: 35000001 cycles: 20247645 heartbeat IPC: 1.72107 cumulative IPC: 1.7286 (Simulation time: 0 hr 19 min 48 sec) 
Heartbeat CPU 0 instructions: 36000000 cycles: 20803315 heartbeat IPC: 1.79963 cumulative IPC: 1.73049 (Simulation time: 0 hr 20 min 23 sec) 
Heartbeat CPU 0 instructions: 37000001 cycles: 21375567 heartbeat IPC: 1.74748 cumulative IPC: 1.73095 (Simulation time: 0 hr 20 min 57 sec) 
Heartbeat CPU 0 instructions: 38000001 cycles: 21936113 heartbeat IPC: 1.78397 cumulative IPC: 1.7323 (Simulation time: 0 hr 21 min 34 sec) 
Heartbeat CPU 0 instructions: 39000001 cycles: 22548979 heartbeat IPC: 1.63168 cumulative IPC: 1.72957 (Simulation time: 0 hr 22 min 8 sec) 
Heartbeat CPU 0 instructions: 40000000 cycles: 23197984 heartbeat IPC: 1.54082 cumulative IPC: 1.72429 (Simulation time: 0 hr 22 min 39 sec) 
Heartbeat CPU 0 instructions: 41000001 cycles: 23846935 heartbeat IPC: 1.54095 cumulative IPC: 1.7193 (Simulation time: 0 hr 23 min 9 sec) 
Heartbeat CPU 0 instructions: 42000001 cycles: 24493852 heartbeat IPC: 1.54579 cumulative IPC: 1.71472 (Simulation time: 0 hr 23 min 41 sec) 
Heartbeat CPU 0 instructions: 43000000 cycles: 25162516 heartbeat IPC: 1.49552 cumulative IPC: 1.70889 (Simulation time: 0 hr 24 min 14 sec) 
Heartbeat CPU 0 instructions: 44000000 cycles: 25726357 heartbeat IPC: 1.77355 cumulative IPC: 1.71031 (Simulation time: 0 hr 24 min 47 sec) 
Heartbeat CPU 0 instructions: 45000000 cycles: 26290139 heartbeat IPC: 1.77374 cumulative IPC: 1.71167 (Simulation time: 0 hr 25 min 21 sec) 
Heartbeat CPU 0 instructions: 46000000 cycles: 26836379 heartbeat IPC: 1.8307 cumulative IPC: 1.71409 (Simulation time: 0 hr 25 min 57 sec) 
Heartbeat CPU 0 instructions: 47000000 cycles: 27382591 heartbeat IPC: 1.83079 cumulative IPC: 1.71642 (Simulation time: 0 hr 26 min 31 sec) 
Heartbeat CPU 0 instructions: 48000000 cycles: 27934123 heartbeat IPC: 1.81313 cumulative IPC: 1.71833 (Simulation time: 0 hr 27 min 5 sec) 
Heartbeat CPU 0 instructions: 49000002 cycles: 28515073 heartbeat IPC: 1.72132 cumulative IPC: 1.71839 (Simulation time: 0 hr 27 min 40 sec) 
Heartbeat CPU 0 instructions: 50000000 cycles: 29085108 heartbeat IPC: 1.75427 cumulative IPC: 1.71909 (Simulation time: 0 hr 28 min 13 sec) 

Warmup complete CPU 0 instructions: 50000002 cycles: 29085109 (Simulation time: 0 hr 28 min 13 sec) 

Heartbeat CPU 0 instructions: 51000003 cycles: 31985749 heartbeat IPC: 0.344752 cumulative IPC: 0.344752 (Simulation time: 0 hr 28 min 53 sec) 
Heartbeat CPU 0 instructions: 52000000 cycles: 34866697 heartbeat IPC: 0.347107 cumulative IPC: 0.345925 (Simulation time: 0 hr 29 min 33 sec) 
Heartbeat CPU 0 instructions: 53000003 cycles: 37771971 heartbeat IPC: 0.344203 cumulative IPC: 0.345349 (Simulation time: 0 hr 30 min 13 sec) 
Heartbeat CPU 0 instructions: 54000001 cycles: 40645198 heartbeat IPC: 0.34804 cumulative IPC: 0.346018 (Simulation time: 0 hr 30 min 53 sec) 
Heartbeat CPU 0 instructions: 55000001 cycles: 43655195 heartbeat IPC: 0.332226 cumulative IPC: 0.343169 (Simulation time: 0 hr 31 min 34 sec) 
Heartbeat CPU 0 instructions: 56000000 cycles: 46525115 heartbeat IPC: 0.348441 cumulative IPC: 0.344036 (Simulation time: 0 hr 32 min 12 sec) 
Heartbeat CPU 0 instructions: 57000003 cycles: 49380279 heartbeat IPC: 0.350244 cumulative IPC: 0.34491 (Simulation time: 0 hr 32 min 48 sec) 
Heartbeat CPU 0 instructions: 58000001 cycles: 52469635 heartbeat IPC: 0.323691 cumulative IPC: 0.342107 (Simulation time: 0 hr 33 min 28 sec) 
Heartbeat CPU 0 instructions: 59000001 cycles: 55882803 heartbeat IPC: 0.292983 cumulative IPC: 0.33585 (Simulation time: 0 hr 34 min 10 sec) 
Heartbeat CPU 0 instructions: 60000000 cycles: 58971774 heartbeat IPC: 0.323732 cumulative IPC: 0.334597 (Simulation time: 0 hr 34 min 51 sec) 
Heartbeat CPU 0 instructions: 61000001 cycles: 62098675 heartbeat IPC: 0.319806 cumulative IPC: 0.333196 (Simulation time: 0 hr 35 min 32 sec) 
Heartbeat CPU 0 instructions: 62000000 cycles: 65539287 heartbeat IPC: 0.290646 cumulative IPC: 0.32918 (Simulation time: 0 hr 36 min 14 sec) 
Heartbeat CPU 0 instructions: 63000001 cycles: 68462837 heartbeat IPC: 0.34205 cumulative IPC: 0.330136 (Simulation time: 0 hr 36 min 54 sec) 
Heartbeat CPU 0 instructions: 64000000 cycles: 71369497 heartbeat IPC: 0.344037 cumulative IPC: 0.331091 (Simulation time: 0 hr 37 min 33 sec) 
Heartbeat CPU 0 instructions: 65000001 cycles: 74264876 heartbeat IPC: 0.345378 cumulative IPC: 0.332007 (Simulation time: 0 hr 38 min 12 sec) 
Heartbeat CPU 0 instructions: 66000002 cycles: 78560834 heartbeat IPC: 0.232777 cumulative IPC: 0.323391 (Simulation time: 0 hr 39 min 0 sec) 
Heartbeat CPU 0 instructions: 67000001 cycles: 80236061 heartbeat IPC: 0.596933 cumulative IPC: 0.33235 (Simulation time: 0 hr 39 min 34 sec) 
Heartbeat CPU 0 instructions: 68000000 cycles: 81359611 heartbeat IPC: 0.890035 cumulative IPC: 0.344336 (Simulation time: 0 hr 40 min 4 sec) 
Heartbeat CPU 0 instructions: 69000003 cycles: 82501624 heartbeat IPC: 0.875649 cumulative IPC: 0.355695 (Simulation time: 0 hr 40 min 35 sec) 
Heartbeat CPU 0 instructions: 70000000 cycles: 83622024 heartbeat IPC: 0.892536 cumulative IPC: 0.366724 (Simulation time: 0 hr 41 min 5 sec) 
Heartbeat CPU 0 instructions: 71000001 cycles: 84795406 heartbeat IPC: 0.852238 cumulative IPC: 0.37695 (Simulation time: 0 hr 41 min 37 sec) 
Heartbeat CPU 0 instructions: 72000000 cycles: 88217336 heartbeat IPC: 0.292232 cumulative IPC: 0.372048 (Simulation time: 0 hr 42 min 16 sec) 
Heartbeat CPU 0 instructions: 73000000 cycles: 91736411 heartbeat IPC: 0.284166 cumulative IPC: 0.367111 (Simulation time: 0 hr 42 min 57 sec) 
Heartbeat CPU 0 instructions: 74000001 cycles: 95204218 heartbeat IPC: 0.288367 cumulative IPC: 0.362981 (Simulation time: 0 hr 43 min 39 sec) 
Heartbeat CPU 0 instructions: 75000001 cycles: 98182159 heartbeat IPC: 0.335802 cumulative IPC: 0.36181 (Simulation time: 0 hr 44 min 20 sec) 
Heartbeat CPU 0 instructions: 76000000 cycles: 101056590 heartbeat IPC: 0.347895 cumulative IPC: 0.361254 (Simulation time: 0 hr 45 min 0 sec) 
Heartbeat CPU 0 instructions: 77000000 cycles: 103968976 heartbeat IPC: 0.343361 cumulative IPC: 0.360558 (Simulation time: 0 hr 45 min 38 sec) 
Heartbeat CPU 0 instructions: 78000001 cycles: 106879936 heartbeat IPC: 0.34353 cumulative IPC: 0.359921 (Simulation time: 0 hr 46 min 17 sec) 
Heartbeat CPU 0 instructions: 79000001 cycles: 109784156 heartbeat IPC: 0.344327 cumulative IPC: 0.35936 (Simulation time: 0 hr 46 min 56 sec) 
Heartbeat CPU 0 instructions: 80000000 cycles: 112664428 heartbeat IPC: 0.347189 cumulative IPC: 0.35894 (Simulation time: 0 hr 47 min 35 sec) 
Heartbeat CPU 0 instructions: 81000002 cycles: 115619632 heartbeat IPC: 0.338387 cumulative IPC: 0.358239 (Simulation time: 0 hr 48 min 16 sec) 
Heartbeat CPU 0 instructions: 82000001 cycles: 118487482 heartbeat IPC: 0.348693 cumulative IPC: 0.357932 (Simulation time: 0 hr 48 min 55 sec) 
Heartbeat CPU 0 instructions: 83000002 cycles: 121416194 heartbeat IPC: 0.341447 cumulative IPC: 0.357409 (Simulation time: 0 hr 49 min 36 sec) 
Heartbeat CPU 0 instructions: 84000000 cycles: 124382208 heartbeat IPC: 0.337152 cumulative IPC: 0.356779 (Simulation time: 0 hr 50 min 16 sec) 
Heartbeat CPU 0 instructions: 85000002 cycles: 127831829 heartbeat IPC: 0.289887 cumulative IPC: 0.354442 (Simulation time: 0 hr 50 min 57 sec) 
Heartbeat CPU 0 instructions: 86000002 cycles: 131281926 heartbeat IPC: 0.289847 cumulative IPC: 0.352261 (Simulation time: 0 hr 51 min 38 sec) 
Heartbeat CPU 0 instructions: 87000000 cycles: 134387607 heartbeat IPC: 0.32199 cumulative IPC: 0.351369 (Simulation time: 0 hr 52 min 20 sec) 
Heartbeat CPU 0 instructions: 88000000 cycles: 137491864 heartbeat IPC: 0.322138 cumulative IPC: 0.350532 (Simulation time: 0 hr 53 min 1 sec) 
Heartbeat CPU 0 instructions: 89000002 cycles: 140681784 heartbeat IPC: 0.313488 cumulative IPC: 0.349473 (Simulation time: 0 hr 53 min 39 sec) 
Heartbeat CPU 0 instructions: 90000001 cycles: 143544288 heartbeat IPC: 0.349344 cumulative IPC: 0.34947 (Simulation time: 0 hr 54 min 19 sec) 
Heartbeat CPU 0 instructions: 91000001 cycles: 146421134 heartbeat IPC: 0.347603 cumulative IPC: 0.349424 (Simulation time: 0 hr 54 min 59 sec) 
Heartbeat CPU 0 instructions: 92000000 cycles: 149384950 heartbeat IPC: 0.337403 cumulative IPC: 0.349128 (Simulation time: 0 hr 55 min 40 sec) 
Heartbeat CPU 0 instructions: 93000000 cycles: 152271672 heartbeat IPC: 0.346414 cumulative IPC: 0.349064 (Simulation time: 0 hr 56 min 21 sec) 
Heartbeat CPU 0 instructions: 94000000 cycles: 156968184 heartbeat IPC: 0.212924 cumulative IPC: 0.344064 (Simulation time: 0 hr 57 min 12 sec) 
Heartbeat CPU 0 instructions: 95000000 cycles: 158156334 heartbeat IPC: 0.841645 cumulative IPC: 0.348645 (Simulation time: 0 hr 57 min 44 sec) 
Heartbeat CPU 0 instructions: 96000000 cycles: 159299315 heartbeat IPC: 0.874905 cumulative IPC: 0.353264 (Simulation time: 0 hr 58 min 15 sec) 
Heartbeat CPU 0 instructions: 97000002 cycles: 160418019 heartbeat IPC: 0.893893 cumulative IPC: 0.357869 (Simulation time: 0 hr 58 min 49 sec) 
Heartbeat CPU 0 instructions: 98000001 cycles: 161559957 heartbeat IPC: 0.875703 cumulative IPC: 0.362333 (Simulation time: 0 hr 59 min 20 sec) 
Heartbeat CPU 0 instructions: 99000002 cycles: 163468137 heartbeat IPC: 0.52406 cumulative IPC: 0.364629 (Simulation time: 0 hr 59 min 56 sec) 
Heartbeat CPU 0 instructions: 100000000 cycles: 166998015 heartbeat IPC: 0.283295 cumulative IPC: 0.362548 (Simulation time: 1 hr 0 min 39 sec) 
Heartbeat CPU 0 instructions: 101000002 cycles: 170175956 heartbeat IPC: 0.31467 cumulative IPC: 0.361469 (Simulation time: 1 hr 1 min 19 sec) 
Heartbeat CPU 0 instructions: 102000001 cycles: 173274868 heartbeat IPC: 0.322694 cumulative IPC: 0.360636 (Simulation time: 1 hr 2 min 0 sec) 
Heartbeat CPU 0 instructions: 103000000 cycles: 176160955 heartbeat IPC: 0.34649 cumulative IPC: 0.360358 (Simulation time: 1 hr 2 min 39 sec) 
Heartbeat CPU 0 instructions: 104000000 cycles: 179043689 heartbeat IPC: 0.346893 cumulative IPC: 0.360099 (Simulation time: 1 hr 3 min 19 sec) 
Heartbeat CPU 0 instructions: 105000001 cycles: 181914840 heartbeat IPC: 0.348293 cumulative IPC: 0.359878 (Simulation time: 1 hr 3 min 58 sec) 
Heartbeat CPU 0 instructions: 106000000 cycles: 184912487 heartbeat IPC: 0.333595 cumulative IPC: 0.359372 (Simulation time: 1 hr 4 min 41 sec) 
Heartbeat CPU 0 instructions: 107000002 cycles: 187801880 heartbeat IPC: 0.346094 cumulative IPC: 0.35913 (Simulation time: 1 hr 5 min 21 sec) 
Heartbeat CPU 0 instructions: 108000000 cycles: 190696562 heartbeat IPC: 0.34546 cumulative IPC: 0.358885 (Simulation time: 1 hr 5 min 55 sec) 
Heartbeat CPU 0 instructions: 109000002 cycles: 193565604 heartbeat IPC: 0.348549 cumulative IPC: 0.358705 (Simulation time: 1 hr 6 min 32 sec) 
Heartbeat CPU 0 instructions: 110000001 cycles: 196491541 heartbeat IPC: 0.341771 cumulative IPC: 0.358409 (Simulation time: 1 hr 7 min 11 sec) 
Heartbeat CPU 0 instructions: 111000001 cycles: 199554553 heartbeat IPC: 0.326476 cumulative IPC: 0.357835 (Simulation time: 1 hr 7 min 45 sec) 
Heartbeat CPU 0 instructions: 112000000 cycles: 202962210 heartbeat IPC: 0.293456 cumulative IPC: 0.356574 (Simulation time: 1 hr 8 min 27 sec) 
Heartbeat CPU 0 instructions: 113000002 cycles: 206075893 heartbeat IPC: 0.321164 cumulative IPC: 0.355951 (Simulation time: 1 hr 9 min 0 sec) 
Heartbeat CPU 0 instructions: 114000001 cycles: 209492399 heartbeat IPC: 0.292696 cumulative IPC: 0.354753 (Simulation time: 1 hr 9 min 35 sec) 
Heartbeat CPU 0 instructions: 115000001 cycles: 212692552 heartbeat IPC: 0.312485 cumulative IPC: 0.354016 (Simulation time: 1 hr 10 min 10 sec) 
Heartbeat CPU 0 instructions: 116000000 cycles: 215662296 heartbeat IPC: 0.336729 cumulative IPC: 0.353741 (Simulation time: 1 hr 10 min 43 sec) 
Heartbeat CPU 0 instructions: 117000001 cycles: 218571935 heartbeat IPC: 0.343686 cumulative IPC: 0.353587 (Simulation time: 1 hr 11 min 14 sec) 
Heartbeat CPU 0 instructions: 118000000 cycles: 221574197 heartbeat IPC: 0.333082 cumulative IPC: 0.353267 (Simulation time: 1 hr 11 min 48 sec) 
Heartbeat CPU 0 instructions: 119000001 cycles: 224484399 heartbeat IPC: 0.343619 cumulative IPC: 0.353123 (Simulation time: 1 hr 12 min 23 sec) 
Heartbeat CPU 0 instructions: 120000000 cycles: 227411175 heartbeat IPC: 0.341673 cumulative IPC: 0.352954 (Simulation time: 1 hr 12 min 56 sec) 
Heartbeat CPU 0 instructions: 121000003 cycles: 230343884 heartbeat IPC: 0.340983 cumulative IPC: 0.35278 (Simulation time: 1 hr 13 min 27 sec) 
Heartbeat CPU 0 instructions: 122000000 cycles: 235045715 heartbeat IPC: 0.212682 cumulative IPC: 0.349581 (Simulation time: 1 hr 14 min 5 sec) 
Heartbeat CPU 0 instructions: 123000001 cycles: 236211489 heartbeat IPC: 0.8578 cumulative IPC: 0.352442 (Simulation time: 1 hr 14 min 31 sec) 
Heartbeat CPU 0 instructions: 124000000 cycles: 237333465 heartbeat IPC: 0.891284 cumulative IPC: 0.355345 (Simulation time: 1 hr 14 min 56 sec) 
Heartbeat CPU 0 instructions: 125000000 cycles: 238475102 heartbeat IPC: 0.875935 cumulative IPC: 0.358183 (Simulation time: 1 hr 15 min 19 sec) 
Heartbeat CPU 0 instructions: 126000001 cycles: 239706879 heartbeat IPC: 0.811836 cumulative IPC: 0.360836 (Simulation time: 1 hr 15 min 44 sec) 
Heartbeat CPU 0 instructions: 127000000 cycles: 241735341 heartbeat IPC: 0.492984 cumulative IPC: 0.362097 (Simulation time: 1 hr 16 min 9 sec) 
Heartbeat CPU 0 instructions: 128000000 cycles: 245234076 heartbeat IPC: 0.285818 cumulative IPC: 0.360862 (Simulation time: 1 hr 16 min 40 sec) 
Heartbeat CPU 0 instructions: 129000001 cycles: 248438753 heartbeat IPC: 0.312044 cumulative IPC: 0.360149 (Simulation time: 1 hr 17 min 11 sec) 
Heartbeat CPU 0 instructions: 130000000 cycles: 251345760 heartbeat IPC: 0.343996 cumulative IPC: 0.359938 (Simulation time: 1 hr 17 min 41 sec) 
Heartbeat CPU 0 instructions: 131000001 cycles: 254266479 heartbeat IPC: 0.342382 cumulative IPC: 0.35971 (Simulation time: 1 hr 18 min 11 sec) 
Heartbeat CPU 0 instructions: 132000000 cycles: 257212483 heartbeat IPC: 0.339443 cumulative IPC: 0.359448 (Simulation time: 1 hr 18 min 44 sec) 
Heartbeat CPU 0 instructions: 133000000 cycles: 260164974 heartbeat IPC: 0.338697 cumulative IPC: 0.359183 (Simulation time: 1 hr 19 min 14 sec) 
Heartbeat CPU 0 instructions: 134000000 cycles: 263088935 heartbeat IPC: 0.342002 cumulative IPC: 0.358968 (Simulation time: 1 hr 19 min 44 sec) 
Heartbeat CPU 0 instructions: 135000000 cycles: 265998729 heartbeat IPC: 0.343667 cumulative IPC: 0.358781 (Simulation time: 1 hr 20 min 14 sec) 
Heartbeat CPU 0 instructions: 136000000 cycles: 268904876 heartbeat IPC: 0.344098 cumulative IPC: 0.358603 (Simulation time: 1 hr 20 min 44 sec) 
Heartbeat CPU 0 instructions: 137000000 cycles: 271769512 heartbeat IPC: 0.349084 cumulative IPC: 0.35849 (Simulation time: 1 hr 21 min 14 sec) 
Heartbeat CPU 0 instructions: 138000001 cycles: 275089998 heartbeat IPC: 0.301161 cumulative IPC: 0.357716 (Simulation time: 1 hr 21 min 44 sec) 
Heartbeat CPU 0 instructions: 139000000 cycles: 277868380 heartbeat IPC: 0.359921 cumulative IPC: 0.357741 (Simulation time: 1 hr 22 min 13 sec) 
Heartbeat CPU 0 instructions: 140000000 cycles: 281333158 heartbeat IPC: 0.288619 cumulative IPC: 0.356792 (Simulation time: 1 hr 22 min 48 sec) 
Heartbeat CPU 0 instructions: 141000002 cycles: 284781844 heartbeat IPC: 0.289966 cumulative IPC: 0.35589 (Simulation time: 1 hr 23 min 19 sec) 
Heartbeat CPU 0 instructions: 142000001 cycles: 288117936 heartbeat IPC: 0.299752 cumulative IPC: 0.355167 (Simulation time: 1 hr 23 min 46 sec) 
Heartbeat CPU 0 instructions: 143000001 cycles: 291078291 heartbeat IPC: 0.337797 cumulative IPC: 0.354971 (Simulation time: 1 hr 24 min 11 sec) 
Heartbeat CPU 0 instructions: 144000000 cycles: 294084680 heartbeat IPC: 0.332625 cumulative IPC: 0.354718 (Simulation time: 1 hr 24 min 38 sec) 
Heartbeat CPU 0 instructions: 145000001 cycles: 296986151 heartbeat IPC: 0.344653 cumulative IPC: 0.354609 (Simulation time: 1 hr 25 min 1 sec) 
Heartbeat CPU 0 instructions: 146000000 cycles: 299930374 heartbeat IPC: 0.339648 cumulative IPC: 0.354446 (Simulation time: 1 hr 25 min 24 sec) 
Heartbeat CPU 0 instructions: 147000001 cycles: 302877766 heartbeat IPC: 0.339283 cumulative IPC: 0.354283 (Simulation time: 1 hr 25 min 46 sec) 
Heartbeat CPU 0 instructions: 148000000 cycles: 305817996 heartbeat IPC: 0.340109 cumulative IPC: 0.354132 (Simulation time: 1 hr 26 min 9 sec) 
Heartbeat CPU 0 instructions: 149000002 cycles: 308723493 heartbeat IPC: 0.344176 cumulative IPC: 0.354029 (Simulation time: 1 hr 26 min 31 sec) 
Heartbeat CPU 0 instructions: 150000001 cycles: 313440571 heartbeat IPC: 0.211995 cumulative IPC: 0.351673 (Simulation time: 1 hr 26 min 58 sec) 
Finished CPU 0 instructions: 100000000 cycles: 284355465 cummulative IPC: 0.351673 (Simulation time: 1 hr 26 min 58 sec) 

ChampSim completed all CPUs

Region of Interest Statistics

CPU 0 cummulative IPC: 0.351673 instructions: 100000000 cycles: 284355465
LLC TOTAL     ACCESS:    4942366  HIT:    2169831  MISS:    2772535
LLC LOAD      ACCESS:    2312083  HIT:    1798815  MISS:     513268
LLC RFO       ACCESS:      25017  HIT:       7425  MISS:      17592
LLC PREFETCH  ACCESS:    2523964  HIT:     292481  MISS:    2231483
LLC WRITEBACK ACCESS:      81302  HIT:      71110  MISS:      10192
OPTgen accesses: 53283
OPTgen hits: 51568
OPTgen hit rate: 96.7813


