
*** ChampSim Multicore Out-of-Order Simulator ***

Warmup Instructions: 50000000
Simulation Instructions: 100000000
Configuration: 2
Number of CPUs: 1
LLC sets: 2048
LLC ways: 16
Off-chip DRAM Channels: 1 Width: 64-bit Data Rate: 1600 MT/s

CPU 0 runs /datasets/cs240c-wi22-a00-public/data/Assignment2-gz/wrf_1228B.trace.gz
CPU 0 L1D next line prefetcher
CPU 0 L2C IP-based stride prefetcher
Initialize Hawkeye state
Heartbeat CPU 0 instructions: 1000003 cycles: 591062 heartbeat IPC: 1.69187 cumulative IPC: 1.69187 (Simulation time: 0 hr 0 min 44 sec) 
Heartbeat CPU 0 instructions: 2000003 cycles: 1111191 heartbeat IPC: 1.9226 cumulative IPC: 1.79987 (Simulation time: 0 hr 1 min 24 sec) 
Heartbeat CPU 0 instructions: 3000000 cycles: 1729169 heartbeat IPC: 1.61818 cumulative IPC: 1.73494 (Simulation time: 0 hr 2 min 9 sec) 
Heartbeat CPU 0 instructions: 4000000 cycles: 2349823 heartbeat IPC: 1.6112 cumulative IPC: 1.70226 (Simulation time: 0 hr 2 min 52 sec) 
Heartbeat CPU 0 instructions: 5000000 cycles: 3052186 heartbeat IPC: 1.42377 cumulative IPC: 1.63817 (Simulation time: 0 hr 3 min 35 sec) 
Heartbeat CPU 0 instructions: 6000000 cycles: 3612273 heartbeat IPC: 1.78544 cumulative IPC: 1.661 (Simulation time: 0 hr 4 min 16 sec) 
Heartbeat CPU 0 instructions: 7000001 cycles: 4165037 heartbeat IPC: 1.80909 cumulative IPC: 1.68066 (Simulation time: 0 hr 5 min 0 sec) 
Heartbeat CPU 0 instructions: 8000000 cycles: 4716403 heartbeat IPC: 1.81368 cumulative IPC: 1.69621 (Simulation time: 0 hr 5 min 43 sec) 
Heartbeat CPU 0 instructions: 9000002 cycles: 5266587 heartbeat IPC: 1.81758 cumulative IPC: 1.70889 (Simulation time: 0 hr 6 min 24 sec) 
Heartbeat CPU 0 instructions: 10000001 cycles: 5819483 heartbeat IPC: 1.80866 cumulative IPC: 1.71837 (Simulation time: 0 hr 7 min 4 sec) 
Heartbeat CPU 0 instructions: 11000002 cycles: 6373228 heartbeat IPC: 1.80589 cumulative IPC: 1.72597 (Simulation time: 0 hr 7 min 45 sec) 
Heartbeat CPU 0 instructions: 12000000 cycles: 6924073 heartbeat IPC: 1.81539 cumulative IPC: 1.73308 (Simulation time: 0 hr 8 min 24 sec) 
Heartbeat CPU 0 instructions: 13000003 cycles: 7475098 heartbeat IPC: 1.81481 cumulative IPC: 1.73911 (Simulation time: 0 hr 9 min 4 sec) 
Heartbeat CPU 0 instructions: 14000000 cycles: 7938740 heartbeat IPC: 2.15683 cumulative IPC: 1.7635 (Simulation time: 0 hr 9 min 42 sec) 
Heartbeat CPU 0 instructions: 15000002 cycles: 8329222 heartbeat IPC: 2.56094 cumulative IPC: 1.80089 (Simulation time: 0 hr 10 min 15 sec) 
Heartbeat CPU 0 instructions: 16000000 cycles: 8719687 heartbeat IPC: 2.56104 cumulative IPC: 1.83493 (Simulation time: 0 hr 10 min 49 sec) 
Heartbeat CPU 0 instructions: 17000001 cycles: 9108851 heartbeat IPC: 2.56961 cumulative IPC: 1.86632 (Simulation time: 0 hr 11 min 22 sec) 
Heartbeat CPU 0 instructions: 18000003 cycles: 9499582 heartbeat IPC: 2.55931 cumulative IPC: 1.89482 (Simulation time: 0 hr 11 min 55 sec) 
Heartbeat CPU 0 instructions: 19000001 cycles: 9889926 heartbeat IPC: 2.56184 cumulative IPC: 1.92115 (Simulation time: 0 hr 12 min 29 sec) 
Heartbeat CPU 0 instructions: 20000000 cycles: 10279438 heartbeat IPC: 2.56731 cumulative IPC: 1.94563 (Simulation time: 0 hr 13 min 1 sec) 
Heartbeat CPU 0 instructions: 21000003 cycles: 10669379 heartbeat IPC: 2.5645 cumulative IPC: 1.96825 (Simulation time: 0 hr 13 min 36 sec) 
Heartbeat CPU 0 instructions: 22000000 cycles: 11071710 heartbeat IPC: 2.48551 cumulative IPC: 1.98705 (Simulation time: 0 hr 14 min 10 sec) 
Heartbeat CPU 0 instructions: 23000003 cycles: 11599063 heartbeat IPC: 1.89627 cumulative IPC: 1.98292 (Simulation time: 0 hr 14 min 48 sec) 
Heartbeat CPU 0 instructions: 24000000 cycles: 12126778 heartbeat IPC: 1.89496 cumulative IPC: 1.97909 (Simulation time: 0 hr 15 min 28 sec) 
Heartbeat CPU 0 instructions: 25000000 cycles: 12654059 heartbeat IPC: 1.89652 cumulative IPC: 1.97565 (Simulation time: 0 hr 16 min 4 sec) 
Heartbeat CPU 0 instructions: 26000003 cycles: 13181034 heartbeat IPC: 1.89763 cumulative IPC: 1.97253 (Simulation time: 0 hr 16 min 43 sec) 
Heartbeat CPU 0 instructions: 27000001 cycles: 13707936 heartbeat IPC: 1.89788 cumulative IPC: 1.96966 (Simulation time: 0 hr 17 min 24 sec) 
Heartbeat CPU 0 instructions: 28000000 cycles: 14234993 heartbeat IPC: 1.89733 cumulative IPC: 1.96698 (Simulation time: 0 hr 18 min 3 sec) 
Heartbeat CPU 0 instructions: 29000003 cycles: 14865524 heartbeat IPC: 1.58597 cumulative IPC: 1.95082 (Simulation time: 0 hr 18 min 40 sec) 
Heartbeat CPU 0 instructions: 30000003 cycles: 15479034 heartbeat IPC: 1.62997 cumulative IPC: 1.93811 (Simulation time: 0 hr 19 min 22 sec) 
Heartbeat CPU 0 instructions: 31000001 cycles: 16036362 heartbeat IPC: 1.79427 cumulative IPC: 1.93311 (Simulation time: 0 hr 20 min 4 sec) 
Heartbeat CPU 0 instructions: 32000000 cycles: 16591939 heartbeat IPC: 1.79993 cumulative IPC: 1.92865 (Simulation time: 0 hr 20 min 46 sec) 
Heartbeat CPU 0 instructions: 33000001 cycles: 17212744 heartbeat IPC: 1.61081 cumulative IPC: 1.91718 (Simulation time: 0 hr 21 min 28 sec) 
Heartbeat CPU 0 instructions: 34000003 cycles: 17833300 heartbeat IPC: 1.61146 cumulative IPC: 1.90655 (Simulation time: 0 hr 22 min 14 sec) 
Heartbeat CPU 0 instructions: 35000002 cycles: 18516733 heartbeat IPC: 1.4632 cumulative IPC: 1.89018 (Simulation time: 0 hr 22 min 57 sec) 
Heartbeat CPU 0 instructions: 36000000 cycles: 19069545 heartbeat IPC: 1.80893 cumulative IPC: 1.88783 (Simulation time: 0 hr 23 min 37 sec) 
Heartbeat CPU 0 instructions: 37000001 cycles: 19623036 heartbeat IPC: 1.80672 cumulative IPC: 1.88554 (Simulation time: 0 hr 24 min 18 sec) 
Heartbeat CPU 0 instructions: 38000001 cycles: 20173221 heartbeat IPC: 1.81757 cumulative IPC: 1.88369 (Simulation time: 0 hr 24 min 56 sec) 
Heartbeat CPU 0 instructions: 39000002 cycles: 20724687 heartbeat IPC: 1.81335 cumulative IPC: 1.88181 (Simulation time: 0 hr 25 min 38 sec) 
Heartbeat CPU 0 instructions: 40000000 cycles: 21277144 heartbeat IPC: 1.81009 cumulative IPC: 1.87995 (Simulation time: 0 hr 26 min 16 sec) 
Heartbeat CPU 0 instructions: 41000000 cycles: 21829659 heartbeat IPC: 1.80991 cumulative IPC: 1.87818 (Simulation time: 0 hr 26 min 56 sec) 
Heartbeat CPU 0 instructions: 42000000 cycles: 22382134 heartbeat IPC: 1.81004 cumulative IPC: 1.8765 (Simulation time: 0 hr 27 min 36 sec) 
Heartbeat CPU 0 instructions: 43000000 cycles: 22932628 heartbeat IPC: 1.81655 cumulative IPC: 1.87506 (Simulation time: 0 hr 28 min 17 sec) 
Heartbeat CPU 0 instructions: 44000000 cycles: 23336475 heartbeat IPC: 2.47619 cumulative IPC: 1.88546 (Simulation time: 0 hr 28 min 52 sec) 
Heartbeat CPU 0 instructions: 45000000 cycles: 23725985 heartbeat IPC: 2.56733 cumulative IPC: 1.89665 (Simulation time: 0 hr 29 min 25 sec) 
Heartbeat CPU 0 instructions: 46000000 cycles: 24116108 heartbeat IPC: 2.56329 cumulative IPC: 1.90744 (Simulation time: 0 hr 29 min 57 sec) 
Heartbeat CPU 0 instructions: 47000002 cycles: 24506602 heartbeat IPC: 2.56086 cumulative IPC: 1.91785 (Simulation time: 0 hr 30 min 31 sec) 
Heartbeat CPU 0 instructions: 48000000 cycles: 24896712 heartbeat IPC: 2.56337 cumulative IPC: 1.92797 (Simulation time: 0 hr 31 min 5 sec) 
Heartbeat CPU 0 instructions: 49000001 cycles: 25285957 heartbeat IPC: 2.56908 cumulative IPC: 1.93783 (Simulation time: 0 hr 31 min 39 sec) 
Heartbeat CPU 0 instructions: 50000003 cycles: 25676622 heartbeat IPC: 2.55974 cumulative IPC: 1.9473 (Simulation time: 0 hr 32 min 11 sec) 

Warmup complete CPU 0 instructions: 50000003 cycles: 25676622 (Simulation time: 0 hr 32 min 11 sec) 

Heartbeat CPU 0 instructions: 51000001 cycles: 26515604 heartbeat IPC: 1.19192 cumulative IPC: 1.19192 (Simulation time: 0 hr 32 min 45 sec) 
Heartbeat CPU 0 instructions: 52000000 cycles: 27416901 heartbeat IPC: 1.10951 cumulative IPC: 1.14924 (Simulation time: 0 hr 33 min 21 sec) 
Heartbeat CPU 0 instructions: 53000002 cycles: 28363703 heartbeat IPC: 1.05619 cumulative IPC: 1.11645 (Simulation time: 0 hr 34 min 3 sec) 
Heartbeat CPU 0 instructions: 54000001 cycles: 29318172 heartbeat IPC: 1.0477 cumulative IPC: 1.09843 (Simulation time: 0 hr 34 min 44 sec) 
Heartbeat CPU 0 instructions: 55000001 cycles: 30240617 heartbeat IPC: 1.08408 cumulative IPC: 1.09553 (Simulation time: 0 hr 35 min 23 sec) 
Heartbeat CPU 0 instructions: 56000000 cycles: 31188339 heartbeat IPC: 1.05516 cumulative IPC: 1.08859 (Simulation time: 0 hr 36 min 2 sec) 
Heartbeat CPU 0 instructions: 57000001 cycles: 32122037 heartbeat IPC: 1.07101 cumulative IPC: 1.08604 (Simulation time: 0 hr 36 min 43 sec) 
Heartbeat CPU 0 instructions: 58000000 cycles: 33049585 heartbeat IPC: 1.07811 cumulative IPC: 1.08505 (Simulation time: 0 hr 37 min 23 sec) 
Heartbeat CPU 0 instructions: 59000002 cycles: 34864281 heartbeat IPC: 0.551058 cumulative IPC: 0.979575 (Simulation time: 0 hr 38 min 12 sec) 
Heartbeat CPU 0 instructions: 60000000 cycles: 36435255 heartbeat IPC: 0.636546 cumulative IPC: 0.929486 (Simulation time: 0 hr 39 min 0 sec) 
Heartbeat CPU 0 instructions: 61000000 cycles: 38821371 heartbeat IPC: 0.419091 cumulative IPC: 0.836836 (Simulation time: 0 hr 39 min 47 sec) 
Heartbeat CPU 0 instructions: 62000000 cycles: 40588889 heartbeat IPC: 0.565765 cumulative IPC: 0.804706 (Simulation time: 0 hr 40 min 35 sec) 
Heartbeat CPU 0 instructions: 63000001 cycles: 42106104 heartbeat IPC: 0.659103 cumulative IPC: 0.79126 (Simulation time: 0 hr 41 min 21 sec) 
Heartbeat CPU 0 instructions: 64000000 cycles: 43621167 heartbeat IPC: 0.660038 cumulative IPC: 0.780181 (Simulation time: 0 hr 42 min 7 sec) 
Heartbeat CPU 0 instructions: 65000003 cycles: 45115992 heartbeat IPC: 0.668977 cumulative IPC: 0.77163 (Simulation time: 0 hr 42 min 52 sec) 
Heartbeat CPU 0 instructions: 66000000 cycles: 46611973 heartbeat IPC: 0.668456 cumulative IPC: 0.764257 (Simulation time: 0 hr 43 min 39 sec) 
Heartbeat CPU 0 instructions: 67000000 cycles: 48106515 heartbeat IPC: 0.669101 cumulative IPC: 0.757917 (Simulation time: 0 hr 44 min 26 sec) 
Heartbeat CPU 0 instructions: 68000000 cycles: 49600971 heartbeat IPC: 0.66914 cumulative IPC: 0.752371 (Simulation time: 0 hr 45 min 14 sec) 
Heartbeat CPU 0 instructions: 69000000 cycles: 51108531 heartbeat IPC: 0.663324 cumulative IPC: 0.747093 (Simulation time: 0 hr 46 min 1 sec) 
Heartbeat CPU 0 instructions: 70000001 cycles: 52605189 heartbeat IPC: 0.668156 cumulative IPC: 0.742706 (Simulation time: 0 hr 46 min 49 sec) 
Heartbeat CPU 0 instructions: 71000001 cycles: 54099255 heartbeat IPC: 0.669315 cumulative IPC: 0.738848 (Simulation time: 0 hr 47 min 37 sec) 
Heartbeat CPU 0 instructions: 72000000 cycles: 55582208 heartbeat IPC: 0.67433 cumulative IPC: 0.735648 (Simulation time: 0 hr 48 min 23 sec) 
Heartbeat CPU 0 instructions: 73000003 cycles: 57069917 heartbeat IPC: 0.672176 cumulative IPC: 0.732641 (Simulation time: 0 hr 49 min 12 sec) 
Heartbeat CPU 0 instructions: 74000000 cycles: 58567446 heartbeat IPC: 0.667765 cumulative IPC: 0.729687 (Simulation time: 0 hr 49 min 59 sec) 
Heartbeat CPU 0 instructions: 75000001 cycles: 60061294 heartbeat IPC: 0.669413 cumulative IPC: 0.727068 (Simulation time: 0 hr 50 min 47 sec) 
Heartbeat CPU 0 instructions: 76000000 cycles: 61558154 heartbeat IPC: 0.668064 cumulative IPC: 0.724607 (Simulation time: 0 hr 51 min 34 sec) 
Heartbeat CPU 0 instructions: 77000003 cycles: 63051951 heartbeat IPC: 0.669437 cumulative IPC: 0.722402 (Simulation time: 0 hr 52 min 19 sec) 
Heartbeat CPU 0 instructions: 78000001 cycles: 64546751 heartbeat IPC: 0.668984 cumulative IPC: 0.720347 (Simulation time: 0 hr 53 min 7 sec) 
Heartbeat CPU 0 instructions: 79000000 cycles: 66043469 heartbeat IPC: 0.668128 cumulative IPC: 0.718411 (Simulation time: 0 hr 53 min 53 sec) 
Heartbeat CPU 0 instructions: 80000000 cycles: 67534057 heartbeat IPC: 0.670876 cumulative IPC: 0.716718 (Simulation time: 0 hr 54 min 41 sec) 
Heartbeat CPU 0 instructions: 81000001 cycles: 69018014 heartbeat IPC: 0.673875 cumulative IPC: 0.715252 (Simulation time: 0 hr 55 min 29 sec) 
Heartbeat CPU 0 instructions: 82000000 cycles: 70500838 heartbeat IPC: 0.674388 cumulative IPC: 0.7139 (Simulation time: 0 hr 56 min 17 sec) 
Heartbeat CPU 0 instructions: 83000000 cycles: 71984340 heartbeat IPC: 0.674081 cumulative IPC: 0.712624 (Simulation time: 0 hr 57 min 8 sec) 
Heartbeat CPU 0 instructions: 84000000 cycles: 73479135 heartbeat IPC: 0.668988 cumulative IPC: 0.71126 (Simulation time: 0 hr 57 min 57 sec) 
Heartbeat CPU 0 instructions: 85000000 cycles: 74974015 heartbeat IPC: 0.66895 cumulative IPC: 0.709977 (Simulation time: 0 hr 58 min 44 sec) 
Heartbeat CPU 0 instructions: 86000000 cycles: 76468484 heartbeat IPC: 0.669134 cumulative IPC: 0.708775 (Simulation time: 0 hr 59 min 31 sec) 
Heartbeat CPU 0 instructions: 87000000 cycles: 77963343 heartbeat IPC: 0.668959 cumulative IPC: 0.707637 (Simulation time: 1 hr 0 min 17 sec) 
Heartbeat CPU 0 instructions: 88000000 cycles: 79458561 heartbeat IPC: 0.668799 cumulative IPC: 0.706557 (Simulation time: 1 hr 1 min 3 sec) 
Heartbeat CPU 0 instructions: 89000002 cycles: 80954233 heartbeat IPC: 0.668597 cumulative IPC: 0.70553 (Simulation time: 1 hr 1 min 47 sec) 
Heartbeat CPU 0 instructions: 90000000 cycles: 82438571 heartbeat IPC: 0.6737 cumulative IPC: 0.704697 (Simulation time: 1 hr 2 min 29 sec) 
Heartbeat CPU 0 instructions: 91000000 cycles: 83922190 heartbeat IPC: 0.674028 cumulative IPC: 0.703916 (Simulation time: 1 hr 3 min 10 sec) 
Heartbeat CPU 0 instructions: 92000000 cycles: 85406031 heartbeat IPC: 0.673927 cumulative IPC: 0.703171 (Simulation time: 1 hr 3 min 53 sec) 
Heartbeat CPU 0 instructions: 93000000 cycles: 86895770 heartbeat IPC: 0.671259 cumulative IPC: 0.702395 (Simulation time: 1 hr 4 min 34 sec) 
Heartbeat CPU 0 instructions: 94000003 cycles: 88389626 heartbeat IPC: 0.669411 cumulative IPC: 0.701609 (Simulation time: 1 hr 5 min 16 sec) 
Heartbeat CPU 0 instructions: 95000000 cycles: 89885392 heartbeat IPC: 0.668552 cumulative IPC: 0.700839 (Simulation time: 1 hr 5 min 55 sec) 
Heartbeat CPU 0 instructions: 96000000 cycles: 91379342 heartbeat IPC: 0.669366 cumulative IPC: 0.700123 (Simulation time: 1 hr 6 min 36 sec) 
Heartbeat CPU 0 instructions: 97000001 cycles: 92874895 heartbeat IPC: 0.66865 cumulative IPC: 0.699423 (Simulation time: 1 hr 7 min 22 sec) 
Heartbeat CPU 0 instructions: 98000003 cycles: 94370237 heartbeat IPC: 0.668745 cumulative IPC: 0.698755 (Simulation time: 1 hr 8 min 2 sec) 
Heartbeat CPU 0 instructions: 99000000 cycles: 95859339 heartbeat IPC: 0.671544 cumulative IPC: 0.698178 (Simulation time: 1 hr 8 min 43 sec) 
Heartbeat CPU 0 instructions: 100000000 cycles: 97342731 heartbeat IPC: 0.674131 cumulative IPC: 0.69768 (Simulation time: 1 hr 9 min 21 sec) 
Heartbeat CPU 0 instructions: 101000000 cycles: 98825939 heartbeat IPC: 0.674214 cumulative IPC: 0.697204 (Simulation time: 1 hr 10 min 0 sec) 
Heartbeat CPU 0 instructions: 102000003 cycles: 100309524 heartbeat IPC: 0.674045 cumulative IPC: 0.696744 (Simulation time: 1 hr 10 min 42 sec) 
Heartbeat CPU 0 instructions: 103000003 cycles: 101805784 heartbeat IPC: 0.668333 cumulative IPC: 0.696185 (Simulation time: 1 hr 11 min 18 sec) 
Heartbeat CPU 0 instructions: 104000000 cycles: 103300315 heartbeat IPC: 0.669104 cumulative IPC: 0.695664 (Simulation time: 1 hr 11 min 57 sec) 
Heartbeat CPU 0 instructions: 105000000 cycles: 104795123 heartbeat IPC: 0.668982 cumulative IPC: 0.69516 (Simulation time: 1 hr 12 min 39 sec) 
Heartbeat CPU 0 instructions: 106000000 cycles: 106290183 heartbeat IPC: 0.668869 cumulative IPC: 0.694672 (Simulation time: 1 hr 13 min 21 sec) 
Heartbeat CPU 0 instructions: 107000000 cycles: 107786029 heartbeat IPC: 0.668518 cumulative IPC: 0.694196 (Simulation time: 1 hr 13 min 58 sec) 
Heartbeat CPU 0 instructions: 108000000 cycles: 109281612 heartbeat IPC: 0.668636 cumulative IPC: 0.693738 (Simulation time: 1 hr 14 min 33 sec) 
Heartbeat CPU 0 instructions: 109000003 cycles: 110764455 heartbeat IPC: 0.674382 cumulative IPC: 0.693401 (Simulation time: 1 hr 15 min 9 sec) 
Heartbeat CPU 0 instructions: 110000001 cycles: 112247654 heartbeat IPC: 0.674217 cumulative IPC: 0.693072 (Simulation time: 1 hr 15 min 47 sec) 
Heartbeat CPU 0 instructions: 111000000 cycles: 113731231 heartbeat IPC: 0.674046 cumulative IPC: 0.692752 (Simulation time: 1 hr 16 min 21 sec) 
Heartbeat CPU 0 instructions: 112000000 cycles: 115222606 heartbeat IPC: 0.670522 cumulative IPC: 0.692382 (Simulation time: 1 hr 16 min 59 sec) 
Heartbeat CPU 0 instructions: 113000000 cycles: 116716563 heartbeat IPC: 0.669363 cumulative IPC: 0.692004 (Simulation time: 1 hr 17 min 35 sec) 
Heartbeat CPU 0 instructions: 114000000 cycles: 118212337 heartbeat IPC: 0.66855 cumulative IPC: 0.691625 (Simulation time: 1 hr 18 min 10 sec) 
Heartbeat CPU 0 instructions: 115000003 cycles: 119706432 heartbeat IPC: 0.669303 cumulative IPC: 0.69127 (Simulation time: 1 hr 18 min 45 sec) 
Heartbeat CPU 0 instructions: 116000000 cycles: 121202505 heartbeat IPC: 0.668415 cumulative IPC: 0.690912 (Simulation time: 1 hr 19 min 20 sec) 
Heartbeat CPU 0 instructions: 117000000 cycles: 122698099 heartbeat IPC: 0.668631 cumulative IPC: 0.690569 (Simulation time: 1 hr 19 min 55 sec) 
Heartbeat CPU 0 instructions: 118000000 cycles: 124185890 heartbeat IPC: 0.672137 cumulative IPC: 0.69029 (Simulation time: 1 hr 20 min 29 sec) 
Heartbeat CPU 0 instructions: 119000001 cycles: 125669809 heartbeat IPC: 0.673892 cumulative IPC: 0.690047 (Simulation time: 1 hr 21 min 5 sec) 
Heartbeat CPU 0 instructions: 120000000 cycles: 127153072 heartbeat IPC: 0.674189 cumulative IPC: 0.689815 (Simulation time: 1 hr 21 min 42 sec) 
Heartbeat CPU 0 instructions: 121000000 cycles: 128637784 heartbeat IPC: 0.673531 cumulative IPC: 0.68958 (Simulation time: 1 hr 22 min 16 sec) 
Heartbeat CPU 0 instructions: 122000002 cycles: 130136066 heartbeat IPC: 0.667432 cumulative IPC: 0.689263 (Simulation time: 1 hr 22 min 53 sec) 
Heartbeat CPU 0 instructions: 123000002 cycles: 131637639 heartbeat IPC: 0.665968 cumulative IPC: 0.688933 (Simulation time: 1 hr 23 min 27 sec) 
Heartbeat CPU 0 instructions: 124000000 cycles: 133134857 heartbeat IPC: 0.667904 cumulative IPC: 0.68864 (Simulation time: 1 hr 23 min 55 sec) 
Heartbeat CPU 0 instructions: 125000000 cycles: 134630637 heartbeat IPC: 0.668548 cumulative IPC: 0.688364 (Simulation time: 1 hr 24 min 21 sec) 
Heartbeat CPU 0 instructions: 126000000 cycles: 136143744 heartbeat IPC: 0.660892 cumulative IPC: 0.687988 (Simulation time: 1 hr 24 min 47 sec) 
Heartbeat CPU 0 instructions: 127000000 cycles: 137640662 heartbeat IPC: 0.668039 cumulative IPC: 0.687721 (Simulation time: 1 hr 25 min 14 sec) 
Heartbeat CPU 0 instructions: 128000000 cycles: 139131626 heartbeat IPC: 0.670707 cumulative IPC: 0.687497 (Simulation time: 1 hr 25 min 41 sec) 
Heartbeat CPU 0 instructions: 129000000 cycles: 140615273 heartbeat IPC: 0.674015 cumulative IPC: 0.687323 (Simulation time: 1 hr 26 min 8 sec) 
Heartbeat CPU 0 instructions: 130000001 cycles: 142105691 heartbeat IPC: 0.670953 cumulative IPC: 0.687114 (Simulation time: 1 hr 26 min 35 sec) 
Heartbeat CPU 0 instructions: 131000001 cycles: 143600842 heartbeat IPC: 0.668829 cumulative IPC: 0.686882 (Simulation time: 1 hr 27 min 2 sec) 
Heartbeat CPU 0 instructions: 132000000 cycles: 145096334 heartbeat IPC: 0.668676 cumulative IPC: 0.686654 (Simulation time: 1 hr 27 min 27 sec) 
Heartbeat CPU 0 instructions: 133000000 cycles: 146594745 heartbeat IPC: 0.667374 cumulative IPC: 0.686415 (Simulation time: 1 hr 27 min 55 sec) 
Heartbeat CPU 0 instructions: 134000000 cycles: 148089303 heartbeat IPC: 0.669094 cumulative IPC: 0.686203 (Simulation time: 1 hr 28 min 22 sec) 
Heartbeat CPU 0 instructions: 135000001 cycles: 149584539 heartbeat IPC: 0.668791 cumulative IPC: 0.685993 (Simulation time: 1 hr 28 min 49 sec) 
Heartbeat CPU 0 instructions: 136000000 cycles: 151082190 heartbeat IPC: 0.667712 cumulative IPC: 0.685775 (Simulation time: 1 hr 29 min 16 sec) 
Heartbeat CPU 0 instructions: 137000002 cycles: 152568868 heartbeat IPC: 0.672642 cumulative IPC: 0.685621 (Simulation time: 1 hr 29 min 40 sec) 
Heartbeat CPU 0 instructions: 138000001 cycles: 154053668 heartbeat IPC: 0.673491 cumulative IPC: 0.685481 (Simulation time: 1 hr 30 min 5 sec) 
Heartbeat CPU 0 instructions: 139000001 cycles: 155537358 heartbeat IPC: 0.673995 cumulative IPC: 0.68535 (Simulation time: 1 hr 30 min 29 sec) 
Heartbeat CPU 0 instructions: 140000000 cycles: 157023351 heartbeat IPC: 0.67295 cumulative IPC: 0.685209 (Simulation time: 1 hr 30 min 53 sec) 
Heartbeat CPU 0 instructions: 141000002 cycles: 158519477 heartbeat IPC: 0.668394 cumulative IPC: 0.68502 (Simulation time: 1 hr 31 min 17 sec) 
Heartbeat CPU 0 instructions: 142000000 cycles: 160014559 heartbeat IPC: 0.668858 cumulative IPC: 0.68484 (Simulation time: 1 hr 31 min 41 sec) 
Heartbeat CPU 0 instructions: 143000000 cycles: 161508969 heartbeat IPC: 0.66916 cumulative IPC: 0.684668 (Simulation time: 1 hr 32 min 3 sec) 
Heartbeat CPU 0 instructions: 144000000 cycles: 163004078 heartbeat IPC: 0.668848 cumulative IPC: 0.684495 (Simulation time: 1 hr 32 min 25 sec) 
Heartbeat CPU 0 instructions: 145000000 cycles: 164500449 heartbeat IPC: 0.668283 cumulative IPC: 0.684321 (Simulation time: 1 hr 32 min 47 sec) 
Heartbeat CPU 0 instructions: 146000000 cycles: 165992178 heartbeat IPC: 0.670363 cumulative IPC: 0.684172 (Simulation time: 1 hr 33 min 10 sec) 
Heartbeat CPU 0 instructions: 147000003 cycles: 167475135 heartbeat IPC: 0.67433 cumulative IPC: 0.684069 (Simulation time: 1 hr 33 min 30 sec) 
Heartbeat CPU 0 instructions: 148000000 cycles: 168959282 heartbeat IPC: 0.673786 cumulative IPC: 0.683963 (Simulation time: 1 hr 33 min 50 sec) 
Heartbeat CPU 0 instructions: 149000002 cycles: 170442766 heartbeat IPC: 0.67409 cumulative IPC: 0.683862 (Simulation time: 1 hr 34 min 9 sec) 
Heartbeat CPU 0 instructions: 150000001 cycles: 171936294 heartbeat IPC: 0.669555 cumulative IPC: 0.683715 (Simulation time: 1 hr 34 min 27 sec) 
Finished CPU 0 instructions: 100000001 cycles: 146259676 cummulative IPC: 0.683715 (Simulation time: 1 hr 34 min 27 sec) 

ChampSim completed all CPUs

Region of Interest Statistics

CPU 0 cummulative IPC: 0.683715 instructions: 100000001 cycles: 146259676
LLC TOTAL     ACCESS:     644673  HIT:     110093  MISS:     534580
LLC LOAD      ACCESS:      35489  HIT:      10838  MISS:      24651
LLC RFO       ACCESS:     120254  HIT:       4124  MISS:     116130
LLC PREFETCH  ACCESS:     306306  HIT:      41723  MISS:     264583
LLC WRITEBACK ACCESS:     182624  HIT:      53408  MISS:     129216
OPTgen accesses: 5898
OPTgen hits: 2079
OPTgen hit rate: 35.2492


