
*** ChampSim Multicore Out-of-Order Simulator ***

Warmup Instructions: 50000000
Simulation Instructions: 100000000
Configuration: 2
Number of CPUs: 1
LLC sets: 2048
LLC ways: 16
Off-chip DRAM Channels: 1 Width: 64-bit Data Rate: 1600 MT/s

CPU 0 runs /datasets/cs240c-wi22-a00-public/data/Assignment2-gz/zeusmp_300B.trace.gz
CPU 0 L1D next line prefetcher
CPU 0 L2C IP-based stride prefetcher
Initialize Hawkeye state
Heartbeat CPU 0 instructions: 1000003 cycles: 509580 heartbeat IPC: 1.96241 cumulative IPC: 1.96241 (Simulation time: 0 hr 0 min 35 sec) 
Heartbeat CPU 0 instructions: 2000003 cycles: 1062148 heartbeat IPC: 1.80973 cumulative IPC: 1.88298 (Simulation time: 0 hr 1 min 8 sec) 
Heartbeat CPU 0 instructions: 3000002 cycles: 1606419 heartbeat IPC: 1.83732 cumulative IPC: 1.86751 (Simulation time: 0 hr 1 min 41 sec) 
Heartbeat CPU 0 instructions: 4000000 cycles: 2093208 heartbeat IPC: 2.05427 cumulative IPC: 1.91094 (Simulation time: 0 hr 2 min 15 sec) 
Heartbeat CPU 0 instructions: 5000001 cycles: 2575890 heartbeat IPC: 2.07176 cumulative IPC: 1.94108 (Simulation time: 0 hr 2 min 48 sec) 
Heartbeat CPU 0 instructions: 6000000 cycles: 3062578 heartbeat IPC: 2.0547 cumulative IPC: 1.95913 (Simulation time: 0 hr 3 min 24 sec) 
Heartbeat CPU 0 instructions: 7000001 cycles: 3590722 heartbeat IPC: 1.89342 cumulative IPC: 1.94947 (Simulation time: 0 hr 3 min 57 sec) 
Heartbeat CPU 0 instructions: 8000000 cycles: 4144748 heartbeat IPC: 1.80497 cumulative IPC: 1.93015 (Simulation time: 0 hr 4 min 30 sec) 
Heartbeat CPU 0 instructions: 9000000 cycles: 4672634 heartbeat IPC: 1.89435 cumulative IPC: 1.92611 (Simulation time: 0 hr 5 min 4 sec) 
Heartbeat CPU 0 instructions: 10000002 cycles: 5158923 heartbeat IPC: 2.05639 cumulative IPC: 1.93839 (Simulation time: 0 hr 5 min 38 sec) 
Heartbeat CPU 0 instructions: 11000003 cycles: 5643379 heartbeat IPC: 2.06417 cumulative IPC: 1.94919 (Simulation time: 0 hr 6 min 10 sec) 
Heartbeat CPU 0 instructions: 12000000 cycles: 6129754 heartbeat IPC: 2.05602 cumulative IPC: 1.95766 (Simulation time: 0 hr 6 min 44 sec) 
Heartbeat CPU 0 instructions: 13000001 cycles: 6673156 heartbeat IPC: 1.84026 cumulative IPC: 1.9481 (Simulation time: 0 hr 7 min 18 sec) 
Heartbeat CPU 0 instructions: 14000002 cycles: 7228998 heartbeat IPC: 1.79907 cumulative IPC: 1.93664 (Simulation time: 0 hr 7 min 52 sec) 
Heartbeat CPU 0 instructions: 15000002 cycles: 7738479 heartbeat IPC: 1.96278 cumulative IPC: 1.93837 (Simulation time: 0 hr 8 min 26 sec) 
Heartbeat CPU 0 instructions: 16000000 cycles: 8224652 heartbeat IPC: 2.05688 cumulative IPC: 1.94537 (Simulation time: 0 hr 9 min 0 sec) 
Heartbeat CPU 0 instructions: 17000003 cycles: 8709904 heartbeat IPC: 2.06079 cumulative IPC: 1.9518 (Simulation time: 0 hr 9 min 32 sec) 
Heartbeat CPU 0 instructions: 18000003 cycles: 9197018 heartbeat IPC: 2.05291 cumulative IPC: 1.95716 (Simulation time: 0 hr 10 min 6 sec) 
Heartbeat CPU 0 instructions: 19000003 cycles: 9756258 heartbeat IPC: 1.78814 cumulative IPC: 1.94747 (Simulation time: 0 hr 10 min 41 sec) 
Heartbeat CPU 0 instructions: 20000000 cycles: 10314651 heartbeat IPC: 1.79085 cumulative IPC: 1.93899 (Simulation time: 0 hr 11 min 14 sec) 
Heartbeat CPU 0 instructions: 21000003 cycles: 10806449 heartbeat IPC: 2.03336 cumulative IPC: 1.94328 (Simulation time: 0 hr 11 min 46 sec) 
Heartbeat CPU 0 instructions: 22000002 cycles: 11292587 heartbeat IPC: 2.05703 cumulative IPC: 1.94818 (Simulation time: 0 hr 12 min 19 sec) 
Heartbeat CPU 0 instructions: 23000001 cycles: 11778514 heartbeat IPC: 2.05792 cumulative IPC: 1.95271 (Simulation time: 0 hr 12 min 54 sec) 
Heartbeat CPU 0 instructions: 24000000 cycles: 12282988 heartbeat IPC: 1.98226 cumulative IPC: 1.95392 (Simulation time: 0 hr 13 min 28 sec) 
Heartbeat CPU 0 instructions: 25000000 cycles: 12841465 heartbeat IPC: 1.79058 cumulative IPC: 1.94682 (Simulation time: 0 hr 14 min 2 sec) 
Heartbeat CPU 0 instructions: 26000000 cycles: 13389590 heartbeat IPC: 1.8244 cumulative IPC: 1.94181 (Simulation time: 0 hr 14 min 34 sec) 
Heartbeat CPU 0 instructions: 27000002 cycles: 13876423 heartbeat IPC: 2.0541 cumulative IPC: 1.94575 (Simulation time: 0 hr 15 min 8 sec) 
Heartbeat CPU 0 instructions: 28000000 cycles: 14362453 heartbeat IPC: 2.05748 cumulative IPC: 1.94953 (Simulation time: 0 hr 15 min 41 sec) 
Heartbeat CPU 0 instructions: 29000003 cycles: 14849317 heartbeat IPC: 2.05397 cumulative IPC: 1.95295 (Simulation time: 0 hr 16 min 14 sec) 
Heartbeat CPU 0 instructions: 30000001 cycles: 15371486 heartbeat IPC: 1.91508 cumulative IPC: 1.95167 (Simulation time: 0 hr 16 min 49 sec) 
Heartbeat CPU 0 instructions: 31000000 cycles: 15930986 heartbeat IPC: 1.78731 cumulative IPC: 1.94589 (Simulation time: 0 hr 17 min 23 sec) 
Heartbeat CPU 0 instructions: 32000000 cycles: 16464224 heartbeat IPC: 1.87534 cumulative IPC: 1.94361 (Simulation time: 0 hr 17 min 56 sec) 
Heartbeat CPU 0 instructions: 33000000 cycles: 16950395 heartbeat IPC: 2.05689 cumulative IPC: 1.94686 (Simulation time: 0 hr 18 min 29 sec) 
Heartbeat CPU 0 instructions: 34000000 cycles: 17436971 heartbeat IPC: 2.05518 cumulative IPC: 1.94988 (Simulation time: 0 hr 19 min 4 sec) 
Heartbeat CPU 0 instructions: 35000000 cycles: 17923453 heartbeat IPC: 2.05557 cumulative IPC: 1.95275 (Simulation time: 0 hr 19 min 37 sec) 
Heartbeat CPU 0 instructions: 36000000 cycles: 18462464 heartbeat IPC: 1.85525 cumulative IPC: 1.9499 (Simulation time: 0 hr 20 min 10 sec) 
Heartbeat CPU 0 instructions: 37000003 cycles: 19022909 heartbeat IPC: 1.7843 cumulative IPC: 1.94502 (Simulation time: 0 hr 20 min 44 sec) 
Heartbeat CPU 0 instructions: 38000000 cycles: 19539016 heartbeat IPC: 1.93758 cumulative IPC: 1.94483 (Simulation time: 0 hr 21 min 16 sec) 
Heartbeat CPU 0 instructions: 39000003 cycles: 20025891 heartbeat IPC: 2.05392 cumulative IPC: 1.94748 (Simulation time: 0 hr 21 min 51 sec) 
Heartbeat CPU 0 instructions: 40000000 cycles: 20512486 heartbeat IPC: 2.05509 cumulative IPC: 1.95003 (Simulation time: 0 hr 22 min 26 sec) 
Heartbeat CPU 0 instructions: 41000000 cycles: 20998730 heartbeat IPC: 2.05658 cumulative IPC: 1.9525 (Simulation time: 0 hr 22 min 59 sec) 
Heartbeat CPU 0 instructions: 42000002 cycles: 21555818 heartbeat IPC: 1.79505 cumulative IPC: 1.94843 (Simulation time: 0 hr 23 min 34 sec) 
Heartbeat CPU 0 instructions: 43000002 cycles: 22116846 heartbeat IPC: 1.78244 cumulative IPC: 1.94422 (Simulation time: 0 hr 24 min 8 sec) 
Heartbeat CPU 0 instructions: 44000000 cycles: 22615131 heartbeat IPC: 2.00688 cumulative IPC: 1.9456 (Simulation time: 0 hr 24 min 41 sec) 
Heartbeat CPU 0 instructions: 45000003 cycles: 23101737 heartbeat IPC: 2.05506 cumulative IPC: 1.94791 (Simulation time: 0 hr 25 min 16 sec) 
Heartbeat CPU 0 instructions: 46000001 cycles: 23588149 heartbeat IPC: 2.05587 cumulative IPC: 1.95013 (Simulation time: 0 hr 25 min 51 sec) 
Heartbeat CPU 0 instructions: 47000000 cycles: 24086525 heartbeat IPC: 2.00652 cumulative IPC: 1.9513 (Simulation time: 0 hr 26 min 24 sec) 
Heartbeat CPU 0 instructions: 48000000 cycles: 24649791 heartbeat IPC: 1.77536 cumulative IPC: 1.94728 (Simulation time: 0 hr 26 min 59 sec) 
Heartbeat CPU 0 instructions: 49000002 cycles: 25206048 heartbeat IPC: 1.79773 cumulative IPC: 1.94398 (Simulation time: 0 hr 27 min 30 sec) 
Heartbeat CPU 0 instructions: 50000000 cycles: 25692612 heartbeat IPC: 2.05522 cumulative IPC: 1.94608 (Simulation time: 0 hr 28 min 5 sec) 

Warmup complete CPU 0 instructions: 50000004 cycles: 25692613 (Simulation time: 0 hr 28 min 5 sec) 

Heartbeat CPU 0 instructions: 51000002 cycles: 26376458 heartbeat IPC: 1.46232 cumulative IPC: 1.46232 (Simulation time: 0 hr 28 min 42 sec) 
Heartbeat CPU 0 instructions: 52000000 cycles: 27064170 heartbeat IPC: 1.45409 cumulative IPC: 1.45819 (Simulation time: 0 hr 29 min 19 sec) 
Heartbeat CPU 0 instructions: 53000000 cycles: 27813733 heartbeat IPC: 1.33411 cumulative IPC: 1.41435 (Simulation time: 0 hr 29 min 56 sec) 
Heartbeat CPU 0 instructions: 54000002 cycles: 28625651 heartbeat IPC: 1.23165 cumulative IPC: 1.36377 (Simulation time: 0 hr 30 min 35 sec) 
Heartbeat CPU 0 instructions: 55000001 cycles: 29402714 heartbeat IPC: 1.2869 cumulative IPC: 1.34767 (Simulation time: 0 hr 31 min 11 sec) 
Heartbeat CPU 0 instructions: 56000000 cycles: 30086067 heartbeat IPC: 1.46337 cumulative IPC: 1.36567 (Simulation time: 0 hr 31 min 48 sec) 
Heartbeat CPU 0 instructions: 57000000 cycles: 30769420 heartbeat IPC: 1.46337 cumulative IPC: 1.37882 (Simulation time: 0 hr 32 min 22 sec) 
Heartbeat CPU 0 instructions: 58000000 cycles: 31456397 heartbeat IPC: 1.45565 cumulative IPC: 1.38798 (Simulation time: 0 hr 32 min 57 sec) 
Heartbeat CPU 0 instructions: 59000003 cycles: 32234794 heartbeat IPC: 1.2847 cumulative IPC: 1.37569 (Simulation time: 0 hr 33 min 31 sec) 
Heartbeat CPU 0 instructions: 60000000 cycles: 33047704 heartbeat IPC: 1.23014 cumulative IPC: 1.3596 (Simulation time: 0 hr 34 min 10 sec) 
Heartbeat CPU 0 instructions: 61000000 cycles: 33795154 heartbeat IPC: 1.33788 cumulative IPC: 1.3576 (Simulation time: 0 hr 34 min 47 sec) 
Heartbeat CPU 0 instructions: 62000002 cycles: 34476951 heartbeat IPC: 1.46672 cumulative IPC: 1.36607 (Simulation time: 0 hr 35 min 22 sec) 
Heartbeat CPU 0 instructions: 63000003 cycles: 35163789 heartbeat IPC: 1.45595 cumulative IPC: 1.37259 (Simulation time: 0 hr 35 min 57 sec) 
Heartbeat CPU 0 instructions: 64000000 cycles: 35846674 heartbeat IPC: 1.46437 cumulative IPC: 1.37876 (Simulation time: 0 hr 36 min 34 sec) 
Heartbeat CPU 0 instructions: 65000003 cycles: 36658662 heartbeat IPC: 1.23155 cumulative IPC: 1.36786 (Simulation time: 0 hr 37 min 11 sec) 
Heartbeat CPU 0 instructions: 66000003 cycles: 37471999 heartbeat IPC: 1.2295 cumulative IPC: 1.3583 (Simulation time: 0 hr 37 min 46 sec) 
Heartbeat CPU 0 instructions: 67000002 cycles: 38188127 heartbeat IPC: 1.3964 cumulative IPC: 1.36049 (Simulation time: 0 hr 38 min 21 sec) 
Heartbeat CPU 0 instructions: 68000000 cycles: 38868116 heartbeat IPC: 1.47061 cumulative IPC: 1.36617 (Simulation time: 0 hr 38 min 57 sec) 
Heartbeat CPU 0 instructions: 69000000 cycles: 39550914 heartbeat IPC: 1.46456 cumulative IPC: 1.37102 (Simulation time: 0 hr 39 min 33 sec) 
Heartbeat CPU 0 instructions: 70000001 cycles: 40260749 heartbeat IPC: 1.40878 cumulative IPC: 1.37286 (Simulation time: 0 hr 40 min 10 sec) 
Heartbeat CPU 0 instructions: 71000001 cycles: 41069904 heartbeat IPC: 1.23586 cumulative IPC: 1.36565 (Simulation time: 0 hr 40 min 45 sec) 
Heartbeat CPU 0 instructions: 72000000 cycles: 41881915 heartbeat IPC: 1.23151 cumulative IPC: 1.35892 (Simulation time: 0 hr 41 min 22 sec) 
Heartbeat CPU 0 instructions: 73000003 cycles: 42569256 heartbeat IPC: 1.45489 cumulative IPC: 1.36283 (Simulation time: 0 hr 41 min 57 sec) 
Heartbeat CPU 0 instructions: 74000001 cycles: 43252446 heartbeat IPC: 1.46372 cumulative IPC: 1.36676 (Simulation time: 0 hr 42 min 34 sec) 
Heartbeat CPU 0 instructions: 75000003 cycles: 43935728 heartbeat IPC: 1.46353 cumulative IPC: 1.37038 (Simulation time: 0 hr 43 min 8 sec) 
Heartbeat CPU 0 instructions: 76000000 cycles: 44674136 heartbeat IPC: 1.35426 cumulative IPC: 1.36975 (Simulation time: 0 hr 43 min 43 sec) 
Heartbeat CPU 0 instructions: 77000001 cycles: 45486728 heartbeat IPC: 1.23063 cumulative IPC: 1.36404 (Simulation time: 0 hr 44 min 20 sec) 
Heartbeat CPU 0 instructions: 78000003 cycles: 46271631 heartbeat IPC: 1.27405 cumulative IPC: 1.36061 (Simulation time: 0 hr 44 min 57 sec) 
Heartbeat CPU 0 instructions: 79000001 cycles: 46950734 heartbeat IPC: 1.47253 cumulative IPC: 1.36418 (Simulation time: 0 hr 45 min 32 sec) 
Heartbeat CPU 0 instructions: 80000000 cycles: 47633388 heartbeat IPC: 1.46487 cumulative IPC: 1.36732 (Simulation time: 0 hr 46 min 7 sec) 
Heartbeat CPU 0 instructions: 81000000 cycles: 48317111 heartbeat IPC: 1.46258 cumulative IPC: 1.3702 (Simulation time: 0 hr 46 min 42 sec) 
Heartbeat CPU 0 instructions: 82000002 cycles: 49084025 heartbeat IPC: 1.30393 cumulative IPC: 1.36802 (Simulation time: 0 hr 47 min 18 sec) 
Heartbeat CPU 0 instructions: 83000001 cycles: 49895120 heartbeat IPC: 1.2329 cumulative IPC: 1.36349 (Simulation time: 0 hr 47 min 55 sec) 
Heartbeat CPU 0 instructions: 84000000 cycles: 50649854 heartbeat IPC: 1.32497 cumulative IPC: 1.36233 (Simulation time: 0 hr 48 min 31 sec) 
Heartbeat CPU 0 instructions: 85000001 cycles: 51329803 heartbeat IPC: 1.4707 cumulative IPC: 1.3652 (Simulation time: 0 hr 49 min 5 sec) 
Heartbeat CPU 0 instructions: 86000002 cycles: 52012723 heartbeat IPC: 1.4643 cumulative IPC: 1.36778 (Simulation time: 0 hr 49 min 42 sec) 
Heartbeat CPU 0 instructions: 87000000 cycles: 52696431 heartbeat IPC: 1.46261 cumulative IPC: 1.37018 (Simulation time: 0 hr 50 min 17 sec) 
Heartbeat CPU 0 instructions: 88000000 cycles: 53494760 heartbeat IPC: 1.25262 cumulative IPC: 1.3668 (Simulation time: 0 hr 50 min 54 sec) 
Heartbeat CPU 0 instructions: 89000000 cycles: 54307493 heartbeat IPC: 1.23042 cumulative IPC: 1.36293 (Simulation time: 0 hr 51 min 32 sec) 
Heartbeat CPU 0 instructions: 90000002 cycles: 55034279 heartbeat IPC: 1.37592 cumulative IPC: 1.36325 (Simulation time: 0 hr 52 min 8 sec) 
Heartbeat CPU 0 instructions: 91000002 cycles: 55716277 heartbeat IPC: 1.46628 cumulative IPC: 1.36559 (Simulation time: 0 hr 52 min 43 sec) 
Heartbeat CPU 0 instructions: 92000000 cycles: 56399292 heartbeat IPC: 1.46409 cumulative IPC: 1.36778 (Simulation time: 0 hr 53 min 18 sec) 
Heartbeat CPU 0 instructions: 93000001 cycles: 57082051 heartbeat IPC: 1.46465 cumulative IPC: 1.36989 (Simulation time: 0 hr 53 min 53 sec) 
Heartbeat CPU 0 instructions: 94000000 cycles: 57907634 heartbeat IPC: 1.21126 cumulative IPC: 1.36582 (Simulation time: 0 hr 54 min 30 sec) 
Heartbeat CPU 0 instructions: 95000003 cycles: 58719379 heartbeat IPC: 1.23192 cumulative IPC: 1.36253 (Simulation time: 0 hr 55 min 7 sec) 
Heartbeat CPU 0 instructions: 96000000 cycles: 59416938 heartbeat IPC: 1.43357 cumulative IPC: 1.364 (Simulation time: 0 hr 55 min 45 sec) 
Heartbeat CPU 0 instructions: 97000001 cycles: 60098365 heartbeat IPC: 1.46751 cumulative IPC: 1.36605 (Simulation time: 0 hr 56 min 22 sec) 
Heartbeat CPU 0 instructions: 98000000 cycles: 60784245 heartbeat IPC: 1.45798 cumulative IPC: 1.36785 (Simulation time: 0 hr 56 min 59 sec) 
Heartbeat CPU 0 instructions: 99000001 cycles: 61509612 heartbeat IPC: 1.37861 cumulative IPC: 1.36807 (Simulation time: 0 hr 57 min 36 sec) 
Heartbeat CPU 0 instructions: 100000000 cycles: 62322221 heartbeat IPC: 1.2306 cumulative IPC: 1.36502 (Simulation time: 0 hr 58 min 15 sec) 
Heartbeat CPU 0 instructions: 101000001 cycles: 63124066 heartbeat IPC: 1.24713 cumulative IPC: 1.36249 (Simulation time: 0 hr 58 min 55 sec) 
Heartbeat CPU 0 instructions: 102000003 cycles: 63804042 heartbeat IPC: 1.47064 cumulative IPC: 1.36442 (Simulation time: 0 hr 59 min 31 sec) 
Heartbeat CPU 0 instructions: 103000003 cycles: 64485275 heartbeat IPC: 1.46793 cumulative IPC: 1.36624 (Simulation time: 1 hr 0 min 7 sec) 
Heartbeat CPU 0 instructions: 104000000 cycles: 65164777 heartbeat IPC: 1.47166 cumulative IPC: 1.36805 (Simulation time: 1 hr 0 min 44 sec) 
Heartbeat CPU 0 instructions: 105000001 cycles: 65924324 heartbeat IPC: 1.31658 cumulative IPC: 1.36708 (Simulation time: 1 hr 1 min 21 sec) 
Heartbeat CPU 0 instructions: 106000002 cycles: 66731627 heartbeat IPC: 1.23869 cumulative IPC: 1.36456 (Simulation time: 1 hr 1 min 59 sec) 
Heartbeat CPU 0 instructions: 107000003 cycles: 67501172 heartbeat IPC: 1.29947 cumulative IPC: 1.36336 (Simulation time: 1 hr 2 min 37 sec) 
Heartbeat CPU 0 instructions: 108000000 cycles: 68180471 heartbeat IPC: 1.4721 cumulative IPC: 1.3651 (Simulation time: 1 hr 3 min 10 sec) 
Heartbeat CPU 0 instructions: 109000001 cycles: 68862137 heartbeat IPC: 1.467 cumulative IPC: 1.3667 (Simulation time: 1 hr 3 min 44 sec) 
Heartbeat CPU 0 instructions: 110000000 cycles: 69543959 heartbeat IPC: 1.46666 cumulative IPC: 1.36826 (Simulation time: 1 hr 4 min 19 sec) 
Heartbeat CPU 0 instructions: 111000002 cycles: 70334607 heartbeat IPC: 1.26479 cumulative IPC: 1.36643 (Simulation time: 1 hr 4 min 55 sec) 
Heartbeat CPU 0 instructions: 112000000 cycles: 71147136 heartbeat IPC: 1.23072 cumulative IPC: 1.364 (Simulation time: 1 hr 5 min 26 sec) 
Heartbeat CPU 0 instructions: 113000001 cycles: 71883346 heartbeat IPC: 1.35831 cumulative IPC: 1.36391 (Simulation time: 1 hr 6 min 3 sec) 
Heartbeat CPU 0 instructions: 114000002 cycles: 72564410 heartbeat IPC: 1.46829 cumulative IPC: 1.36543 (Simulation time: 1 hr 6 min 35 sec) 
Heartbeat CPU 0 instructions: 115000003 cycles: 73248095 heartbeat IPC: 1.46266 cumulative IPC: 1.36682 (Simulation time: 1 hr 7 min 8 sec) 
Heartbeat CPU 0 instructions: 116000000 cycles: 73931140 heartbeat IPC: 1.46403 cumulative IPC: 1.3682 (Simulation time: 1 hr 7 min 37 sec) 
Heartbeat CPU 0 instructions: 117000000 cycles: 74746835 heartbeat IPC: 1.22595 cumulative IPC: 1.36584 (Simulation time: 1 hr 8 min 7 sec) 
Heartbeat CPU 0 instructions: 118000002 cycles: 75559643 heartbeat IPC: 1.23031 cumulative IPC: 1.36363 (Simulation time: 1 hr 8 min 39 sec) 
Heartbeat CPU 0 instructions: 119000000 cycles: 76266704 heartbeat IPC: 1.4143 cumulative IPC: 1.36433 (Simulation time: 1 hr 9 min 8 sec) 
Heartbeat CPU 0 instructions: 120000000 cycles: 76947411 heartbeat IPC: 1.46906 cumulative IPC: 1.36573 (Simulation time: 1 hr 9 min 39 sec) 
Heartbeat CPU 0 instructions: 121000000 cycles: 77629649 heartbeat IPC: 1.46576 cumulative IPC: 1.36704 (Simulation time: 1 hr 10 min 9 sec) 
Heartbeat CPU 0 instructions: 122000003 cycles: 78343760 heartbeat IPC: 1.40035 cumulative IPC: 1.36749 (Simulation time: 1 hr 10 min 40 sec) 
Heartbeat CPU 0 instructions: 123000000 cycles: 79156661 heartbeat IPC: 1.23016 cumulative IPC: 1.3654 (Simulation time: 1 hr 11 min 13 sec) 
Heartbeat CPU 0 instructions: 124000000 cycles: 79966076 heartbeat IPC: 1.23546 cumulative IPC: 1.36347 (Simulation time: 1 hr 11 min 42 sec) 
Heartbeat CPU 0 instructions: 125000001 cycles: 80647434 heartbeat IPC: 1.46766 cumulative IPC: 1.36476 (Simulation time: 1 hr 12 min 11 sec) 
Heartbeat CPU 0 instructions: 126000000 cycles: 81329391 heartbeat IPC: 1.46637 cumulative IPC: 1.366 (Simulation time: 1 hr 12 min 42 sec) 
Heartbeat CPU 0 instructions: 127000003 cycles: 82009350 heartbeat IPC: 1.47068 cumulative IPC: 1.36727 (Simulation time: 1 hr 13 min 12 sec) 
Heartbeat CPU 0 instructions: 128000000 cycles: 82750916 heartbeat IPC: 1.34849 cumulative IPC: 1.36702 (Simulation time: 1 hr 13 min 44 sec) 
Heartbeat CPU 0 instructions: 129000002 cycles: 83564087 heartbeat IPC: 1.22976 cumulative IPC: 1.36509 (Simulation time: 1 hr 14 min 15 sec) 
Heartbeat CPU 0 instructions: 130000002 cycles: 84345045 heartbeat IPC: 1.28048 cumulative IPC: 1.36397 (Simulation time: 1 hr 14 min 44 sec) 
Heartbeat CPU 0 instructions: 131000003 cycles: 85026815 heartbeat IPC: 1.46677 cumulative IPC: 1.36515 (Simulation time: 1 hr 15 min 14 sec) 
Heartbeat CPU 0 instructions: 132000000 cycles: 85711991 heartbeat IPC: 1.45947 cumulative IPC: 1.36623 (Simulation time: 1 hr 15 min 44 sec) 
Heartbeat CPU 0 instructions: 133000003 cycles: 86395295 heartbeat IPC: 1.46348 cumulative IPC: 1.36732 (Simulation time: 1 hr 16 min 12 sec) 
Heartbeat CPU 0 instructions: 134000001 cycles: 87170165 heartbeat IPC: 1.29054 cumulative IPC: 1.36635 (Simulation time: 1 hr 16 min 40 sec) 
Heartbeat CPU 0 instructions: 135000001 cycles: 87982161 heartbeat IPC: 1.23153 cumulative IPC: 1.36459 (Simulation time: 1 hr 17 min 8 sec) 
Heartbeat CPU 0 instructions: 136000000 cycles: 88734044 heartbeat IPC: 1.32999 cumulative IPC: 1.36418 (Simulation time: 1 hr 17 min 33 sec) 
Heartbeat CPU 0 instructions: 137000003 cycles: 89416912 heartbeat IPC: 1.46442 cumulative IPC: 1.36526 (Simulation time: 1 hr 17 min 59 sec) 
Heartbeat CPU 0 instructions: 138000000 cycles: 90102801 heartbeat IPC: 1.45796 cumulative IPC: 1.36624 (Simulation time: 1 hr 18 min 24 sec) 
Heartbeat CPU 0 instructions: 139000002 cycles: 90791436 heartbeat IPC: 1.45215 cumulative IPC: 1.36715 (Simulation time: 1 hr 18 min 53 sec) 
Heartbeat CPU 0 instructions: 140000000 cycles: 91594754 heartbeat IPC: 1.24483 cumulative IPC: 1.36566 (Simulation time: 1 hr 19 min 23 sec) 
Heartbeat CPU 0 instructions: 141000003 cycles: 92402309 heartbeat IPC: 1.23831 cumulative IPC: 1.36412 (Simulation time: 1 hr 19 min 50 sec) 
Heartbeat CPU 0 instructions: 142000000 cycles: 93126526 heartbeat IPC: 1.3808 cumulative IPC: 1.3643 (Simulation time: 1 hr 20 min 17 sec) 
Heartbeat CPU 0 instructions: 143000001 cycles: 93810908 heartbeat IPC: 1.46117 cumulative IPC: 1.36527 (Simulation time: 1 hr 20 min 43 sec) 
Heartbeat CPU 0 instructions: 144000000 cycles: 94494683 heartbeat IPC: 1.46247 cumulative IPC: 1.36624 (Simulation time: 1 hr 21 min 11 sec) 
Heartbeat CPU 0 instructions: 145000001 cycles: 95203783 heartbeat IPC: 1.41024 cumulative IPC: 1.36669 (Simulation time: 1 hr 21 min 39 sec) 
Heartbeat CPU 0 instructions: 146000003 cycles: 96015252 heartbeat IPC: 1.23234 cumulative IPC: 1.36514 (Simulation time: 1 hr 22 min 5 sec) 
Heartbeat CPU 0 instructions: 147000001 cycles: 96826617 heartbeat IPC: 1.23249 cumulative IPC: 1.36362 (Simulation time: 1 hr 22 min 32 sec) 
Heartbeat CPU 0 instructions: 148000000 cycles: 97518220 heartbeat IPC: 1.44591 cumulative IPC: 1.36442 (Simulation time: 1 hr 22 min 56 sec) 
Heartbeat CPU 0 instructions: 149000002 cycles: 98202256 heartbeat IPC: 1.46191 cumulative IPC: 1.36534 (Simulation time: 1 hr 23 min 22 sec) 
Heartbeat CPU 0 instructions: 150000002 cycles: 98886704 heartbeat IPC: 1.46103 cumulative IPC: 1.36623 (Simulation time: 1 hr 23 min 45 sec) 
Finished CPU 0 instructions: 100000002 cycles: 73194092 cummulative IPC: 1.36623 (Simulation time: 1 hr 23 min 45 sec) 

ChampSim completed all CPUs

Region of Interest Statistics

CPU 0 cummulative IPC: 1.36623 instructions: 100000002 cycles: 73194092
LLC TOTAL     ACCESS:     631203  HIT:     301954  MISS:     329249
LLC LOAD      ACCESS:      36732  HIT:      25222  MISS:      11510
LLC RFO       ACCESS:     152049  HIT:      75845  MISS:      76204
LLC PREFETCH  ACCESS:     286727  HIT:      98821  MISS:     187906
LLC WRITEBACK ACCESS:     155695  HIT:     102066  MISS:      53629
OPTgen accesses: 4423
OPTgen hits: 3147
OPTgen hit rate: 71.1508


