
*** ChampSim Multicore Out-of-Order Simulator ***

Warmup Instructions: 50000000
Simulation Instructions: 100000000
Configuration: 2
Number of CPUs: 1
LLC sets: 2048
LLC ways: 16
Off-chip DRAM Channels: 1 Width: 64-bit Data Rate: 1600 MT/s

CPU 0 runs /datasets/cs240c-wi22-a00-public/data/Assignment2-gz/zeusmp_100B.trace.gz
CPU 0 L1D next line prefetcher
CPU 0 L2C IP-based stride prefetcher
Initialize Hawkeye state
Heartbeat CPU 0 instructions: 1000002 cycles: 462679 heartbeat IPC: 2.16133 cumulative IPC: 2.16133 (Simulation time: 0 hr 0 min 35 sec) 
Heartbeat CPU 0 instructions: 2000001 cycles: 925469 heartbeat IPC: 2.16081 cumulative IPC: 2.16107 (Simulation time: 0 hr 1 min 8 sec) 
Heartbeat CPU 0 instructions: 3000003 cycles: 1388509 heartbeat IPC: 2.15964 cumulative IPC: 2.16059 (Simulation time: 0 hr 1 min 40 sec) 
Heartbeat CPU 0 instructions: 4000000 cycles: 1851236 heartbeat IPC: 2.16109 cumulative IPC: 2.16072 (Simulation time: 0 hr 2 min 12 sec) 
Heartbeat CPU 0 instructions: 5000003 cycles: 2314175 heartbeat IPC: 2.16012 cumulative IPC: 2.1606 (Simulation time: 0 hr 2 min 45 sec) 
Heartbeat CPU 0 instructions: 6000001 cycles: 2777030 heartbeat IPC: 2.1605 cumulative IPC: 2.16058 (Simulation time: 0 hr 3 min 18 sec) 
Heartbeat CPU 0 instructions: 7000001 cycles: 3239713 heartbeat IPC: 2.16131 cumulative IPC: 2.16069 (Simulation time: 0 hr 3 min 53 sec) 
Heartbeat CPU 0 instructions: 8000000 cycles: 3702585 heartbeat IPC: 2.16042 cumulative IPC: 2.16065 (Simulation time: 0 hr 4 min 27 sec) 
Heartbeat CPU 0 instructions: 9000003 cycles: 4165366 heartbeat IPC: 2.16086 cumulative IPC: 2.16068 (Simulation time: 0 hr 4 min 59 sec) 
Heartbeat CPU 0 instructions: 10000001 cycles: 4628690 heartbeat IPC: 2.15831 cumulative IPC: 2.16044 (Simulation time: 0 hr 5 min 31 sec) 
Heartbeat CPU 0 instructions: 11000000 cycles: 5092318 heartbeat IPC: 2.1569 cumulative IPC: 2.16012 (Simulation time: 0 hr 6 min 5 sec) 
Heartbeat CPU 0 instructions: 12000000 cycles: 5556006 heartbeat IPC: 2.15662 cumulative IPC: 2.15982 (Simulation time: 0 hr 6 min 38 sec) 
Heartbeat CPU 0 instructions: 13000001 cycles: 6019115 heartbeat IPC: 2.15932 cumulative IPC: 2.15979 (Simulation time: 0 hr 7 min 13 sec) 
Heartbeat CPU 0 instructions: 14000002 cycles: 6481909 heartbeat IPC: 2.16079 cumulative IPC: 2.15986 (Simulation time: 0 hr 7 min 46 sec) 
Heartbeat CPU 0 instructions: 15000002 cycles: 6944861 heartbeat IPC: 2.16005 cumulative IPC: 2.15987 (Simulation time: 0 hr 8 min 19 sec) 
Heartbeat CPU 0 instructions: 16000000 cycles: 7407533 heartbeat IPC: 2.16135 cumulative IPC: 2.15996 (Simulation time: 0 hr 8 min 51 sec) 
Heartbeat CPU 0 instructions: 17000000 cycles: 7838195 heartbeat IPC: 2.32201 cumulative IPC: 2.16887 (Simulation time: 0 hr 9 min 22 sec) 
Heartbeat CPU 0 instructions: 18000001 cycles: 8265863 heartbeat IPC: 2.33826 cumulative IPC: 2.17763 (Simulation time: 0 hr 9 min 55 sec) 
Heartbeat CPU 0 instructions: 19000002 cycles: 8693057 heartbeat IPC: 2.34086 cumulative IPC: 2.18565 (Simulation time: 0 hr 10 min 27 sec) 
Heartbeat CPU 0 instructions: 20000000 cycles: 9120470 heartbeat IPC: 2.33965 cumulative IPC: 2.19287 (Simulation time: 0 hr 11 min 1 sec) 
Heartbeat CPU 0 instructions: 21000001 cycles: 9547749 heartbeat IPC: 2.34039 cumulative IPC: 2.19947 (Simulation time: 0 hr 11 min 32 sec) 
Heartbeat CPU 0 instructions: 22000001 cycles: 9975177 heartbeat IPC: 2.33958 cumulative IPC: 2.20547 (Simulation time: 0 hr 12 min 3 sec) 
Heartbeat CPU 0 instructions: 23000000 cycles: 10403228 heartbeat IPC: 2.33617 cumulative IPC: 2.21085 (Simulation time: 0 hr 12 min 35 sec) 
Heartbeat CPU 0 instructions: 24000000 cycles: 10830541 heartbeat IPC: 2.3402 cumulative IPC: 2.21596 (Simulation time: 0 hr 13 min 8 sec) 
Heartbeat CPU 0 instructions: 25000002 cycles: 11257785 heartbeat IPC: 2.34059 cumulative IPC: 2.22069 (Simulation time: 0 hr 13 min 40 sec) 
Heartbeat CPU 0 instructions: 26000001 cycles: 11685229 heartbeat IPC: 2.33949 cumulative IPC: 2.22503 (Simulation time: 0 hr 14 min 13 sec) 
Heartbeat CPU 0 instructions: 27000003 cycles: 12113054 heartbeat IPC: 2.33741 cumulative IPC: 2.229 (Simulation time: 0 hr 14 min 44 sec) 
Heartbeat CPU 0 instructions: 28000000 cycles: 12540556 heartbeat IPC: 2.33916 cumulative IPC: 2.23276 (Simulation time: 0 hr 15 min 17 sec) 
Heartbeat CPU 0 instructions: 29000002 cycles: 12967724 heartbeat IPC: 2.341 cumulative IPC: 2.23632 (Simulation time: 0 hr 15 min 48 sec) 
Heartbeat CPU 0 instructions: 30000003 cycles: 13395163 heartbeat IPC: 2.33952 cumulative IPC: 2.23961 (Simulation time: 0 hr 16 min 20 sec) 
Heartbeat CPU 0 instructions: 31000001 cycles: 13822845 heartbeat IPC: 2.33818 cumulative IPC: 2.24266 (Simulation time: 0 hr 16 min 52 sec) 
Heartbeat CPU 0 instructions: 32000000 cycles: 14250547 heartbeat IPC: 2.33807 cumulative IPC: 2.24553 (Simulation time: 0 hr 17 min 24 sec) 
Heartbeat CPU 0 instructions: 33000002 cycles: 14677539 heartbeat IPC: 2.34197 cumulative IPC: 2.24833 (Simulation time: 0 hr 17 min 55 sec) 
Heartbeat CPU 0 instructions: 34000001 cycles: 15104725 heartbeat IPC: 2.3409 cumulative IPC: 2.25095 (Simulation time: 0 hr 18 min 30 sec) 
Heartbeat CPU 0 instructions: 35000003 cycles: 15532160 heartbeat IPC: 2.33954 cumulative IPC: 2.25339 (Simulation time: 0 hr 19 min 5 sec) 
Heartbeat CPU 0 instructions: 36000000 cycles: 15959785 heartbeat IPC: 2.33849 cumulative IPC: 2.25567 (Simulation time: 0 hr 19 min 36 sec) 
Heartbeat CPU 0 instructions: 37000001 cycles: 16387228 heartbeat IPC: 2.3395 cumulative IPC: 2.25786 (Simulation time: 0 hr 20 min 9 sec) 
Heartbeat CPU 0 instructions: 38000003 cycles: 16814704 heartbeat IPC: 2.33932 cumulative IPC: 2.25993 (Simulation time: 0 hr 20 min 41 sec) 
Heartbeat CPU 0 instructions: 39000000 cycles: 17242300 heartbeat IPC: 2.33865 cumulative IPC: 2.26188 (Simulation time: 0 hr 21 min 13 sec) 
Heartbeat CPU 0 instructions: 40000000 cycles: 17669636 heartbeat IPC: 2.34008 cumulative IPC: 2.26377 (Simulation time: 0 hr 21 min 45 sec) 
Heartbeat CPU 0 instructions: 41000003 cycles: 18097552 heartbeat IPC: 2.33691 cumulative IPC: 2.2655 (Simulation time: 0 hr 22 min 19 sec) 
Heartbeat CPU 0 instructions: 42000000 cycles: 18524656 heartbeat IPC: 2.34134 cumulative IPC: 2.26725 (Simulation time: 0 hr 22 min 51 sec) 
Heartbeat CPU 0 instructions: 43000003 cycles: 18952074 heartbeat IPC: 2.33964 cumulative IPC: 2.26888 (Simulation time: 0 hr 23 min 25 sec) 
Heartbeat CPU 0 instructions: 44000000 cycles: 19379528 heartbeat IPC: 2.33943 cumulative IPC: 2.27044 (Simulation time: 0 hr 23 min 57 sec) 
Heartbeat CPU 0 instructions: 45000001 cycles: 19807132 heartbeat IPC: 2.33861 cumulative IPC: 2.27191 (Simulation time: 0 hr 24 min 29 sec) 
Heartbeat CPU 0 instructions: 46000000 cycles: 20234731 heartbeat IPC: 2.33864 cumulative IPC: 2.27332 (Simulation time: 0 hr 25 min 0 sec) 
Heartbeat CPU 0 instructions: 47000003 cycles: 20661977 heartbeat IPC: 2.34058 cumulative IPC: 2.27471 (Simulation time: 0 hr 25 min 31 sec) 
Heartbeat CPU 0 instructions: 48000000 cycles: 21089428 heartbeat IPC: 2.33944 cumulative IPC: 2.27602 (Simulation time: 0 hr 26 min 3 sec) 
Heartbeat CPU 0 instructions: 49000001 cycles: 21516517 heartbeat IPC: 2.34143 cumulative IPC: 2.27732 (Simulation time: 0 hr 26 min 36 sec) 
Heartbeat CPU 0 instructions: 50000000 cycles: 21944541 heartbeat IPC: 2.33632 cumulative IPC: 2.27847 (Simulation time: 0 hr 27 min 6 sec) 

Warmup complete CPU 0 instructions: 50000003 cycles: 21944542 (Simulation time: 0 hr 27 min 6 sec) 

Heartbeat CPU 0 instructions: 51000002 cycles: 22636857 heartbeat IPC: 1.44443 cumulative IPC: 1.44443 (Simulation time: 0 hr 27 min 43 sec) 
Heartbeat CPU 0 instructions: 52000000 cycles: 23318425 heartbeat IPC: 1.4672 cumulative IPC: 1.45573 (Simulation time: 0 hr 28 min 21 sec) 
Heartbeat CPU 0 instructions: 53000001 cycles: 24011024 heartbeat IPC: 1.44384 cumulative IPC: 1.45174 (Simulation time: 0 hr 28 min 58 sec) 
Heartbeat CPU 0 instructions: 54000003 cycles: 24693862 heartbeat IPC: 1.46448 cumulative IPC: 1.45491 (Simulation time: 0 hr 29 min 37 sec) 
Heartbeat CPU 0 instructions: 55000003 cycles: 25381028 heartbeat IPC: 1.45525 cumulative IPC: 1.45497 (Simulation time: 0 hr 30 min 14 sec) 
Heartbeat CPU 0 instructions: 56000000 cycles: 26069859 heartbeat IPC: 1.45173 cumulative IPC: 1.45443 (Simulation time: 0 hr 30 min 53 sec) 
Heartbeat CPU 0 instructions: 57000003 cycles: 26750212 heartbeat IPC: 1.46983 cumulative IPC: 1.45661 (Simulation time: 0 hr 31 min 31 sec) 
Heartbeat CPU 0 instructions: 58000003 cycles: 27442411 heartbeat IPC: 1.44467 cumulative IPC: 1.45511 (Simulation time: 0 hr 32 min 5 sec) 
Heartbeat CPU 0 instructions: 59000000 cycles: 28127372 heartbeat IPC: 1.45993 cumulative IPC: 1.45564 (Simulation time: 0 hr 32 min 39 sec) 
Heartbeat CPU 0 instructions: 60000000 cycles: 28824238 heartbeat IPC: 1.435 cumulative IPC: 1.45355 (Simulation time: 0 hr 33 min 14 sec) 
Heartbeat CPU 0 instructions: 61000000 cycles: 29506623 heartbeat IPC: 1.46545 cumulative IPC: 1.45463 (Simulation time: 0 hr 33 min 50 sec) 
Heartbeat CPU 0 instructions: 62000001 cycles: 30203775 heartbeat IPC: 1.43441 cumulative IPC: 1.45292 (Simulation time: 0 hr 34 min 28 sec) 
Heartbeat CPU 0 instructions: 63000001 cycles: 30889926 heartbeat IPC: 1.45741 cumulative IPC: 1.45326 (Simulation time: 0 hr 35 min 3 sec) 
Heartbeat CPU 0 instructions: 64000000 cycles: 31587695 heartbeat IPC: 1.43314 cumulative IPC: 1.45181 (Simulation time: 0 hr 35 min 41 sec) 
Heartbeat CPU 0 instructions: 65000003 cycles: 32268329 heartbeat IPC: 1.46922 cumulative IPC: 1.45296 (Simulation time: 0 hr 36 min 19 sec) 
Heartbeat CPU 0 instructions: 66000003 cycles: 32961750 heartbeat IPC: 1.44213 cumulative IPC: 1.45227 (Simulation time: 0 hr 36 min 58 sec) 
Heartbeat CPU 0 instructions: 67000000 cycles: 33644234 heartbeat IPC: 1.46523 cumulative IPC: 1.45303 (Simulation time: 0 hr 37 min 34 sec) 
Heartbeat CPU 0 instructions: 68000000 cycles: 34333169 heartbeat IPC: 1.45152 cumulative IPC: 1.45295 (Simulation time: 0 hr 38 min 10 sec) 
Heartbeat CPU 0 instructions: 69000000 cycles: 35017855 heartbeat IPC: 1.46052 cumulative IPC: 1.45334 (Simulation time: 0 hr 38 min 48 sec) 
Heartbeat CPU 0 instructions: 70000003 cycles: 35696635 heartbeat IPC: 1.47324 cumulative IPC: 1.45432 (Simulation time: 0 hr 39 min 27 sec) 
Heartbeat CPU 0 instructions: 71000003 cycles: 36390131 heartbeat IPC: 1.44197 cumulative IPC: 1.45373 (Simulation time: 0 hr 40 min 3 sec) 
Heartbeat CPU 0 instructions: 72000000 cycles: 37071151 heartbeat IPC: 1.46838 cumulative IPC: 1.45439 (Simulation time: 0 hr 40 min 38 sec) 
Heartbeat CPU 0 instructions: 73000002 cycles: 37766492 heartbeat IPC: 1.43815 cumulative IPC: 1.45368 (Simulation time: 0 hr 41 min 14 sec) 
Heartbeat CPU 0 instructions: 74000003 cycles: 38445928 heartbeat IPC: 1.47181 cumulative IPC: 1.45442 (Simulation time: 0 hr 41 min 51 sec) 
Heartbeat CPU 0 instructions: 75000003 cycles: 39137035 heartbeat IPC: 1.44695 cumulative IPC: 1.45412 (Simulation time: 0 hr 42 min 28 sec) 
Heartbeat CPU 0 instructions: 76000000 cycles: 39818608 heartbeat IPC: 1.46719 cumulative IPC: 1.45462 (Simulation time: 0 hr 43 min 5 sec) 
Heartbeat CPU 0 instructions: 77000002 cycles: 40517928 heartbeat IPC: 1.42996 cumulative IPC: 1.45369 (Simulation time: 0 hr 43 min 42 sec) 
Heartbeat CPU 0 instructions: 78000002 cycles: 41202962 heartbeat IPC: 1.45978 cumulative IPC: 1.45391 (Simulation time: 0 hr 44 min 20 sec) 
Heartbeat CPU 0 instructions: 79000000 cycles: 41895061 heartbeat IPC: 1.44488 cumulative IPC: 1.4536 (Simulation time: 0 hr 44 min 57 sec) 
Heartbeat CPU 0 instructions: 80000000 cycles: 42575021 heartbeat IPC: 1.47067 cumulative IPC: 1.45416 (Simulation time: 0 hr 45 min 34 sec) 
Heartbeat CPU 0 instructions: 81000003 cycles: 43271225 heartbeat IPC: 1.43636 cumulative IPC: 1.45358 (Simulation time: 0 hr 46 min 11 sec) 
Heartbeat CPU 0 instructions: 82000000 cycles: 43956777 heartbeat IPC: 1.45867 cumulative IPC: 1.45374 (Simulation time: 0 hr 46 min 47 sec) 
Heartbeat CPU 0 instructions: 83000002 cycles: 44637586 heartbeat IPC: 1.46884 cumulative IPC: 1.45419 (Simulation time: 0 hr 47 min 23 sec) 
Heartbeat CPU 0 instructions: 84000000 cycles: 45332453 heartbeat IPC: 1.43912 cumulative IPC: 1.45374 (Simulation time: 0 hr 48 min 1 sec) 
Heartbeat CPU 0 instructions: 85000001 cycles: 46012644 heartbeat IPC: 1.47018 cumulative IPC: 1.45421 (Simulation time: 0 hr 48 min 38 sec) 
Heartbeat CPU 0 instructions: 86000001 cycles: 46709673 heartbeat IPC: 1.43466 cumulative IPC: 1.45366 (Simulation time: 0 hr 49 min 15 sec) 
Heartbeat CPU 0 instructions: 87000001 cycles: 47393835 heartbeat IPC: 1.46164 cumulative IPC: 1.45387 (Simulation time: 0 hr 49 min 52 sec) 
Heartbeat CPU 0 instructions: 88000000 cycles: 48085202 heartbeat IPC: 1.44641 cumulative IPC: 1.45367 (Simulation time: 0 hr 50 min 30 sec) 
Heartbeat CPU 0 instructions: 89000003 cycles: 48768028 heartbeat IPC: 1.46451 cumulative IPC: 1.45395 (Simulation time: 0 hr 51 min 6 sec) 
Heartbeat CPU 0 instructions: 90000001 cycles: 49462350 heartbeat IPC: 1.44025 cumulative IPC: 1.4536 (Simulation time: 0 hr 51 min 44 sec) 
Heartbeat CPU 0 instructions: 91000003 cycles: 50150093 heartbeat IPC: 1.45403 cumulative IPC: 1.45361 (Simulation time: 0 hr 52 min 20 sec) 
Heartbeat CPU 0 instructions: 92000000 cycles: 50844139 heartbeat IPC: 1.44082 cumulative IPC: 1.45331 (Simulation time: 0 hr 52 min 57 sec) 
Heartbeat CPU 0 instructions: 93000001 cycles: 51524995 heartbeat IPC: 1.46874 cumulative IPC: 1.45366 (Simulation time: 0 hr 53 min 34 sec) 
Heartbeat CPU 0 instructions: 94000003 cycles: 52220549 heartbeat IPC: 1.43771 cumulative IPC: 1.4533 (Simulation time: 0 hr 54 min 11 sec) 
Heartbeat CPU 0 instructions: 95000003 cycles: 52906481 heartbeat IPC: 1.45787 cumulative IPC: 1.4534 (Simulation time: 0 hr 54 min 48 sec) 
Heartbeat CPU 0 instructions: 96000000 cycles: 53597887 heartbeat IPC: 1.44632 cumulative IPC: 1.45324 (Simulation time: 0 hr 55 min 25 sec) 
Heartbeat CPU 0 instructions: 97000000 cycles: 54288140 heartbeat IPC: 1.44874 cumulative IPC: 1.45315 (Simulation time: 0 hr 56 min 3 sec) 
Heartbeat CPU 0 instructions: 98000001 cycles: 54966008 heartbeat IPC: 1.47521 cumulative IPC: 1.4536 (Simulation time: 0 hr 56 min 41 sec) 
Heartbeat CPU 0 instructions: 99000001 cycles: 55670486 heartbeat IPC: 1.41949 cumulative IPC: 1.45289 (Simulation time: 0 hr 57 min 19 sec) 
Heartbeat CPU 0 instructions: 100000000 cycles: 56365506 heartbeat IPC: 1.43881 cumulative IPC: 1.4526 (Simulation time: 0 hr 57 min 58 sec) 
Heartbeat CPU 0 instructions: 101000002 cycles: 57069073 heartbeat IPC: 1.42133 cumulative IPC: 1.45198 (Simulation time: 0 hr 58 min 35 sec) 
Heartbeat CPU 0 instructions: 102000003 cycles: 57758283 heartbeat IPC: 1.45094 cumulative IPC: 1.45196 (Simulation time: 0 hr 59 min 12 sec) 
Heartbeat CPU 0 instructions: 103000001 cycles: 58463338 heartbeat IPC: 1.41833 cumulative IPC: 1.45131 (Simulation time: 0 hr 59 min 47 sec) 
Heartbeat CPU 0 instructions: 104000000 cycles: 59155893 heartbeat IPC: 1.44393 cumulative IPC: 1.45117 (Simulation time: 1 hr 0 min 25 sec) 
Heartbeat CPU 0 instructions: 105000003 cycles: 59860204 heartbeat IPC: 1.41983 cumulative IPC: 1.45059 (Simulation time: 1 hr 1 min 3 sec) 
Heartbeat CPU 0 instructions: 106000002 cycles: 60550209 heartbeat IPC: 1.44926 cumulative IPC: 1.45056 (Simulation time: 1 hr 1 min 39 sec) 
Heartbeat CPU 0 instructions: 107000000 cycles: 61251307 heartbeat IPC: 1.42633 cumulative IPC: 1.45013 (Simulation time: 1 hr 2 min 15 sec) 
Heartbeat CPU 0 instructions: 108000000 cycles: 61935430 heartbeat IPC: 1.46173 cumulative IPC: 1.45033 (Simulation time: 1 hr 2 min 49 sec) 
Heartbeat CPU 0 instructions: 109000002 cycles: 62618588 heartbeat IPC: 1.46379 cumulative IPC: 1.45056 (Simulation time: 1 hr 3 min 20 sec) 
Heartbeat CPU 0 instructions: 110000000 cycles: 63312368 heartbeat IPC: 1.44138 cumulative IPC: 1.4504 (Simulation time: 1 hr 3 min 57 sec) 
Heartbeat CPU 0 instructions: 111000002 cycles: 63994248 heartbeat IPC: 1.46654 cumulative IPC: 1.45066 (Simulation time: 1 hr 4 min 30 sec) 
Heartbeat CPU 0 instructions: 112000000 cycles: 64684502 heartbeat IPC: 1.44874 cumulative IPC: 1.45063 (Simulation time: 1 hr 5 min 3 sec) 
Heartbeat CPU 0 instructions: 113000001 cycles: 65364983 heartbeat IPC: 1.46955 cumulative IPC: 1.45093 (Simulation time: 1 hr 5 min 37 sec) 
Heartbeat CPU 0 instructions: 114000000 cycles: 66064816 heartbeat IPC: 1.42891 cumulative IPC: 1.45058 (Simulation time: 1 hr 6 min 14 sec) 
Heartbeat CPU 0 instructions: 115000000 cycles: 66752700 heartbeat IPC: 1.45373 cumulative IPC: 1.45063 (Simulation time: 1 hr 6 min 44 sec) 
Heartbeat CPU 0 instructions: 116000000 cycles: 67444046 heartbeat IPC: 1.44645 cumulative IPC: 1.45057 (Simulation time: 1 hr 7 min 13 sec) 
Heartbeat CPU 0 instructions: 117000003 cycles: 68126022 heartbeat IPC: 1.46633 cumulative IPC: 1.4508 (Simulation time: 1 hr 7 min 45 sec) 
Heartbeat CPU 0 instructions: 118000001 cycles: 68823137 heartbeat IPC: 1.43448 cumulative IPC: 1.45056 (Simulation time: 1 hr 8 min 19 sec) 
Heartbeat CPU 0 instructions: 119000003 cycles: 69505894 heartbeat IPC: 1.46465 cumulative IPC: 1.45076 (Simulation time: 1 hr 8 min 48 sec) 
Heartbeat CPU 0 instructions: 120000000 cycles: 70196916 heartbeat IPC: 1.44713 cumulative IPC: 1.45071 (Simulation time: 1 hr 9 min 17 sec) 
Heartbeat CPU 0 instructions: 121000000 cycles: 70877590 heartbeat IPC: 1.46913 cumulative IPC: 1.45096 (Simulation time: 1 hr 9 min 45 sec) 
Heartbeat CPU 0 instructions: 122000001 cycles: 71563625 heartbeat IPC: 1.45765 cumulative IPC: 1.45105 (Simulation time: 1 hr 10 min 15 sec) 
Heartbeat CPU 0 instructions: 123000001 cycles: 72252965 heartbeat IPC: 1.45066 cumulative IPC: 1.45105 (Simulation time: 1 hr 10 min 47 sec) 
Heartbeat CPU 0 instructions: 124000000 cycles: 72931634 heartbeat IPC: 1.47347 cumulative IPC: 1.45135 (Simulation time: 1 hr 11 min 14 sec) 
Heartbeat CPU 0 instructions: 125000002 cycles: 73622910 heartbeat IPC: 1.4466 cumulative IPC: 1.45128 (Simulation time: 1 hr 11 min 46 sec) 
Heartbeat CPU 0 instructions: 126000001 cycles: 74304588 heartbeat IPC: 1.46697 cumulative IPC: 1.45149 (Simulation time: 1 hr 12 min 24 sec) 
Heartbeat CPU 0 instructions: 127000002 cycles: 74994128 heartbeat IPC: 1.45024 cumulative IPC: 1.45147 (Simulation time: 1 hr 12 min 56 sec) 
Heartbeat CPU 0 instructions: 128000000 cycles: 75673034 heartbeat IPC: 1.47295 cumulative IPC: 1.45174 (Simulation time: 1 hr 13 min 26 sec) 
Heartbeat CPU 0 instructions: 129000001 cycles: 76366009 heartbeat IPC: 1.44305 cumulative IPC: 1.45163 (Simulation time: 1 hr 13 min 58 sec) 
Heartbeat CPU 0 instructions: 130000002 cycles: 77046377 heartbeat IPC: 1.46979 cumulative IPC: 1.45186 (Simulation time: 1 hr 14 min 27 sec) 
Heartbeat CPU 0 instructions: 131000000 cycles: 77740018 heartbeat IPC: 1.44167 cumulative IPC: 1.45173 (Simulation time: 1 hr 14 min 56 sec) 
Heartbeat CPU 0 instructions: 132000000 cycles: 78420593 heartbeat IPC: 1.46935 cumulative IPC: 1.45194 (Simulation time: 1 hr 15 min 25 sec) 
Heartbeat CPU 0 instructions: 133000001 cycles: 79113438 heartbeat IPC: 1.44333 cumulative IPC: 1.45184 (Simulation time: 1 hr 15 min 51 sec) 
Heartbeat CPU 0 instructions: 134000000 cycles: 79794945 heartbeat IPC: 1.46733 cumulative IPC: 1.45202 (Simulation time: 1 hr 16 min 16 sec) 
Heartbeat CPU 0 instructions: 135000001 cycles: 80484494 heartbeat IPC: 1.45022 cumulative IPC: 1.452 (Simulation time: 1 hr 16 min 44 sec) 
Heartbeat CPU 0 instructions: 136000000 cycles: 81167526 heartbeat IPC: 1.46406 cumulative IPC: 1.45214 (Simulation time: 1 hr 17 min 10 sec) 
Heartbeat CPU 0 instructions: 137000001 cycles: 81848814 heartbeat IPC: 1.46781 cumulative IPC: 1.45232 (Simulation time: 1 hr 17 min 36 sec) 
Heartbeat CPU 0 instructions: 138000002 cycles: 82542152 heartbeat IPC: 1.4423 cumulative IPC: 1.4522 (Simulation time: 1 hr 18 min 1 sec) 
Heartbeat CPU 0 instructions: 139000001 cycles: 83223860 heartbeat IPC: 1.4669 cumulative IPC: 1.45237 (Simulation time: 1 hr 18 min 28 sec) 
Heartbeat CPU 0 instructions: 140000000 cycles: 83922152 heartbeat IPC: 1.43206 cumulative IPC: 1.45214 (Simulation time: 1 hr 18 min 55 sec) 
Heartbeat CPU 0 instructions: 141000001 cycles: 84602816 heartbeat IPC: 1.46916 cumulative IPC: 1.45232 (Simulation time: 1 hr 19 min 22 sec) 
Heartbeat CPU 0 instructions: 142000001 cycles: 85296142 heartbeat IPC: 1.44232 cumulative IPC: 1.45221 (Simulation time: 1 hr 19 min 49 sec) 
Heartbeat CPU 0 instructions: 143000000 cycles: 85978638 heartbeat IPC: 1.46521 cumulative IPC: 1.45235 (Simulation time: 1 hr 20 min 18 sec) 
Heartbeat CPU 0 instructions: 144000000 cycles: 86670716 heartbeat IPC: 1.44492 cumulative IPC: 1.45227 (Simulation time: 1 hr 20 min 43 sec) 
Heartbeat CPU 0 instructions: 145000001 cycles: 87350957 heartbeat IPC: 1.47007 cumulative IPC: 1.45246 (Simulation time: 1 hr 21 min 12 sec) 
Heartbeat CPU 0 instructions: 146000003 cycles: 88046964 heartbeat IPC: 1.43677 cumulative IPC: 1.45229 (Simulation time: 1 hr 21 min 41 sec) 
Heartbeat CPU 0 instructions: 147000002 cycles: 88730994 heartbeat IPC: 1.46192 cumulative IPC: 1.45239 (Simulation time: 1 hr 22 min 11 sec) 
Heartbeat CPU 0 instructions: 148000000 cycles: 89424028 heartbeat IPC: 1.44293 cumulative IPC: 1.45229 (Simulation time: 1 hr 22 min 43 sec) 
Heartbeat CPU 0 instructions: 149000001 cycles: 90112046 heartbeat IPC: 1.45345 cumulative IPC: 1.4523 (Simulation time: 1 hr 23 min 15 sec) 
Heartbeat CPU 0 instructions: 150000001 cycles: 90794569 heartbeat IPC: 1.46515 cumulative IPC: 1.45243 (Simulation time: 1 hr 23 min 40 sec) 
Finished CPU 0 instructions: 100000002 cycles: 68850028 cummulative IPC: 1.45243 (Simulation time: 1 hr 23 min 40 sec) 

ChampSim completed all CPUs

Region of Interest Statistics

CPU 0 cummulative IPC: 1.45243 instructions: 100000002 cycles: 68850028
LLC TOTAL     ACCESS:     824390  HIT:     150474  MISS:     673916
LLC LOAD      ACCESS:      16465  HIT:       7610  MISS:       8855
LLC RFO       ACCESS:     202187  HIT:       3674  MISS:     198513
LLC PREFETCH  ACCESS:     403106  HIT:     103174  MISS:     299932
LLC WRITEBACK ACCESS:     202632  HIT:      36016  MISS:     166616
OPTgen accesses: 5428
OPTgen hits: 1425
OPTgen hit rate: 26.2528


