
*** ChampSim Multicore Out-of-Order Simulator ***

Warmup Instructions: 50000000
Simulation Instructions: 100000000
Configuration: 2
Number of CPUs: 1
LLC sets: 2048
LLC ways: 16
Off-chip DRAM Channels: 1 Width: 64-bit Data Rate: 1600 MT/s

CPU 0 runs /datasets/cs240c-wi22-a00-public/data/Assignment2-gz/omnetpp_17B.trace.gz
CPU 0 L1D next line prefetcher
CPU 0 L2C IP-based stride prefetcher
Initialize Hawkeye state
Heartbeat CPU 0 instructions: 1000000 cycles: 559559 heartbeat IPC: 1.78712 cumulative IPC: 1.78712 (Simulation time: 0 hr 0 min 34 sec) 
Heartbeat CPU 0 instructions: 2000002 cycles: 1133709 heartbeat IPC: 1.74171 cumulative IPC: 1.76412 (Simulation time: 0 hr 1 min 5 sec) 
Heartbeat CPU 0 instructions: 3000001 cycles: 1769022 heartbeat IPC: 1.57403 cumulative IPC: 1.69585 (Simulation time: 0 hr 1 min 35 sec) 
Heartbeat CPU 0 instructions: 4000000 cycles: 2333919 heartbeat IPC: 1.77023 cumulative IPC: 1.71386 (Simulation time: 0 hr 2 min 10 sec) 
Heartbeat CPU 0 instructions: 5000002 cycles: 2892923 heartbeat IPC: 1.7889 cumulative IPC: 1.72836 (Simulation time: 0 hr 2 min 43 sec) 
Heartbeat CPU 0 instructions: 6000000 cycles: 3471455 heartbeat IPC: 1.72851 cumulative IPC: 1.72838 (Simulation time: 0 hr 3 min 15 sec) 
Heartbeat CPU 0 instructions: 7000000 cycles: 4035955 heartbeat IPC: 1.77148 cumulative IPC: 1.73441 (Simulation time: 0 hr 3 min 49 sec) 
Heartbeat CPU 0 instructions: 8000000 cycles: 4697689 heartbeat IPC: 1.51118 cumulative IPC: 1.70297 (Simulation time: 0 hr 4 min 20 sec) 
Heartbeat CPU 0 instructions: 9000000 cycles: 5359494 heartbeat IPC: 1.51102 cumulative IPC: 1.67926 (Simulation time: 0 hr 4 min 50 sec) 
Heartbeat CPU 0 instructions: 10000001 cycles: 6021063 heartbeat IPC: 1.51156 cumulative IPC: 1.66084 (Simulation time: 0 hr 5 min 20 sec) 
Heartbeat CPU 0 instructions: 11000001 cycles: 6682453 heartbeat IPC: 1.51197 cumulative IPC: 1.6461 (Simulation time: 0 hr 5 min 49 sec) 
Heartbeat CPU 0 instructions: 12000000 cycles: 7343229 heartbeat IPC: 1.51337 cumulative IPC: 1.63416 (Simulation time: 0 hr 6 min 18 sec) 
Heartbeat CPU 0 instructions: 13000001 cycles: 8001931 heartbeat IPC: 1.51814 cumulative IPC: 1.62461 (Simulation time: 0 hr 6 min 49 sec) 
Heartbeat CPU 0 instructions: 14000000 cycles: 8663220 heartbeat IPC: 1.5122 cumulative IPC: 1.61603 (Simulation time: 0 hr 7 min 18 sec) 
Heartbeat CPU 0 instructions: 15000000 cycles: 9324934 heartbeat IPC: 1.51123 cumulative IPC: 1.60859 (Simulation time: 0 hr 7 min 48 sec) 
Heartbeat CPU 0 instructions: 16000000 cycles: 9986845 heartbeat IPC: 1.51078 cumulative IPC: 1.60211 (Simulation time: 0 hr 8 min 17 sec) 
Heartbeat CPU 0 instructions: 17000000 cycles: 10652572 heartbeat IPC: 1.50212 cumulative IPC: 1.59586 (Simulation time: 0 hr 8 min 47 sec) 
Heartbeat CPU 0 instructions: 18000001 cycles: 11319129 heartbeat IPC: 1.50025 cumulative IPC: 1.59023 (Simulation time: 0 hr 9 min 17 sec) 
Heartbeat CPU 0 instructions: 19000002 cycles: 11987936 heartbeat IPC: 1.4952 cumulative IPC: 1.58493 (Simulation time: 0 hr 9 min 48 sec) 
Heartbeat CPU 0 instructions: 20000000 cycles: 12559808 heartbeat IPC: 1.74864 cumulative IPC: 1.59238 (Simulation time: 0 hr 10 min 22 sec) 
Heartbeat CPU 0 instructions: 21000000 cycles: 13148867 heartbeat IPC: 1.69762 cumulative IPC: 1.5971 (Simulation time: 0 hr 10 min 54 sec) 
Heartbeat CPU 0 instructions: 22000001 cycles: 13760761 heartbeat IPC: 1.63427 cumulative IPC: 1.59875 (Simulation time: 0 hr 11 min 27 sec) 
Heartbeat CPU 0 instructions: 23000000 cycles: 14318605 heartbeat IPC: 1.79261 cumulative IPC: 1.6063 (Simulation time: 0 hr 12 min 5 sec) 
Heartbeat CPU 0 instructions: 24000000 cycles: 14878259 heartbeat IPC: 1.78682 cumulative IPC: 1.61309 (Simulation time: 0 hr 12 min 41 sec) 
Heartbeat CPU 0 instructions: 25000001 cycles: 15461797 heartbeat IPC: 1.71369 cumulative IPC: 1.61689 (Simulation time: 0 hr 13 min 15 sec) 
Heartbeat CPU 0 instructions: 26000001 cycles: 16078667 heartbeat IPC: 1.62109 cumulative IPC: 1.61705 (Simulation time: 0 hr 13 min 47 sec) 
Heartbeat CPU 0 instructions: 27000000 cycles: 16638305 heartbeat IPC: 1.78687 cumulative IPC: 1.62276 (Simulation time: 0 hr 14 min 19 sec) 
Heartbeat CPU 0 instructions: 28000000 cycles: 17196624 heartbeat IPC: 1.79109 cumulative IPC: 1.62823 (Simulation time: 0 hr 14 min 53 sec) 
Heartbeat CPU 0 instructions: 29000000 cycles: 17775323 heartbeat IPC: 1.72801 cumulative IPC: 1.63148 (Simulation time: 0 hr 15 min 26 sec) 
Heartbeat CPU 0 instructions: 30000000 cycles: 18397877 heartbeat IPC: 1.60629 cumulative IPC: 1.63062 (Simulation time: 0 hr 15 min 55 sec) 
Heartbeat CPU 0 instructions: 31000000 cycles: 18959320 heartbeat IPC: 1.78112 cumulative IPC: 1.63508 (Simulation time: 0 hr 16 min 30 sec) 
Heartbeat CPU 0 instructions: 32000000 cycles: 19516567 heartbeat IPC: 1.79454 cumulative IPC: 1.63963 (Simulation time: 0 hr 17 min 3 sec) 
Heartbeat CPU 0 instructions: 33000001 cycles: 20088433 heartbeat IPC: 1.74866 cumulative IPC: 1.64274 (Simulation time: 0 hr 17 min 37 sec) 
Heartbeat CPU 0 instructions: 34000001 cycles: 20724134 heartbeat IPC: 1.57307 cumulative IPC: 1.6406 (Simulation time: 0 hr 18 min 7 sec) 
Heartbeat CPU 0 instructions: 35000002 cycles: 21289327 heartbeat IPC: 1.76931 cumulative IPC: 1.64402 (Simulation time: 0 hr 18 min 43 sec) 
Heartbeat CPU 0 instructions: 36000000 cycles: 21849058 heartbeat IPC: 1.78657 cumulative IPC: 1.64767 (Simulation time: 0 hr 19 min 18 sec) 
Heartbeat CPU 0 instructions: 37000001 cycles: 22427219 heartbeat IPC: 1.72962 cumulative IPC: 1.64978 (Simulation time: 0 hr 19 min 50 sec) 
Heartbeat CPU 0 instructions: 38000002 cycles: 23056251 heartbeat IPC: 1.58975 cumulative IPC: 1.64814 (Simulation time: 0 hr 20 min 21 sec) 
Heartbeat CPU 0 instructions: 39000000 cycles: 23618960 heartbeat IPC: 1.77711 cumulative IPC: 1.65122 (Simulation time: 0 hr 20 min 56 sec) 
Heartbeat CPU 0 instructions: 40000000 cycles: 24179055 heartbeat IPC: 1.78541 cumulative IPC: 1.65432 (Simulation time: 0 hr 21 min 30 sec) 
Heartbeat CPU 0 instructions: 41000002 cycles: 24762140 heartbeat IPC: 1.71502 cumulative IPC: 1.65575 (Simulation time: 0 hr 22 min 2 sec) 
Heartbeat CPU 0 instructions: 42000000 cycles: 25389114 heartbeat IPC: 1.59496 cumulative IPC: 1.65425 (Simulation time: 0 hr 22 min 33 sec) 
Heartbeat CPU 0 instructions: 43000001 cycles: 25876510 heartbeat IPC: 2.05172 cumulative IPC: 1.66174 (Simulation time: 0 hr 23 min 9 sec) 
Heartbeat CPU 0 instructions: 44000000 cycles: 26537207 heartbeat IPC: 1.51355 cumulative IPC: 1.65805 (Simulation time: 0 hr 23 min 38 sec) 
Heartbeat CPU 0 instructions: 45000003 cycles: 27198850 heartbeat IPC: 1.51139 cumulative IPC: 1.65448 (Simulation time: 0 hr 24 min 8 sec) 
Heartbeat CPU 0 instructions: 46000000 cycles: 27861228 heartbeat IPC: 1.50971 cumulative IPC: 1.65104 (Simulation time: 0 hr 24 min 37 sec) 
Heartbeat CPU 0 instructions: 47000001 cycles: 28524245 heartbeat IPC: 1.50826 cumulative IPC: 1.64772 (Simulation time: 0 hr 25 min 7 sec) 
Heartbeat CPU 0 instructions: 48000000 cycles: 29186996 heartbeat IPC: 1.50886 cumulative IPC: 1.64457 (Simulation time: 0 hr 25 min 37 sec) 
Heartbeat CPU 0 instructions: 49000000 cycles: 29848494 heartbeat IPC: 1.51172 cumulative IPC: 1.64162 (Simulation time: 0 hr 26 min 7 sec) 
Heartbeat CPU 0 instructions: 50000000 cycles: 30510685 heartbeat IPC: 1.51014 cumulative IPC: 1.63877 (Simulation time: 0 hr 26 min 36 sec) 

Warmup complete CPU 0 instructions: 50000002 cycles: 30510686 (Simulation time: 0 hr 26 min 36 sec) 

Heartbeat CPU 0 instructions: 51000002 cycles: 31554038 heartbeat IPC: 0.95845 cumulative IPC: 0.958449 (Simulation time: 0 hr 27 min 7 sec) 
Heartbeat CPU 0 instructions: 52000000 cycles: 32598297 heartbeat IPC: 0.957615 cumulative IPC: 0.958032 (Simulation time: 0 hr 27 min 37 sec) 
Heartbeat CPU 0 instructions: 53000001 cycles: 33641119 heartbeat IPC: 0.958937 cumulative IPC: 0.958334 (Simulation time: 0 hr 28 min 8 sec) 
Heartbeat CPU 0 instructions: 54000002 cycles: 34709471 heartbeat IPC: 0.936022 cumulative IPC: 0.952657 (Simulation time: 0 hr 28 min 40 sec) 
Heartbeat CPU 0 instructions: 55000003 cycles: 35749876 heartbeat IPC: 0.961165 cumulative IPC: 0.954346 (Simulation time: 0 hr 29 min 10 sec) 
Heartbeat CPU 0 instructions: 56000000 cycles: 38049474 heartbeat IPC: 0.434857 cumulative IPC: 0.795884 (Simulation time: 0 hr 29 min 46 sec) 
Heartbeat CPU 0 instructions: 57000003 cycles: 40115150 heartbeat IPC: 0.484104 cumulative IPC: 0.728828 (Simulation time: 0 hr 30 min 23 sec) 
Heartbeat CPU 0 instructions: 58000000 cycles: 43482767 heartbeat IPC: 0.296945 cumulative IPC: 0.616709 (Simulation time: 0 hr 31 min 5 sec) 
Heartbeat CPU 0 instructions: 59000003 cycles: 46841200 heartbeat IPC: 0.297759 cumulative IPC: 0.551116 (Simulation time: 0 hr 31 min 46 sec) 
Heartbeat CPU 0 instructions: 60000000 cycles: 49317359 heartbeat IPC: 0.40385 cumulative IPC: 0.531726 (Simulation time: 0 hr 32 min 23 sec) 
Heartbeat CPU 0 instructions: 61000001 cycles: 51214448 heartbeat IPC: 0.527124 cumulative IPC: 0.531304 (Simulation time: 0 hr 32 min 58 sec) 
Heartbeat CPU 0 instructions: 62000001 cycles: 54565022 heartbeat IPC: 0.298456 cumulative IPC: 0.498871 (Simulation time: 0 hr 33 min 39 sec) 
Heartbeat CPU 0 instructions: 63000000 cycles: 57892755 heartbeat IPC: 0.300505 cumulative IPC: 0.474763 (Simulation time: 0 hr 34 min 21 sec) 
Heartbeat CPU 0 instructions: 64000000 cycles: 60530895 heartbeat IPC: 0.379055 cumulative IPC: 0.466352 (Simulation time: 0 hr 34 min 58 sec) 
Heartbeat CPU 0 instructions: 65000000 cycles: 62249166 heartbeat IPC: 0.58198 cumulative IPC: 0.472612 (Simulation time: 0 hr 35 min 30 sec) 
Heartbeat CPU 0 instructions: 66000000 cycles: 65579596 heartbeat IPC: 0.300262 cumulative IPC: 0.456245 (Simulation time: 0 hr 36 min 11 sec) 
Heartbeat CPU 0 instructions: 67000001 cycles: 68919829 heartbeat IPC: 0.299381 cumulative IPC: 0.442603 (Simulation time: 0 hr 36 min 53 sec) 
Heartbeat CPU 0 instructions: 68000000 cycles: 71745901 heartbeat IPC: 0.353848 cumulative IPC: 0.43652 (Simulation time: 0 hr 37 min 31 sec) 
Heartbeat CPU 0 instructions: 69000001 cycles: 73284751 heartbeat IPC: 0.649837 cumulative IPC: 0.444194 (Simulation time: 0 hr 38 min 3 sec) 
Heartbeat CPU 0 instructions: 70000001 cycles: 76613886 heartbeat IPC: 0.300378 cumulative IPC: 0.433809 (Simulation time: 0 hr 38 min 44 sec) 
Heartbeat CPU 0 instructions: 71000001 cycles: 79963312 heartbeat IPC: 0.298559 cumulative IPC: 0.424649 (Simulation time: 0 hr 39 min 26 sec) 
Heartbeat CPU 0 instructions: 72000000 cycles: 82806839 heartbeat IPC: 0.351676 cumulative IPC: 0.420681 (Simulation time: 0 hr 40 min 3 sec) 
Heartbeat CPU 0 instructions: 73000000 cycles: 84355503 heartbeat IPC: 0.645718 cumulative IPC: 0.427153 (Simulation time: 0 hr 40 min 38 sec) 
Heartbeat CPU 0 instructions: 74000003 cycles: 87705489 heartbeat IPC: 0.29851 cumulative IPC: 0.419619 (Simulation time: 0 hr 41 min 20 sec) 
Heartbeat CPU 0 instructions: 75000001 cycles: 91045878 heartbeat IPC: 0.299366 cumulative IPC: 0.412983 (Simulation time: 0 hr 42 min 1 sec) 
Heartbeat CPU 0 instructions: 76000000 cycles: 93779160 heartbeat IPC: 0.36586 cumulative IPC: 0.410947 (Simulation time: 0 hr 42 min 41 sec) 
Heartbeat CPU 0 instructions: 77000001 cycles: 95421857 heartbeat IPC: 0.608756 cumulative IPC: 0.415953 (Simulation time: 0 hr 43 min 15 sec) 
Heartbeat CPU 0 instructions: 78000000 cycles: 98763939 heartbeat IPC: 0.299214 cumulative IPC: 0.410237 (Simulation time: 0 hr 43 min 55 sec) 
Heartbeat CPU 0 instructions: 79000000 cycles: 102268850 heartbeat IPC: 0.285314 cumulative IPC: 0.404135 (Simulation time: 0 hr 44 min 39 sec) 
Heartbeat CPU 0 instructions: 80000000 cycles: 104159325 heartbeat IPC: 0.528968 cumulative IPC: 0.407339 (Simulation time: 0 hr 45 min 14 sec) 
Heartbeat CPU 0 instructions: 81000001 cycles: 106639148 heartbeat IPC: 0.403255 cumulative IPC: 0.407206 (Simulation time: 0 hr 45 min 53 sec) 
Heartbeat CPU 0 instructions: 82000000 cycles: 110000692 heartbeat IPC: 0.297482 cumulative IPC: 0.402566 (Simulation time: 0 hr 46 min 35 sec) 
Heartbeat CPU 0 instructions: 83000000 cycles: 113372854 heartbeat IPC: 0.296546 cumulative IPC: 0.398252 (Simulation time: 0 hr 47 min 17 sec) 
Heartbeat CPU 0 instructions: 84000000 cycles: 115227889 heartbeat IPC: 0.539073 cumulative IPC: 0.401335 (Simulation time: 0 hr 47 min 51 sec) 
Heartbeat CPU 0 instructions: 85000003 cycles: 117726673 heartbeat IPC: 0.400196 cumulative IPC: 0.401303 (Simulation time: 0 hr 48 min 29 sec) 
Heartbeat CPU 0 instructions: 86000001 cycles: 121075613 heartbeat IPC: 0.298601 cumulative IPC: 0.397505 (Simulation time: 0 hr 49 min 11 sec) 
Heartbeat CPU 0 instructions: 87000000 cycles: 124416557 heartbeat IPC: 0.299316 cumulative IPC: 0.394012 (Simulation time: 0 hr 49 min 52 sec) 
Heartbeat CPU 0 instructions: 88000000 cycles: 126157331 heartbeat IPC: 0.574457 cumulative IPC: 0.397296 (Simulation time: 0 hr 50 min 27 sec) 
Heartbeat CPU 0 instructions: 89000000 cycles: 130984155 heartbeat IPC: 0.207176 cumulative IPC: 0.388162 (Simulation time: 0 hr 51 min 14 sec) 
Heartbeat CPU 0 instructions: 90000002 cycles: 132027784 heartbeat IPC: 0.958197 cumulative IPC: 0.394022 (Simulation time: 0 hr 51 min 45 sec) 
Heartbeat CPU 0 instructions: 91000001 cycles: 133072177 heartbeat IPC: 0.957493 cumulative IPC: 0.39976 (Simulation time: 0 hr 52 min 18 sec) 
Heartbeat CPU 0 instructions: 92000000 cycles: 134115823 heartbeat IPC: 0.958178 cumulative IPC: 0.405385 (Simulation time: 0 hr 52 min 49 sec) 
Heartbeat CPU 0 instructions: 93000002 cycles: 135160163 heartbeat IPC: 0.957545 cumulative IPC: 0.410895 (Simulation time: 0 hr 53 min 20 sec) 
Heartbeat CPU 0 instructions: 94000001 cycles: 136204010 heartbeat IPC: 0.957994 cumulative IPC: 0.416299 (Simulation time: 0 hr 53 min 52 sec) 
Heartbeat CPU 0 instructions: 95000000 cycles: 137248295 heartbeat IPC: 0.957592 cumulative IPC: 0.421595 (Simulation time: 0 hr 54 min 25 sec) 
Heartbeat CPU 0 instructions: 96000000 cycles: 138293275 heartbeat IPC: 0.956956 cumulative IPC: 0.426785 (Simulation time: 0 hr 54 min 57 sec) 
Heartbeat CPU 0 instructions: 97000002 cycles: 139364387 heartbeat IPC: 0.933611 cumulative IPC: 0.431772 (Simulation time: 0 hr 55 min 29 sec) 
Heartbeat CPU 0 instructions: 98000000 cycles: 140410032 heartbeat IPC: 0.956346 cumulative IPC: 0.436763 (Simulation time: 0 hr 56 min 3 sec) 
Heartbeat CPU 0 instructions: 99000003 cycles: 141448480 heartbeat IPC: 0.962978 cumulative IPC: 0.441689 (Simulation time: 0 hr 56 min 35 sec) 
Heartbeat CPU 0 instructions: 100000000 cycles: 142484954 heartbeat IPC: 0.964807 cumulative IPC: 0.446531 (Simulation time: 0 hr 57 min 6 sec) 
Heartbeat CPU 0 instructions: 101000001 cycles: 143526119 heartbeat IPC: 0.960464 cumulative IPC: 0.451266 (Simulation time: 0 hr 57 min 38 sec) 
Heartbeat CPU 0 instructions: 102000001 cycles: 146837556 heartbeat IPC: 0.301984 cumulative IPC: 0.447016 (Simulation time: 0 hr 58 min 21 sec) 
Heartbeat CPU 0 instructions: 103000001 cycles: 148266640 heartbeat IPC: 0.699749 cumulative IPC: 0.450083 (Simulation time: 0 hr 58 min 54 sec) 
Heartbeat CPU 0 instructions: 104000000 cycles: 151281228 heartbeat IPC: 0.33172 cumulative IPC: 0.447129 (Simulation time: 0 hr 59 min 33 sec) 
Heartbeat CPU 0 instructions: 105000000 cycles: 154614329 heartbeat IPC: 0.300021 cumulative IPC: 0.443178 (Simulation time: 1 hr 0 min 14 sec) 
Heartbeat CPU 0 instructions: 106000000 cycles: 157889177 heartbeat IPC: 0.305358 cumulative IPC: 0.439635 (Simulation time: 1 hr 0 min 53 sec) 
Heartbeat CPU 0 instructions: 107000001 cycles: 159465400 heartbeat IPC: 0.634429 cumulative IPC: 0.442016 (Simulation time: 1 hr 1 min 26 sec) 
Heartbeat CPU 0 instructions: 108000000 cycles: 162291571 heartbeat IPC: 0.353835 cumulative IPC: 0.440125 (Simulation time: 1 hr 2 min 5 sec) 
Heartbeat CPU 0 instructions: 109000000 cycles: 165626132 heartbeat IPC: 0.29989 cumulative IPC: 0.436664 (Simulation time: 1 hr 2 min 46 sec) 
Heartbeat CPU 0 instructions: 110000000 cycles: 168945235 heartbeat IPC: 0.301286 cumulative IPC: 0.433418 (Simulation time: 1 hr 3 min 27 sec) 
Heartbeat CPU 0 instructions: 111000000 cycles: 170670438 heartbeat IPC: 0.579642 cumulative IPC: 0.435218 (Simulation time: 1 hr 4 min 0 sec) 
Heartbeat CPU 0 instructions: 112000000 cycles: 173318312 heartbeat IPC: 0.377661 cumulative IPC: 0.43415 (Simulation time: 1 hr 4 min 41 sec) 
Heartbeat CPU 0 instructions: 113000001 cycles: 176659999 heartbeat IPC: 0.29925 cumulative IPC: 0.431066 (Simulation time: 1 hr 5 min 25 sec) 
Heartbeat CPU 0 instructions: 114000001 cycles: 180000646 heartbeat IPC: 0.299343 cumulative IPC: 0.428122 (Simulation time: 1 hr 6 min 3 sec) 
Heartbeat CPU 0 instructions: 115000002 cycles: 181918027 heartbeat IPC: 0.521545 cumulative IPC: 0.429305 (Simulation time: 1 hr 6 min 31 sec) 
Heartbeat CPU 0 instructions: 116000000 cycles: 184379289 heartbeat IPC: 0.406295 cumulative IPC: 0.428937 (Simulation time: 1 hr 7 min 7 sec) 
Heartbeat CPU 0 instructions: 117000000 cycles: 187707138 heartbeat IPC: 0.300494 cumulative IPC: 0.426218 (Simulation time: 1 hr 7 min 47 sec) 
Heartbeat CPU 0 instructions: 118000001 cycles: 191073867 heartbeat IPC: 0.297024 cumulative IPC: 0.423509 (Simulation time: 1 hr 8 min 22 sec) 
Heartbeat CPU 0 instructions: 119000002 cycles: 192887533 heartbeat IPC: 0.55137 cumulative IPC: 0.424937 (Simulation time: 1 hr 8 min 50 sec) 
Heartbeat CPU 0 instructions: 120000000 cycles: 195452091 heartbeat IPC: 0.38993 cumulative IPC: 0.424393 (Simulation time: 1 hr 9 min 22 sec) 
Heartbeat CPU 0 instructions: 121000000 cycles: 198783594 heartbeat IPC: 0.300165 cumulative IPC: 0.421934 (Simulation time: 1 hr 9 min 58 sec) 
Heartbeat CPU 0 instructions: 122000000 cycles: 202124559 heartbeat IPC: 0.299315 cumulative IPC: 0.419546 (Simulation time: 1 hr 10 min 33 sec) 
Heartbeat CPU 0 instructions: 123000002 cycles: 203835329 heartbeat IPC: 0.584533 cumulative IPC: 0.421175 (Simulation time: 1 hr 11 min 0 sec) 
Heartbeat CPU 0 instructions: 124000000 cycles: 206488767 heartbeat IPC: 0.376869 cumulative IPC: 0.420507 (Simulation time: 1 hr 11 min 32 sec) 
Heartbeat CPU 0 instructions: 125000000 cycles: 209989273 heartbeat IPC: 0.285673 cumulative IPC: 0.417877 (Simulation time: 1 hr 12 min 8 sec) 
Heartbeat CPU 0 instructions: 126000001 cycles: 213199902 heartbeat IPC: 0.311466 cumulative IPC: 0.416007 (Simulation time: 1 hr 12 min 42 sec) 
Heartbeat CPU 0 instructions: 127000002 cycles: 214362214 heartbeat IPC: 0.860355 cumulative IPC: 0.418816 (Simulation time: 1 hr 13 min 10 sec) 
Heartbeat CPU 0 instructions: 128000000 cycles: 217709049 heartbeat IPC: 0.298789 cumulative IPC: 0.41667 (Simulation time: 1 hr 13 min 44 sec) 
Heartbeat CPU 0 instructions: 129000000 cycles: 221039833 heartbeat IPC: 0.30023 cumulative IPC: 0.414635 (Simulation time: 1 hr 14 min 16 sec) 
Heartbeat CPU 0 instructions: 130000001 cycles: 224229949 heartbeat IPC: 0.313469 cumulative IPC: 0.412969 (Simulation time: 1 hr 14 min 48 sec) 
Heartbeat CPU 0 instructions: 131000002 cycles: 225428604 heartbeat IPC: 0.834269 cumulative IPC: 0.41556 (Simulation time: 1 hr 15 min 15 sec) 
Heartbeat CPU 0 instructions: 132000000 cycles: 228761358 heartbeat IPC: 0.300052 cumulative IPC: 0.413618 (Simulation time: 1 hr 15 min 47 sec) 
Heartbeat CPU 0 instructions: 133000000 cycles: 232087277 heartbeat IPC: 0.300669 cumulative IPC: 0.411754 (Simulation time: 1 hr 16 min 17 sec) 
Heartbeat CPU 0 instructions: 134000000 cycles: 235136849 heartbeat IPC: 0.327915 cumulative IPC: 0.410505 (Simulation time: 1 hr 16 min 46 sec) 
Heartbeat CPU 0 instructions: 135000001 cycles: 238629570 heartbeat IPC: 0.28631 cumulative IPC: 0.40842 (Simulation time: 1 hr 17 min 18 sec) 
Heartbeat CPU 0 instructions: 136000000 cycles: 239673556 heartbeat IPC: 0.957866 cumulative IPC: 0.411163 (Simulation time: 1 hr 17 min 42 sec) 
Heartbeat CPU 0 instructions: 137000001 cycles: 240718741 heartbeat IPC: 0.956769 cumulative IPC: 0.413876 (Simulation time: 1 hr 18 min 7 sec) 
Heartbeat CPU 0 instructions: 138000001 cycles: 241763445 heartbeat IPC: 0.957209 cumulative IPC: 0.416563 (Simulation time: 1 hr 18 min 30 sec) 
Heartbeat CPU 0 instructions: 139000001 cycles: 242808846 heartbeat IPC: 0.956571 cumulative IPC: 0.419222 (Simulation time: 1 hr 18 min 54 sec) 
Heartbeat CPU 0 instructions: 140000000 cycles: 243855370 heartbeat IPC: 0.955543 cumulative IPC: 0.421853 (Simulation time: 1 hr 19 min 17 sec) 
Heartbeat CPU 0 instructions: 141000001 cycles: 244925805 heartbeat IPC: 0.934201 cumulative IPC: 0.42441 (Simulation time: 1 hr 19 min 42 sec) 
Heartbeat CPU 0 instructions: 142000002 cycles: 245969789 heartbeat IPC: 0.95787 cumulative IPC: 0.426995 (Simulation time: 1 hr 20 min 6 sec) 
Heartbeat CPU 0 instructions: 143000001 cycles: 247014943 heartbeat IPC: 0.956796 cumulative IPC: 0.429553 (Simulation time: 1 hr 20 min 30 sec) 
Heartbeat CPU 0 instructions: 144000000 cycles: 248058725 heartbeat IPC: 0.958054 cumulative IPC: 0.432088 (Simulation time: 1 hr 20 min 53 sec) 
Heartbeat CPU 0 instructions: 145000003 cycles: 249101454 heartbeat IPC: 0.959025 cumulative IPC: 0.434602 (Simulation time: 1 hr 21 min 22 sec) 
Heartbeat CPU 0 instructions: 146000001 cycles: 250142780 heartbeat IPC: 0.960312 cumulative IPC: 0.437095 (Simulation time: 1 hr 21 min 49 sec) 
Heartbeat CPU 0 instructions: 147000000 cycles: 251184597 heartbeat IPC: 0.959861 cumulative IPC: 0.439563 (Simulation time: 1 hr 22 min 11 sec) 
Heartbeat CPU 0 instructions: 148000000 cycles: 254528267 heartbeat IPC: 0.299073 cumulative IPC: 0.437466 (Simulation time: 1 hr 22 min 39 sec) 
Heartbeat CPU 0 instructions: 149000000 cycles: 257219685 heartbeat IPC: 0.371551 cumulative IPC: 0.436683 (Simulation time: 1 hr 23 min 4 sec) 
Heartbeat CPU 0 instructions: 150000000 cycles: 258899033 heartbeat IPC: 0.595469 cumulative IPC: 0.437851 (Simulation time: 1 hr 23 min 28 sec) 
Finished CPU 0 instructions: 100000002 cycles: 228388353 cummulative IPC: 0.437851 (Simulation time: 1 hr 23 min 28 sec) 

ChampSim completed all CPUs

Region of Interest Statistics

CPU 0 cummulative IPC: 0.437851 instructions: 100000002 cycles: 228388353
LLC TOTAL     ACCESS:    3408642  HIT:    1174517  MISS:    2234125
LLC LOAD      ACCESS:    1621810  HIT:    1093694  MISS:     528116
LLC RFO       ACCESS:       5352  HIT:       2369  MISS:       2983
LLC PREFETCH  ACCESS:    1764079  HIT:      67085  MISS:    1696994
LLC WRITEBACK ACCESS:      17401  HIT:      11369  MISS:       6032
OPTgen accesses: 38906
OPTgen hits: 32363
OPTgen hit rate: 83.1825


