
*** ChampSim Multicore Out-of-Order Simulator ***

Warmup Instructions: 50000000
Simulation Instructions: 100000000
Configuration: 2
Number of CPUs: 1
LLC sets: 2048
LLC ways: 16
Off-chip DRAM Channels: 1 Width: 64-bit Data Rate: 1600 MT/s

CPU 0 runs /datasets/cs240c-wi22-a00-public/data/Assignment2-gz/astar_313B.trace.gz
CPU 0 L1D next line prefetcher
CPU 0 L2C IP-based stride prefetcher
Initialize Hawkeye state
Heartbeat CPU 0 instructions: 1000001 cycles: 675680 heartbeat IPC: 1.47999 cumulative IPC: 1.47999 (Simulation time: 0 hr 0 min 51 sec) 
Heartbeat CPU 0 instructions: 2000003 cycles: 1263000 heartbeat IPC: 1.70265 cumulative IPC: 1.58353 (Simulation time: 0 hr 1 min 39 sec) 
Heartbeat CPU 0 instructions: 3000003 cycles: 1936882 heartbeat IPC: 1.48394 cumulative IPC: 1.54888 (Simulation time: 0 hr 2 min 29 sec) 
Heartbeat CPU 0 instructions: 4000000 cycles: 2610208 heartbeat IPC: 1.48516 cumulative IPC: 1.53244 (Simulation time: 0 hr 3 min 16 sec) 
Heartbeat CPU 0 instructions: 5000002 cycles: 3284091 heartbeat IPC: 1.48394 cumulative IPC: 1.52249 (Simulation time: 0 hr 4 min 6 sec) 
Heartbeat CPU 0 instructions: 6000001 cycles: 3871433 heartbeat IPC: 1.70258 cumulative IPC: 1.54981 (Simulation time: 0 hr 4 min 55 sec) 
Heartbeat CPU 0 instructions: 7000001 cycles: 4440393 heartbeat IPC: 1.75759 cumulative IPC: 1.57644 (Simulation time: 0 hr 5 min 45 sec) 
Heartbeat CPU 0 instructions: 8000000 cycles: 4992167 heartbeat IPC: 1.81233 cumulative IPC: 1.60251 (Simulation time: 0 hr 6 min 32 sec) 
Heartbeat CPU 0 instructions: 9000001 cycles: 5553633 heartbeat IPC: 1.78105 cumulative IPC: 1.62056 (Simulation time: 0 hr 7 min 19 sec) 
Heartbeat CPU 0 instructions: 10000002 cycles: 6228271 heartbeat IPC: 1.48228 cumulative IPC: 1.60558 (Simulation time: 0 hr 8 min 8 sec) 
Heartbeat CPU 0 instructions: 11000000 cycles: 6903739 heartbeat IPC: 1.48045 cumulative IPC: 1.59334 (Simulation time: 0 hr 8 min 58 sec) 
Heartbeat CPU 0 instructions: 12000000 cycles: 7573293 heartbeat IPC: 1.49353 cumulative IPC: 1.58452 (Simulation time: 0 hr 9 min 47 sec) 
Heartbeat CPU 0 instructions: 13000003 cycles: 8165938 heartbeat IPC: 1.68736 cumulative IPC: 1.59198 (Simulation time: 0 hr 10 min 35 sec) 
Heartbeat CPU 0 instructions: 14000002 cycles: 8838059 heartbeat IPC: 1.48783 cumulative IPC: 1.58406 (Simulation time: 0 hr 11 min 25 sec) 
Heartbeat CPU 0 instructions: 15000000 cycles: 9511741 heartbeat IPC: 1.48438 cumulative IPC: 1.577 (Simulation time: 0 hr 12 min 14 sec) 
Heartbeat CPU 0 instructions: 16000000 cycles: 10185618 heartbeat IPC: 1.48395 cumulative IPC: 1.57084 (Simulation time: 0 hr 13 min 3 sec) 
Heartbeat CPU 0 instructions: 17000001 cycles: 10859215 heartbeat IPC: 1.48457 cumulative IPC: 1.56549 (Simulation time: 0 hr 13 min 52 sec) 
Heartbeat CPU 0 instructions: 18000000 cycles: 11444806 heartbeat IPC: 1.70767 cumulative IPC: 1.57277 (Simulation time: 0 hr 14 min 39 sec) 
Heartbeat CPU 0 instructions: 19000000 cycles: 12118646 heartbeat IPC: 1.48403 cumulative IPC: 1.56783 (Simulation time: 0 hr 15 min 31 sec) 
Heartbeat CPU 0 instructions: 20000000 cycles: 12792486 heartbeat IPC: 1.48403 cumulative IPC: 1.56342 (Simulation time: 0 hr 16 min 19 sec) 
Heartbeat CPU 0 instructions: 21000001 cycles: 13419072 heartbeat IPC: 1.59595 cumulative IPC: 1.56494 (Simulation time: 0 hr 17 min 8 sec) 
Heartbeat CPU 0 instructions: 22000001 cycles: 14054382 heartbeat IPC: 1.57403 cumulative IPC: 1.56535 (Simulation time: 0 hr 17 min 57 sec) 
Heartbeat CPU 0 instructions: 23000001 cycles: 14727401 heartbeat IPC: 1.48584 cumulative IPC: 1.56171 (Simulation time: 0 hr 18 min 47 sec) 
Heartbeat CPU 0 instructions: 24000000 cycles: 15382054 heartbeat IPC: 1.52753 cumulative IPC: 1.56026 (Simulation time: 0 hr 19 min 37 sec) 
Heartbeat CPU 0 instructions: 25000001 cycles: 15987585 heartbeat IPC: 1.65144 cumulative IPC: 1.56371 (Simulation time: 0 hr 20 min 27 sec) 
Heartbeat CPU 0 instructions: 26000002 cycles: 16664087 heartbeat IPC: 1.47819 cumulative IPC: 1.56024 (Simulation time: 0 hr 21 min 17 sec) 
Heartbeat CPU 0 instructions: 27000002 cycles: 17254859 heartbeat IPC: 1.6927 cumulative IPC: 1.56478 (Simulation time: 0 hr 22 min 5 sec) 
Heartbeat CPU 0 instructions: 28000000 cycles: 17929355 heartbeat IPC: 1.48259 cumulative IPC: 1.56168 (Simulation time: 0 hr 22 min 56 sec) 
Heartbeat CPU 0 instructions: 29000001 cycles: 18517567 heartbeat IPC: 1.70007 cumulative IPC: 1.56608 (Simulation time: 0 hr 23 min 45 sec) 
Heartbeat CPU 0 instructions: 30000002 cycles: 19191079 heartbeat IPC: 1.48476 cumulative IPC: 1.56323 (Simulation time: 0 hr 24 min 34 sec) 
Heartbeat CPU 0 instructions: 31000002 cycles: 19865667 heartbeat IPC: 1.48239 cumulative IPC: 1.56048 (Simulation time: 0 hr 25 min 24 sec) 
Heartbeat CPU 0 instructions: 32000000 cycles: 20540223 heartbeat IPC: 1.48245 cumulative IPC: 1.55792 (Simulation time: 0 hr 26 min 15 sec) 
Heartbeat CPU 0 instructions: 33000003 cycles: 21215188 heartbeat IPC: 1.48156 cumulative IPC: 1.55549 (Simulation time: 0 hr 27 min 6 sec) 
Heartbeat CPU 0 instructions: 34000000 cycles: 21801126 heartbeat IPC: 1.70666 cumulative IPC: 1.55955 (Simulation time: 0 hr 27 min 55 sec) 
Heartbeat CPU 0 instructions: 35000000 cycles: 22474875 heartbeat IPC: 1.48423 cumulative IPC: 1.55729 (Simulation time: 0 hr 28 min 44 sec) 
Heartbeat CPU 0 instructions: 36000000 cycles: 23148748 heartbeat IPC: 1.48396 cumulative IPC: 1.55516 (Simulation time: 0 hr 29 min 33 sec) 
Heartbeat CPU 0 instructions: 37000002 cycles: 23736370 heartbeat IPC: 1.70178 cumulative IPC: 1.55879 (Simulation time: 0 hr 30 min 21 sec) 
Heartbeat CPU 0 instructions: 38000000 cycles: 24409393 heartbeat IPC: 1.48583 cumulative IPC: 1.55678 (Simulation time: 0 hr 31 min 9 sec) 
Heartbeat CPU 0 instructions: 39000003 cycles: 24997834 heartbeat IPC: 1.69941 cumulative IPC: 1.56014 (Simulation time: 0 hr 31 min 57 sec) 
Heartbeat CPU 0 instructions: 40000000 cycles: 25586573 heartbeat IPC: 1.69854 cumulative IPC: 1.56332 (Simulation time: 0 hr 32 min 44 sec) 
Heartbeat CPU 0 instructions: 41000001 cycles: 26261230 heartbeat IPC: 1.48224 cumulative IPC: 1.56124 (Simulation time: 0 hr 33 min 35 sec) 
Heartbeat CPU 0 instructions: 42000003 cycles: 26938408 heartbeat IPC: 1.47672 cumulative IPC: 1.55911 (Simulation time: 0 hr 34 min 28 sec) 
Heartbeat CPU 0 instructions: 43000003 cycles: 27531391 heartbeat IPC: 1.68639 cumulative IPC: 1.56185 (Simulation time: 0 hr 35 min 16 sec) 
Heartbeat CPU 0 instructions: 44000000 cycles: 28199436 heartbeat IPC: 1.4969 cumulative IPC: 1.56031 (Simulation time: 0 hr 36 min 6 sec) 
Heartbeat CPU 0 instructions: 45000002 cycles: 28871871 heartbeat IPC: 1.48714 cumulative IPC: 1.55861 (Simulation time: 0 hr 36 min 58 sec) 
Heartbeat CPU 0 instructions: 46000002 cycles: 29544841 heartbeat IPC: 1.48595 cumulative IPC: 1.55696 (Simulation time: 0 hr 37 min 49 sec) 
Heartbeat CPU 0 instructions: 47000002 cycles: 30217089 heartbeat IPC: 1.48755 cumulative IPC: 1.55541 (Simulation time: 0 hr 38 min 38 sec) 
Heartbeat CPU 0 instructions: 48000000 cycles: 30805908 heartbeat IPC: 1.69831 cumulative IPC: 1.55814 (Simulation time: 0 hr 39 min 27 sec) 
Heartbeat CPU 0 instructions: 49000000 cycles: 31478498 heartbeat IPC: 1.48679 cumulative IPC: 1.55662 (Simulation time: 0 hr 40 min 16 sec) 
Heartbeat CPU 0 instructions: 50000000 cycles: 32150838 heartbeat IPC: 1.48734 cumulative IPC: 1.55517 (Simulation time: 0 hr 41 min 6 sec) 

Warmup complete CPU 0 instructions: 50000001 cycles: 32150839 (Simulation time: 0 hr 41 min 6 sec) 

Heartbeat CPU 0 instructions: 51000000 cycles: 38778425 heartbeat IPC: 0.150884 cumulative IPC: 0.150884 (Simulation time: 0 hr 42 min 1 sec) 
Heartbeat CPU 0 instructions: 52000000 cycles: 47128389 heartbeat IPC: 0.119761 cumulative IPC: 0.133533 (Simulation time: 0 hr 43 min 2 sec) 
Heartbeat CPU 0 instructions: 53000000 cycles: 53841365 heartbeat IPC: 0.148965 cumulative IPC: 0.138309 (Simulation time: 0 hr 43 min 55 sec) 
Heartbeat CPU 0 instructions: 54000000 cycles: 61615780 heartbeat IPC: 0.128627 cumulative IPC: 0.135755 (Simulation time: 0 hr 44 min 48 sec) 
Heartbeat CPU 0 instructions: 55000001 cycles: 69864369 heartbeat IPC: 0.121233 cumulative IPC: 0.132578 (Simulation time: 0 hr 45 min 45 sec) 
Heartbeat CPU 0 instructions: 56000000 cycles: 79669613 heartbeat IPC: 0.101986 cumulative IPC: 0.126266 (Simulation time: 0 hr 46 min 49 sec) 
Heartbeat CPU 0 instructions: 57000000 cycles: 85817123 heartbeat IPC: 0.162667 cumulative IPC: 0.130436 (Simulation time: 0 hr 47 min 39 sec) 
Heartbeat CPU 0 instructions: 58000001 cycles: 92288676 heartbeat IPC: 0.154523 cumulative IPC: 0.133028 (Simulation time: 0 hr 48 min 32 sec) 
Heartbeat CPU 0 instructions: 59000002 cycles: 100459530 heartbeat IPC: 0.122386 cumulative IPC: 0.131755 (Simulation time: 0 hr 49 min 28 sec) 
Heartbeat CPU 0 instructions: 60000000 cycles: 107861503 heartbeat IPC: 0.135099 cumulative IPC: 0.132082 (Simulation time: 0 hr 50 min 27 sec) 
Heartbeat CPU 0 instructions: 61000000 cycles: 114386484 heartbeat IPC: 0.153257 cumulative IPC: 0.133762 (Simulation time: 0 hr 51 min 19 sec) 
Heartbeat CPU 0 instructions: 62000001 cycles: 121262664 heartbeat IPC: 0.14543 cumulative IPC: 0.134662 (Simulation time: 0 hr 52 min 10 sec) 
Heartbeat CPU 0 instructions: 63000000 cycles: 128242520 heartbeat IPC: 0.143269 cumulative IPC: 0.135287 (Simulation time: 0 hr 53 min 3 sec) 
Heartbeat CPU 0 instructions: 64000000 cycles: 137315243 heartbeat IPC: 0.11022 cumulative IPC: 0.133125 (Simulation time: 0 hr 54 min 0 sec) 
Heartbeat CPU 0 instructions: 65000000 cycles: 144117345 heartbeat IPC: 0.147013 cumulative IPC: 0.133969 (Simulation time: 0 hr 54 min 53 sec) 
Heartbeat CPU 0 instructions: 66000001 cycles: 150538878 heartbeat IPC: 0.155726 cumulative IPC: 0.135149 (Simulation time: 0 hr 55 min 45 sec) 
Heartbeat CPU 0 instructions: 67000000 cycles: 157398306 heartbeat IPC: 0.145785 cumulative IPC: 0.135731 (Simulation time: 0 hr 56 min 38 sec) 
Heartbeat CPU 0 instructions: 68000000 cycles: 164829983 heartbeat IPC: 0.134559 cumulative IPC: 0.135666 (Simulation time: 0 hr 57 min 35 sec) 
Heartbeat CPU 0 instructions: 69000000 cycles: 176751129 heartbeat IPC: 0.0838846 cumulative IPC: 0.131397 (Simulation time: 0 hr 58 min 50 sec) 
Heartbeat CPU 0 instructions: 70000000 cycles: 183342184 heartbeat IPC: 0.151721 cumulative IPC: 0.132283 (Simulation time: 0 hr 59 min 45 sec) 
Heartbeat CPU 0 instructions: 71000002 cycles: 189932144 heartbeat IPC: 0.151746 cumulative IPC: 0.133096 (Simulation time: 1 hr 0 min 37 sec) 
Heartbeat CPU 0 instructions: 72000000 cycles: 196863693 heartbeat IPC: 0.144268 cumulative IPC: 0.133566 (Simulation time: 1 hr 1 min 33 sec) 
Heartbeat CPU 0 instructions: 73000003 cycles: 204123049 heartbeat IPC: 0.137754 cumulative IPC: 0.133743 (Simulation time: 1 hr 2 min 21 sec) 
Heartbeat CPU 0 instructions: 74000003 cycles: 213204432 heartbeat IPC: 0.110115 cumulative IPC: 0.132557 (Simulation time: 1 hr 3 min 19 sec) 
Heartbeat CPU 0 instructions: 75000000 cycles: 220301137 heartbeat IPC: 0.14091 cumulative IPC: 0.132872 (Simulation time: 1 hr 4 min 14 sec) 
Heartbeat CPU 0 instructions: 76000000 cycles: 226455590 heartbeat IPC: 0.162484 cumulative IPC: 0.13381 (Simulation time: 1 hr 5 min 7 sec) 
Heartbeat CPU 0 instructions: 77000000 cycles: 232675798 heartbeat IPC: 0.160766 cumulative IPC: 0.134647 (Simulation time: 1 hr 5 min 55 sec) 
Heartbeat CPU 0 instructions: 78000001 cycles: 238716218 heartbeat IPC: 0.165552 cumulative IPC: 0.13555 (Simulation time: 1 hr 6 min 45 sec) 
Heartbeat CPU 0 instructions: 79000000 cycles: 247493738 heartbeat IPC: 0.113927 cumulative IPC: 0.134669 (Simulation time: 1 hr 7 min 39 sec) 
Heartbeat CPU 0 instructions: 80000000 cycles: 253278068 heartbeat IPC: 0.172881 cumulative IPC: 0.135669 (Simulation time: 1 hr 8 min 20 sec) 
Heartbeat CPU 0 instructions: 81000001 cycles: 260561082 heartbeat IPC: 0.137306 cumulative IPC: 0.135721 (Simulation time: 1 hr 9 min 2 sec) 
Heartbeat CPU 0 instructions: 82000001 cycles: 268385847 heartbeat IPC: 0.127799 cumulative IPC: 0.135458 (Simulation time: 1 hr 9 min 50 sec) 
Heartbeat CPU 0 instructions: 83000002 cycles: 274788817 heartbeat IPC: 0.156178 cumulative IPC: 0.136005 (Simulation time: 1 hr 10 min 34 sec) 
Heartbeat CPU 0 instructions: 84000000 cycles: 281332114 heartbeat IPC: 0.152828 cumulative IPC: 0.136447 (Simulation time: 1 hr 11 min 15 sec) 
Heartbeat CPU 0 instructions: 85000000 cycles: 288160632 heartbeat IPC: 0.146445 cumulative IPC: 0.136714 (Simulation time: 1 hr 11 min 56 sec) 
Heartbeat CPU 0 instructions: 86000001 cycles: 296663655 heartbeat IPC: 0.117605 cumulative IPC: 0.136099 (Simulation time: 1 hr 12 min 45 sec) 
Heartbeat CPU 0 instructions: 87000000 cycles: 302379376 heartbeat IPC: 0.174956 cumulative IPC: 0.136921 (Simulation time: 1 hr 13 min 25 sec) 
Heartbeat CPU 0 instructions: 88000000 cycles: 308261311 heartbeat IPC: 0.170012 cumulative IPC: 0.137626 (Simulation time: 1 hr 14 min 5 sec) 
Heartbeat CPU 0 instructions: 89000002 cycles: 314414806 heartbeat IPC: 0.16251 cumulative IPC: 0.138169 (Simulation time: 1 hr 14 min 45 sec) 
Heartbeat CPU 0 instructions: 90000002 cycles: 320908548 heartbeat IPC: 0.153994 cumulative IPC: 0.138524 (Simulation time: 1 hr 15 min 26 sec) 
Heartbeat CPU 0 instructions: 91000001 cycles: 330057941 heartbeat IPC: 0.109297 cumulative IPC: 0.137627 (Simulation time: 1 hr 16 min 11 sec) 
Heartbeat CPU 0 instructions: 92000000 cycles: 337081159 heartbeat IPC: 0.142385 cumulative IPC: 0.137736 (Simulation time: 1 hr 16 min 51 sec) 
Heartbeat CPU 0 instructions: 93000003 cycles: 344387624 heartbeat IPC: 0.136865 cumulative IPC: 0.137716 (Simulation time: 1 hr 17 min 38 sec) 
Heartbeat CPU 0 instructions: 94000000 cycles: 351902939 heartbeat IPC: 0.133061 cumulative IPC: 0.137607 (Simulation time: 1 hr 18 min 17 sec) 
Heartbeat CPU 0 instructions: 95000000 cycles: 358511922 heartbeat IPC: 0.151309 cumulative IPC: 0.137884 (Simulation time: 1 hr 18 min 57 sec) 
Heartbeat CPU 0 instructions: 96000000 cycles: 367656181 heartbeat IPC: 0.109358 cumulative IPC: 0.137107 (Simulation time: 1 hr 19 min 44 sec) 
Heartbeat CPU 0 instructions: 97000000 cycles: 374450016 heartbeat IPC: 0.147192 cumulative IPC: 0.137307 (Simulation time: 1 hr 20 min 21 sec) 
Heartbeat CPU 0 instructions: 98000003 cycles: 382114215 heartbeat IPC: 0.130477 cumulative IPC: 0.137157 (Simulation time: 1 hr 21 min 2 sec) 
Heartbeat CPU 0 instructions: 99000001 cycles: 390068278 heartbeat IPC: 0.125722 cumulative IPC: 0.136903 (Simulation time: 1 hr 21 min 43 sec) 
Heartbeat CPU 0 instructions: 100000000 cycles: 397411562 heartbeat IPC: 0.136179 cumulative IPC: 0.136889 (Simulation time: 1 hr 22 min 20 sec) 
Heartbeat CPU 0 instructions: 101000000 cycles: 406571676 heartbeat IPC: 0.109169 cumulative IPC: 0.13621 (Simulation time: 1 hr 23 min 2 sec) 
Heartbeat CPU 0 instructions: 102000001 cycles: 412875646 heartbeat IPC: 0.15863 cumulative IPC: 0.136582 (Simulation time: 1 hr 23 min 35 sec) 
Heartbeat CPU 0 instructions: 103000000 cycles: 419283234 heartbeat IPC: 0.156065 cumulative IPC: 0.136904 (Simulation time: 1 hr 24 min 7 sec) 
Heartbeat CPU 0 instructions: 104000000 cycles: 425712387 heartbeat IPC: 0.155541 cumulative IPC: 0.137209 (Simulation time: 1 hr 24 min 38 sec) 
Heartbeat CPU 0 instructions: 105000000 cycles: 431877834 heartbeat IPC: 0.162194 cumulative IPC: 0.137594 (Simulation time: 1 hr 25 min 9 sec) 
Heartbeat CPU 0 instructions: 106000000 cycles: 440883469 heartbeat IPC: 0.111042 cumulative IPC: 0.137009 (Simulation time: 1 hr 25 min 45 sec) 
Heartbeat CPU 0 instructions: 107000002 cycles: 447364827 heartbeat IPC: 0.154289 cumulative IPC: 0.137279 (Simulation time: 1 hr 26 min 13 sec) 
Heartbeat CPU 0 instructions: 108000000 cycles: 456470652 heartbeat IPC: 0.10982 cumulative IPC: 0.136689 (Simulation time: 1 hr 26 min 46 sec) 
Heartbeat CPU 0 instructions: 109000003 cycles: 462644730 heartbeat IPC: 0.161968 cumulative IPC: 0.137052 (Simulation time: 1 hr 27 min 13 sec) 
Heartbeat CPU 0 instructions: 110000003 cycles: 468491902 heartbeat IPC: 0.171023 cumulative IPC: 0.137507 (Simulation time: 1 hr 27 min 36 sec) 
Heartbeat CPU 0 instructions: 111000001 cycles: 474472350 heartbeat IPC: 0.167211 cumulative IPC: 0.137909 (Simulation time: 1 hr 28 min 6 sec) 
Heartbeat CPU 0 instructions: 112000000 cycles: 482720537 heartbeat IPC: 0.121239 cumulative IPC: 0.137604 (Simulation time: 1 hr 28 min 36 sec) 
Heartbeat CPU 0 instructions: 113000000 cycles: 489976263 heartbeat IPC: 0.137822 cumulative IPC: 0.137607 (Simulation time: 1 hr 29 min 7 sec) 
Heartbeat CPU 0 instructions: 114000003 cycles: 497693598 heartbeat IPC: 0.129579 cumulative IPC: 0.137474 (Simulation time: 1 hr 29 min 36 sec) 
Heartbeat CPU 0 instructions: 115000001 cycles: 505899167 heartbeat IPC: 0.121868 cumulative IPC: 0.137204 (Simulation time: 1 hr 30 min 6 sec) 
Heartbeat CPU 0 instructions: 116000000 cycles: 512608671 heartbeat IPC: 0.149042 cumulative IPC: 0.137369 (Simulation time: 1 hr 30 min 33 sec) 
Heartbeat CPU 0 instructions: 117000001 cycles: 519499634 heartbeat IPC: 0.145118 cumulative IPC: 0.137479 (Simulation time: 1 hr 31 min 0 sec) 
Heartbeat CPU 0 instructions: 118000003 cycles: 528474727 heartbeat IPC: 0.11142 cumulative IPC: 0.137007 (Simulation time: 1 hr 31 min 30 sec) 
Heartbeat CPU 0 instructions: 119000000 cycles: 534905344 heartbeat IPC: 0.155506 cumulative IPC: 0.137244 (Simulation time: 1 hr 31 min 54 sec) 
Heartbeat CPU 0 instructions: 120000000 cycles: 541522786 heartbeat IPC: 0.151116 cumulative IPC: 0.137424 (Simulation time: 1 hr 32 min 20 sec) 
Heartbeat CPU 0 instructions: 121000001 cycles: 547950270 heartbeat IPC: 0.155582 cumulative IPC: 0.13765 (Simulation time: 1 hr 32 min 45 sec) 
Heartbeat CPU 0 instructions: 122000001 cycles: 554430948 heartbeat IPC: 0.154305 cumulative IPC: 0.137857 (Simulation time: 1 hr 33 min 10 sec) 
Heartbeat CPU 0 instructions: 123000001 cycles: 563540743 heartbeat IPC: 0.109772 cumulative IPC: 0.137376 (Simulation time: 1 hr 33 min 37 sec) 
Heartbeat CPU 0 instructions: 124000000 cycles: 570076735 heartbeat IPC: 0.152999 cumulative IPC: 0.137565 (Simulation time: 1 hr 33 min 58 sec) 
Heartbeat CPU 0 instructions: 125000000 cycles: 576644590 heartbeat IPC: 0.152257 cumulative IPC: 0.137743 (Simulation time: 1 hr 34 min 18 sec) 
Heartbeat CPU 0 instructions: 126000003 cycles: 583624506 heartbeat IPC: 0.143269 cumulative IPC: 0.137813 (Simulation time: 1 hr 34 min 38 sec) 
Heartbeat CPU 0 instructions: 127000003 cycles: 592993566 heartbeat IPC: 0.106734 cumulative IPC: 0.137293 (Simulation time: 1 hr 34 min 59 sec) 
Heartbeat CPU 0 instructions: 128000000 cycles: 599185384 heartbeat IPC: 0.161503 cumulative IPC: 0.137558 (Simulation time: 1 hr 35 min 17 sec) 
Heartbeat CPU 0 instructions: 129000001 cycles: 608065071 heartbeat IPC: 0.112617 cumulative IPC: 0.137173 (Simulation time: 1 hr 35 min 36 sec) 
Heartbeat CPU 0 instructions: 130000002 cycles: 614274644 heartbeat IPC: 0.161042 cumulative IPC: 0.137428 (Simulation time: 1 hr 35 min 52 sec) 
Heartbeat CPU 0 instructions: 131000003 cycles: 620189177 heartbeat IPC: 0.169075 cumulative IPC: 0.137746 (Simulation time: 1 hr 36 min 7 sec) 
Heartbeat CPU 0 instructions: 132000000 cycles: 631337634 heartbeat IPC: 0.0896982 cumulative IPC: 0.136852 (Simulation time: 1 hr 36 min 26 sec) 
Heartbeat CPU 0 instructions: 133000002 cycles: 640375021 heartbeat IPC: 0.110652 cumulative IPC: 0.136463 (Simulation time: 1 hr 36 min 45 sec) 
Heartbeat CPU 0 instructions: 134000000 cycles: 646427394 heartbeat IPC: 0.165224 cumulative IPC: 0.136746 (Simulation time: 1 hr 36 min 59 sec) 
Heartbeat CPU 0 instructions: 135000002 cycles: 653927950 heartbeat IPC: 0.133324 cumulative IPC: 0.136705 (Simulation time: 1 hr 37 min 13 sec) 
Heartbeat CPU 0 instructions: 136000000 cycles: 663167893 heartbeat IPC: 0.108226 cumulative IPC: 0.136288 (Simulation time: 1 hr 37 min 28 sec) 
Heartbeat CPU 0 instructions: 137000001 cycles: 671301631 heartbeat IPC: 0.122945 cumulative IPC: 0.136118 (Simulation time: 1 hr 37 min 42 sec) 
Heartbeat CPU 0 instructions: 138000002 cycles: 678019594 heartbeat IPC: 0.148855 cumulative IPC: 0.136251 (Simulation time: 1 hr 37 min 54 sec) 
Heartbeat CPU 0 instructions: 139000001 cycles: 684742412 heartbeat IPC: 0.148747 cumulative IPC: 0.136379 (Simulation time: 1 hr 38 min 5 sec) 
Heartbeat CPU 0 instructions: 140000000 cycles: 694061838 heartbeat IPC: 0.107303 cumulative IPC: 0.13597 (Simulation time: 1 hr 38 min 18 sec) 
Heartbeat CPU 0 instructions: 141000001 cycles: 700722552 heartbeat IPC: 0.150134 cumulative IPC: 0.136111 (Simulation time: 1 hr 38 min 28 sec) 
Heartbeat CPU 0 instructions: 142000000 cycles: 707144974 heartbeat IPC: 0.155704 cumulative IPC: 0.136297 (Simulation time: 1 hr 38 min 37 sec) 
Heartbeat CPU 0 instructions: 143000001 cycles: 713801780 heartbeat IPC: 0.150222 cumulative IPC: 0.136433 (Simulation time: 1 hr 38 min 46 sec) 
Heartbeat CPU 0 instructions: 144000000 cycles: 723247708 heartbeat IPC: 0.105866 cumulative IPC: 0.136016 (Simulation time: 1 hr 38 min 55 sec) 
Heartbeat CPU 0 instructions: 145000000 cycles: 730011305 heartbeat IPC: 0.14785 cumulative IPC: 0.13613 (Simulation time: 1 hr 39 min 3 sec) 
Heartbeat CPU 0 instructions: 146000000 cycles: 736422619 heartbeat IPC: 0.155974 cumulative IPC: 0.136311 (Simulation time: 1 hr 39 min 10 sec) 
Heartbeat CPU 0 instructions: 147000000 cycles: 745501118 heartbeat IPC: 0.11015 cumulative IPC: 0.135978 (Simulation time: 1 hr 39 min 17 sec) 
Heartbeat CPU 0 instructions: 148000000 cycles: 751850528 heartbeat IPC: 0.157495 cumulative IPC: 0.136168 (Simulation time: 1 hr 39 min 24 sec) 
Heartbeat CPU 0 instructions: 149000000 cycles: 760571734 heartbeat IPC: 0.114663 cumulative IPC: 0.13591 (Simulation time: 1 hr 39 min 31 sec) 
Heartbeat CPU 0 instructions: 150000001 cycles: 766965972 heartbeat IPC: 0.156391 cumulative IPC: 0.136089 (Simulation time: 1 hr 39 min 37 sec) 
Finished CPU 0 instructions: 100000000 cycles: 734815133 cummulative IPC: 0.136089 (Simulation time: 1 hr 39 min 37 sec) 

ChampSim completed all CPUs

Region of Interest Statistics

CPU 0 cummulative IPC: 0.136089 instructions: 100000000 cycles: 734815133
LLC TOTAL     ACCESS:    9037048  HIT:    2347188  MISS:    6689860
LLC LOAD      ACCESS:    1900144  HIT:     494513  MISS:    1405631
LLC RFO       ACCESS:    1963562  HIT:     419170  MISS:    1544392
LLC PREFETCH  ACCESS:    2282217  HIT:     359433  MISS:    1922784
LLC WRITEBACK ACCESS:    2891125  HIT:    1074072  MISS:    1817053
OPTgen accesses: 93748
OPTgen hits: 50665
OPTgen hit rate: 54.0438


