
*** ChampSim Multicore Out-of-Order Simulator ***

Warmup Instructions: 50000000
Simulation Instructions: 100000000
Configuration: 2
Number of CPUs: 1
LLC sets: 2048
LLC ways: 16
Off-chip DRAM Channels: 1 Width: 64-bit Data Rate: 1600 MT/s

CPU 0 runs /datasets/cs240c-wi22-a00-public/data/Assignment2-gz/GemsFDTD_712B.trace.gz
CPU 0 L1D next line prefetcher
CPU 0 L2C IP-based stride prefetcher
Initialize Hawkeye state
Heartbeat CPU 0 instructions: 1000003 cycles: 634340 heartbeat IPC: 1.57645 cumulative IPC: 1.57645 (Simulation time: 0 hr 0 min 44 sec) 
Heartbeat CPU 0 instructions: 2000000 cycles: 1268289 heartbeat IPC: 1.57741 cumulative IPC: 1.57693 (Simulation time: 0 hr 1 min 26 sec) 
Heartbeat CPU 0 instructions: 3000000 cycles: 1902273 heartbeat IPC: 1.57733 cumulative IPC: 1.57706 (Simulation time: 0 hr 2 min 9 sec) 
Heartbeat CPU 0 instructions: 4000000 cycles: 2535977 heartbeat IPC: 1.57802 cumulative IPC: 1.5773 (Simulation time: 0 hr 2 min 53 sec) 
Heartbeat CPU 0 instructions: 5000003 cycles: 3170133 heartbeat IPC: 1.5769 cumulative IPC: 1.57722 (Simulation time: 0 hr 3 min 39 sec) 
Heartbeat CPU 0 instructions: 6000002 cycles: 3804031 heartbeat IPC: 1.57754 cumulative IPC: 1.57727 (Simulation time: 0 hr 4 min 26 sec) 
Heartbeat CPU 0 instructions: 7000001 cycles: 4438181 heartbeat IPC: 1.57691 cumulative IPC: 1.57722 (Simulation time: 0 hr 5 min 9 sec) 
Heartbeat CPU 0 instructions: 8000000 cycles: 5072009 heartbeat IPC: 1.57771 cumulative IPC: 1.57728 (Simulation time: 0 hr 5 min 52 sec) 
Heartbeat CPU 0 instructions: 9000001 cycles: 5706116 heartbeat IPC: 1.57702 cumulative IPC: 1.57726 (Simulation time: 0 hr 6 min 39 sec) 
Heartbeat CPU 0 instructions: 10000002 cycles: 6339885 heartbeat IPC: 1.57786 cumulative IPC: 1.57732 (Simulation time: 0 hr 7 min 21 sec) 
Heartbeat CPU 0 instructions: 11000002 cycles: 6973668 heartbeat IPC: 1.57783 cumulative IPC: 1.57736 (Simulation time: 0 hr 8 min 4 sec) 
Heartbeat CPU 0 instructions: 12000000 cycles: 7607630 heartbeat IPC: 1.57738 cumulative IPC: 1.57736 (Simulation time: 0 hr 8 min 46 sec) 
Heartbeat CPU 0 instructions: 13000000 cycles: 8241678 heartbeat IPC: 1.57717 cumulative IPC: 1.57735 (Simulation time: 0 hr 9 min 30 sec) 
Heartbeat CPU 0 instructions: 14000001 cycles: 8875822 heartbeat IPC: 1.57693 cumulative IPC: 1.57732 (Simulation time: 0 hr 10 min 14 sec) 
Heartbeat CPU 0 instructions: 15000001 cycles: 9509892 heartbeat IPC: 1.57711 cumulative IPC: 1.57731 (Simulation time: 0 hr 10 min 58 sec) 
Heartbeat CPU 0 instructions: 16000000 cycles: 10143692 heartbeat IPC: 1.57778 cumulative IPC: 1.57734 (Simulation time: 0 hr 11 min 42 sec) 
Heartbeat CPU 0 instructions: 17000000 cycles: 10777665 heartbeat IPC: 1.57735 cumulative IPC: 1.57734 (Simulation time: 0 hr 12 min 26 sec) 
Heartbeat CPU 0 instructions: 18000003 cycles: 11411519 heartbeat IPC: 1.57766 cumulative IPC: 1.57735 (Simulation time: 0 hr 13 min 11 sec) 
Heartbeat CPU 0 instructions: 19000000 cycles: 12045541 heartbeat IPC: 1.57723 cumulative IPC: 1.57735 (Simulation time: 0 hr 13 min 56 sec) 
Heartbeat CPU 0 instructions: 20000000 cycles: 12679585 heartbeat IPC: 1.57718 cumulative IPC: 1.57734 (Simulation time: 0 hr 14 min 39 sec) 
Heartbeat CPU 0 instructions: 21000002 cycles: 13313741 heartbeat IPC: 1.5769 cumulative IPC: 1.57732 (Simulation time: 0 hr 15 min 23 sec) 
Heartbeat CPU 0 instructions: 22000000 cycles: 13947564 heartbeat IPC: 1.57772 cumulative IPC: 1.57734 (Simulation time: 0 hr 16 min 5 sec) 
Heartbeat CPU 0 instructions: 23000002 cycles: 14581496 heartbeat IPC: 1.57746 cumulative IPC: 1.57734 (Simulation time: 0 hr 16 min 49 sec) 
Heartbeat CPU 0 instructions: 24000000 cycles: 15215400 heartbeat IPC: 1.57752 cumulative IPC: 1.57735 (Simulation time: 0 hr 17 min 36 sec) 
Heartbeat CPU 0 instructions: 25000000 cycles: 15849454 heartbeat IPC: 1.57715 cumulative IPC: 1.57734 (Simulation time: 0 hr 18 min 21 sec) 
Heartbeat CPU 0 instructions: 26000002 cycles: 16483544 heartbeat IPC: 1.57707 cumulative IPC: 1.57733 (Simulation time: 0 hr 19 min 2 sec) 
Heartbeat CPU 0 instructions: 27000002 cycles: 17117590 heartbeat IPC: 1.57717 cumulative IPC: 1.57732 (Simulation time: 0 hr 19 min 44 sec) 
Heartbeat CPU 0 instructions: 28000000 cycles: 17751483 heartbeat IPC: 1.57755 cumulative IPC: 1.57733 (Simulation time: 0 hr 20 min 29 sec) 
Heartbeat CPU 0 instructions: 29000001 cycles: 18385491 heartbeat IPC: 1.57727 cumulative IPC: 1.57733 (Simulation time: 0 hr 21 min 13 sec) 
Heartbeat CPU 0 instructions: 30000000 cycles: 19019312 heartbeat IPC: 1.57773 cumulative IPC: 1.57734 (Simulation time: 0 hr 21 min 52 sec) 
Heartbeat CPU 0 instructions: 31000001 cycles: 19653215 heartbeat IPC: 1.57753 cumulative IPC: 1.57735 (Simulation time: 0 hr 22 min 36 sec) 
Heartbeat CPU 0 instructions: 32000000 cycles: 20287226 heartbeat IPC: 1.57726 cumulative IPC: 1.57735 (Simulation time: 0 hr 23 min 22 sec) 
Heartbeat CPU 0 instructions: 33000003 cycles: 20921401 heartbeat IPC: 1.57686 cumulative IPC: 1.57733 (Simulation time: 0 hr 24 min 7 sec) 
Heartbeat CPU 0 instructions: 34000001 cycles: 21555316 heartbeat IPC: 1.5775 cumulative IPC: 1.57734 (Simulation time: 0 hr 24 min 51 sec) 
Heartbeat CPU 0 instructions: 35000002 cycles: 22189242 heartbeat IPC: 1.57747 cumulative IPC: 1.57734 (Simulation time: 0 hr 25 min 35 sec) 
Heartbeat CPU 0 instructions: 36000000 cycles: 22823005 heartbeat IPC: 1.57787 cumulative IPC: 1.57736 (Simulation time: 0 hr 26 min 18 sec) 
Heartbeat CPU 0 instructions: 37000000 cycles: 23456986 heartbeat IPC: 1.57733 cumulative IPC: 1.57736 (Simulation time: 0 hr 27 min 3 sec) 
Heartbeat CPU 0 instructions: 38000003 cycles: 24090890 heartbeat IPC: 1.57753 cumulative IPC: 1.57736 (Simulation time: 0 hr 27 min 45 sec) 
Heartbeat CPU 0 instructions: 39000001 cycles: 24725070 heartbeat IPC: 1.57684 cumulative IPC: 1.57735 (Simulation time: 0 hr 28 min 27 sec) 
Heartbeat CPU 0 instructions: 40000000 cycles: 25359112 heartbeat IPC: 1.57718 cumulative IPC: 1.57734 (Simulation time: 0 hr 29 min 10 sec) 
Heartbeat CPU 0 instructions: 41000003 cycles: 25993249 heartbeat IPC: 1.57695 cumulative IPC: 1.57733 (Simulation time: 0 hr 29 min 54 sec) 
Heartbeat CPU 0 instructions: 42000000 cycles: 26627015 heartbeat IPC: 1.57786 cumulative IPC: 1.57735 (Simulation time: 0 hr 30 min 37 sec) 
Heartbeat CPU 0 instructions: 43000002 cycles: 27260865 heartbeat IPC: 1.57766 cumulative IPC: 1.57735 (Simulation time: 0 hr 31 min 21 sec) 
Heartbeat CPU 0 instructions: 44000000 cycles: 27894801 heartbeat IPC: 1.57744 cumulative IPC: 1.57735 (Simulation time: 0 hr 32 min 2 sec) 
Heartbeat CPU 0 instructions: 45000003 cycles: 28528948 heartbeat IPC: 1.57693 cumulative IPC: 1.57735 (Simulation time: 0 hr 32 min 42 sec) 
Heartbeat CPU 0 instructions: 46000002 cycles: 29162912 heartbeat IPC: 1.57738 cumulative IPC: 1.57735 (Simulation time: 0 hr 33 min 27 sec) 
Heartbeat CPU 0 instructions: 47000001 cycles: 29796986 heartbeat IPC: 1.5771 cumulative IPC: 1.57734 (Simulation time: 0 hr 34 min 10 sec) 
Heartbeat CPU 0 instructions: 48000000 cycles: 30430656 heartbeat IPC: 1.57811 cumulative IPC: 1.57736 (Simulation time: 0 hr 34 min 55 sec) 
Heartbeat CPU 0 instructions: 49000001 cycles: 31064699 heartbeat IPC: 1.57718 cumulative IPC: 1.57735 (Simulation time: 0 hr 35 min 38 sec) 
Heartbeat CPU 0 instructions: 50000000 cycles: 31698529 heartbeat IPC: 1.57771 cumulative IPC: 1.57736 (Simulation time: 0 hr 36 min 22 sec) 

Warmup complete CPU 0 instructions: 50000004 cycles: 31698530 (Simulation time: 0 hr 36 min 22 sec) 

Heartbeat CPU 0 instructions: 51000002 cycles: 33320015 heartbeat IPC: 0.616719 cumulative IPC: 0.616717 (Simulation time: 0 hr 37 min 13 sec) 
Heartbeat CPU 0 instructions: 52000000 cycles: 34925169 heartbeat IPC: 0.622992 cumulative IPC: 0.619839 (Simulation time: 0 hr 38 min 1 sec) 
Heartbeat CPU 0 instructions: 53000000 cycles: 36567440 heartbeat IPC: 0.608913 cumulative IPC: 0.616154 (Simulation time: 0 hr 38 min 51 sec) 
Heartbeat CPU 0 instructions: 54000000 cycles: 38155004 heartbeat IPC: 0.629896 cumulative IPC: 0.619533 (Simulation time: 0 hr 39 min 42 sec) 
Heartbeat CPU 0 instructions: 55000003 cycles: 39738993 heartbeat IPC: 0.631319 cumulative IPC: 0.621855 (Simulation time: 0 hr 40 min 32 sec) 
Heartbeat CPU 0 instructions: 56000000 cycles: 41351680 heartbeat IPC: 0.620081 cumulative IPC: 0.621558 (Simulation time: 0 hr 41 min 25 sec) 
Heartbeat CPU 0 instructions: 57000000 cycles: 43000314 heartbeat IPC: 0.606563 cumulative IPC: 0.619371 (Simulation time: 0 hr 42 min 15 sec) 
Heartbeat CPU 0 instructions: 58000001 cycles: 44616575 heartbeat IPC: 0.618713 cumulative IPC: 0.619289 (Simulation time: 0 hr 43 min 4 sec) 
Heartbeat CPU 0 instructions: 59000001 cycles: 46228099 heartbeat IPC: 0.620531 cumulative IPC: 0.619426 (Simulation time: 0 hr 43 min 55 sec) 
Heartbeat CPU 0 instructions: 60000000 cycles: 47856363 heartbeat IPC: 0.61415 cumulative IPC: 0.618895 (Simulation time: 0 hr 44 min 42 sec) 
Heartbeat CPU 0 instructions: 61000001 cycles: 49437929 heartbeat IPC: 0.632285 cumulative IPC: 0.620088 (Simulation time: 0 hr 45 min 32 sec) 
Heartbeat CPU 0 instructions: 62000000 cycles: 51024612 heartbeat IPC: 0.630245 cumulative IPC: 0.620922 (Simulation time: 0 hr 46 min 22 sec) 
Heartbeat CPU 0 instructions: 63000003 cycles: 52639692 heartbeat IPC: 0.619166 cumulative IPC: 0.620787 (Simulation time: 0 hr 47 min 12 sec) 
Heartbeat CPU 0 instructions: 64000000 cycles: 54256355 heartbeat IPC: 0.618556 cumulative IPC: 0.620627 (Simulation time: 0 hr 48 min 2 sec) 
Heartbeat CPU 0 instructions: 65000003 cycles: 55886807 heartbeat IPC: 0.613329 cumulative IPC: 0.620135 (Simulation time: 0 hr 48 min 52 sec) 
Heartbeat CPU 0 instructions: 66000000 cycles: 57472553 heartbeat IPC: 0.630616 cumulative IPC: 0.62078 (Simulation time: 0 hr 49 min 41 sec) 
Heartbeat CPU 0 instructions: 67000000 cycles: 59072466 heartbeat IPC: 0.625034 cumulative IPC: 0.621029 (Simulation time: 0 hr 50 min 31 sec) 
Heartbeat CPU 0 instructions: 68000000 cycles: 60674229 heartbeat IPC: 0.624312 cumulative IPC: 0.62121 (Simulation time: 0 hr 51 min 22 sec) 
Heartbeat CPU 0 instructions: 69000000 cycles: 62257000 heartbeat IPC: 0.631803 cumulative IPC: 0.621759 (Simulation time: 0 hr 52 min 9 sec) 
Heartbeat CPU 0 instructions: 70000002 cycles: 63888210 heartbeat IPC: 0.613043 cumulative IPC: 0.621317 (Simulation time: 0 hr 52 min 58 sec) 
Heartbeat CPU 0 instructions: 71000002 cycles: 65553172 heartbeat IPC: 0.600614 cumulative IPC: 0.620299 (Simulation time: 0 hr 53 min 49 sec) 
Heartbeat CPU 0 instructions: 72000000 cycles: 67288663 heartbeat IPC: 0.576205 cumulative IPC: 0.618149 (Simulation time: 0 hr 54 min 40 sec) 
Heartbeat CPU 0 instructions: 73000000 cycles: 68953771 heartbeat IPC: 0.600562 cumulative IPC: 0.617363 (Simulation time: 0 hr 55 min 36 sec) 
Heartbeat CPU 0 instructions: 74000001 cycles: 70634179 heartbeat IPC: 0.595094 cumulative IPC: 0.616402 (Simulation time: 0 hr 56 min 30 sec) 
Heartbeat CPU 0 instructions: 75000003 cycles: 72303520 heartbeat IPC: 0.59904 cumulative IPC: 0.615688 (Simulation time: 0 hr 57 min 22 sec) 
Heartbeat CPU 0 instructions: 76000000 cycles: 73972066 heartbeat IPC: 0.599322 cumulative IPC: 0.615042 (Simulation time: 0 hr 58 min 15 sec) 
Heartbeat CPU 0 instructions: 77000000 cycles: 75644819 heartbeat IPC: 0.597817 cumulative IPC: 0.614386 (Simulation time: 0 hr 59 min 7 sec) 
Heartbeat CPU 0 instructions: 78000001 cycles: 77314001 heartbeat IPC: 0.599096 cumulative IPC: 0.613827 (Simulation time: 1 hr 0 min 0 sec) 
Heartbeat CPU 0 instructions: 79000003 cycles: 78987925 heartbeat IPC: 0.5974 cumulative IPC: 0.613245 (Simulation time: 1 hr 0 min 51 sec) 
Heartbeat CPU 0 instructions: 80000000 cycles: 80681058 heartbeat IPC: 0.590619 cumulative IPC: 0.612463 (Simulation time: 1 hr 1 min 41 sec) 
Heartbeat CPU 0 instructions: 81000001 cycles: 82367725 heartbeat IPC: 0.592886 cumulative IPC: 0.611812 (Simulation time: 1 hr 2 min 32 sec) 
Heartbeat CPU 0 instructions: 82000000 cycles: 84054864 heartbeat IPC: 0.592719 cumulative IPC: 0.611196 (Simulation time: 1 hr 3 min 25 sec) 
Heartbeat CPU 0 instructions: 83000001 cycles: 85729214 heartbeat IPC: 0.597247 cumulative IPC: 0.610764 (Simulation time: 1 hr 4 min 15 sec) 
Heartbeat CPU 0 instructions: 84000000 cycles: 87412049 heartbeat IPC: 0.594235 cumulative IPC: 0.610265 (Simulation time: 1 hr 5 min 2 sec) 
Heartbeat CPU 0 instructions: 85000000 cycles: 89093315 heartbeat IPC: 0.59479 cumulative IPC: 0.609811 (Simulation time: 1 hr 5 min 49 sec) 
Heartbeat CPU 0 instructions: 86000000 cycles: 90765214 heartbeat IPC: 0.598122 cumulative IPC: 0.609481 (Simulation time: 1 hr 6 min 37 sec) 
Heartbeat CPU 0 instructions: 87000001 cycles: 92456365 heartbeat IPC: 0.591314 cumulative IPC: 0.608975 (Simulation time: 1 hr 7 min 20 sec) 
Heartbeat CPU 0 instructions: 88000000 cycles: 94138096 heartbeat IPC: 0.594625 cumulative IPC: 0.608588 (Simulation time: 1 hr 8 min 10 sec) 
Heartbeat CPU 0 instructions: 89000003 cycles: 95829992 heartbeat IPC: 0.591055 cumulative IPC: 0.608126 (Simulation time: 1 hr 8 min 55 sec) 
Heartbeat CPU 0 instructions: 90000000 cycles: 97520029 heartbeat IPC: 0.591701 cumulative IPC: 0.607704 (Simulation time: 1 hr 9 min 44 sec) 
Heartbeat CPU 0 instructions: 91000001 cycles: 99205142 heartbeat IPC: 0.593433 cumulative IPC: 0.607348 (Simulation time: 1 hr 10 min 29 sec) 
Heartbeat CPU 0 instructions: 92000000 cycles: 100896030 heartbeat IPC: 0.591405 cumulative IPC: 0.606958 (Simulation time: 1 hr 11 min 8 sec) 
Heartbeat CPU 0 instructions: 93000003 cycles: 102576543 heartbeat IPC: 0.595058 cumulative IPC: 0.606676 (Simulation time: 1 hr 11 min 50 sec) 
Heartbeat CPU 0 instructions: 94000002 cycles: 104252582 heartbeat IPC: 0.596644 cumulative IPC: 0.606444 (Simulation time: 1 hr 12 min 33 sec) 
Heartbeat CPU 0 instructions: 95000000 cycles: 105944021 heartbeat IPC: 0.591211 cumulative IPC: 0.606097 (Simulation time: 1 hr 13 min 15 sec) 
Heartbeat CPU 0 instructions: 96000000 cycles: 107621457 heartbeat IPC: 0.596148 cumulative IPC: 0.605878 (Simulation time: 1 hr 13 min 53 sec) 
Heartbeat CPU 0 instructions: 97000003 cycles: 109303451 heartbeat IPC: 0.594534 cumulative IPC: 0.605632 (Simulation time: 1 hr 14 min 33 sec) 
Heartbeat CPU 0 instructions: 98000000 cycles: 110981270 heartbeat IPC: 0.59601 cumulative IPC: 0.605428 (Simulation time: 1 hr 15 min 13 sec) 
Heartbeat CPU 0 instructions: 99000001 cycles: 112659841 heartbeat IPC: 0.595745 cumulative IPC: 0.605227 (Simulation time: 1 hr 15 min 56 sec) 
Heartbeat CPU 0 instructions: 100000000 cycles: 114349251 heartbeat IPC: 0.591922 cumulative IPC: 0.604955 (Simulation time: 1 hr 16 min 36 sec) 
Heartbeat CPU 0 instructions: 101000001 cycles: 116026106 heartbeat IPC: 0.596355 cumulative IPC: 0.604784 (Simulation time: 1 hr 17 min 17 sec) 
Heartbeat CPU 0 instructions: 102000002 cycles: 117705563 heartbeat IPC: 0.595431 cumulative IPC: 0.604602 (Simulation time: 1 hr 17 min 58 sec) 
Heartbeat CPU 0 instructions: 103000000 cycles: 119381114 heartbeat IPC: 0.596817 cumulative IPC: 0.604453 (Simulation time: 1 hr 18 min 37 sec) 
Heartbeat CPU 0 instructions: 104000000 cycles: 121069512 heartbeat IPC: 0.592277 cumulative IPC: 0.604223 (Simulation time: 1 hr 19 min 14 sec) 
Heartbeat CPU 0 instructions: 105000000 cycles: 122747995 heartbeat IPC: 0.595776 cumulative IPC: 0.604067 (Simulation time: 1 hr 19 min 54 sec) 
Heartbeat CPU 0 instructions: 106000002 cycles: 124420535 heartbeat IPC: 0.597894 cumulative IPC: 0.603956 (Simulation time: 1 hr 20 min 34 sec) 
Heartbeat CPU 0 instructions: 107000000 cycles: 126112544 heartbeat IPC: 0.591012 cumulative IPC: 0.603724 (Simulation time: 1 hr 21 min 18 sec) 
Heartbeat CPU 0 instructions: 108000000 cycles: 127794845 heartbeat IPC: 0.594424 cumulative IPC: 0.603561 (Simulation time: 1 hr 22 min 2 sec) 
Heartbeat CPU 0 instructions: 109000003 cycles: 129478989 heartbeat IPC: 0.593775 cumulative IPC: 0.603393 (Simulation time: 1 hr 22 min 47 sec) 
Heartbeat CPU 0 instructions: 110000001 cycles: 131166453 heartbeat IPC: 0.592604 cumulative IPC: 0.603209 (Simulation time: 1 hr 23 min 24 sec) 
Heartbeat CPU 0 instructions: 111000001 cycles: 132843043 heartbeat IPC: 0.596449 cumulative IPC: 0.603097 (Simulation time: 1 hr 23 min 57 sec) 
Heartbeat CPU 0 instructions: 112000000 cycles: 134525861 heartbeat IPC: 0.594241 cumulative IPC: 0.602952 (Simulation time: 1 hr 24 min 29 sec) 
Heartbeat CPU 0 instructions: 113000002 cycles: 136205839 heartbeat IPC: 0.595247 cumulative IPC: 0.602829 (Simulation time: 1 hr 25 min 0 sec) 
Heartbeat CPU 0 instructions: 114000002 cycles: 137889903 heartbeat IPC: 0.593802 cumulative IPC: 0.602685 (Simulation time: 1 hr 25 min 30 sec) 
Heartbeat CPU 0 instructions: 115000002 cycles: 139576164 heartbeat IPC: 0.593028 cumulative IPC: 0.602535 (Simulation time: 1 hr 25 min 59 sec) 
Heartbeat CPU 0 instructions: 116000000 cycles: 141255821 heartbeat IPC: 0.595358 cumulative IPC: 0.602425 (Simulation time: 1 hr 26 min 30 sec) 
Heartbeat CPU 0 instructions: 117000001 cycles: 142935215 heartbeat IPC: 0.595454 cumulative IPC: 0.602319 (Simulation time: 1 hr 26 min 58 sec) 
Heartbeat CPU 0 instructions: 118000002 cycles: 144620566 heartbeat IPC: 0.593349 cumulative IPC: 0.602185 (Simulation time: 1 hr 27 min 25 sec) 
Heartbeat CPU 0 instructions: 119000001 cycles: 146303087 heartbeat IPC: 0.594346 cumulative IPC: 0.60207 (Simulation time: 1 hr 27 min 55 sec) 
Heartbeat CPU 0 instructions: 120000000 cycles: 148590559 heartbeat IPC: 0.437163 cumulative IPC: 0.598843 (Simulation time: 1 hr 28 min 29 sec) 
Heartbeat CPU 0 instructions: 121000000 cycles: 157419116 heartbeat IPC: 0.113269 cumulative IPC: 0.564744 (Simulation time: 1 hr 29 min 26 sec) 
Heartbeat CPU 0 instructions: 122000002 cycles: 166219788 heartbeat IPC: 0.113628 cumulative IPC: 0.535231 (Simulation time: 1 hr 30 min 21 sec) 
Heartbeat CPU 0 instructions: 123000002 cycles: 174968358 heartbeat IPC: 0.114304 cumulative IPC: 0.509528 (Simulation time: 1 hr 31 min 11 sec) 
Heartbeat CPU 0 instructions: 124000000 cycles: 183793165 heartbeat IPC: 0.113317 cumulative IPC: 0.486539 (Simulation time: 1 hr 31 min 57 sec) 
Heartbeat CPU 0 instructions: 125000001 cycles: 186433337 heartbeat IPC: 0.378764 cumulative IPC: 0.4847 (Simulation time: 1 hr 32 min 24 sec) 
Heartbeat CPU 0 instructions: 126000003 cycles: 188025492 heartbeat IPC: 0.628081 cumulative IPC: 0.486161 (Simulation time: 1 hr 32 min 48 sec) 
Heartbeat CPU 0 instructions: 127000000 cycles: 189607715 heartbeat IPC: 0.63202 cumulative IPC: 0.487622 (Simulation time: 1 hr 33 min 13 sec) 
Heartbeat CPU 0 instructions: 128000000 cycles: 191193667 heartbeat IPC: 0.630536 cumulative IPC: 0.489043 (Simulation time: 1 hr 33 min 36 sec) 
Heartbeat CPU 0 instructions: 129000001 cycles: 192777249 heartbeat IPC: 0.63148 cumulative IPC: 0.490443 (Simulation time: 1 hr 33 min 58 sec) 
Heartbeat CPU 0 instructions: 130000003 cycles: 194369455 heartbeat IPC: 0.628061 cumulative IPC: 0.49179 (Simulation time: 1 hr 34 min 18 sec) 
Heartbeat CPU 0 instructions: 131000001 cycles: 195974743 heartbeat IPC: 0.62294 cumulative IPC: 0.493072 (Simulation time: 1 hr 34 min 38 sec) 
Heartbeat CPU 0 instructions: 132000000 cycles: 197582403 heartbeat IPC: 0.622021 cumulative IPC: 0.494322 (Simulation time: 1 hr 34 min 57 sec) 
Heartbeat CPU 0 instructions: 133000002 cycles: 199178224 heartbeat IPC: 0.626638 cumulative IPC: 0.495582 (Simulation time: 1 hr 35 min 16 sec) 
Heartbeat CPU 0 instructions: 134000000 cycles: 200777832 heartbeat IPC: 0.625152 cumulative IPC: 0.496808 (Simulation time: 1 hr 35 min 33 sec) 
Heartbeat CPU 0 instructions: 135000003 cycles: 202381137 heartbeat IPC: 0.623713 cumulative IPC: 0.498 (Simulation time: 1 hr 35 min 50 sec) 
Heartbeat CPU 0 instructions: 136000000 cycles: 203986442 heartbeat IPC: 0.622933 cumulative IPC: 0.499164 (Simulation time: 1 hr 36 min 6 sec) 
Heartbeat CPU 0 instructions: 137000003 cycles: 205586704 heartbeat IPC: 0.6249 cumulative IPC: 0.500322 (Simulation time: 1 hr 36 min 22 sec) 
Heartbeat CPU 0 instructions: 138000000 cycles: 207192416 heartbeat IPC: 0.622775 cumulative IPC: 0.501442 (Simulation time: 1 hr 36 min 38 sec) 
Heartbeat CPU 0 instructions: 139000002 cycles: 208797575 heartbeat IPC: 0.622993 cumulative IPC: 0.502544 (Simulation time: 1 hr 36 min 53 sec) 
Heartbeat CPU 0 instructions: 140000000 cycles: 210395313 heartbeat IPC: 0.625884 cumulative IPC: 0.503646 (Simulation time: 1 hr 37 min 7 sec) 
Heartbeat CPU 0 instructions: 141000000 cycles: 212004455 heartbeat IPC: 0.621449 cumulative IPC: 0.504698 (Simulation time: 1 hr 37 min 21 sec) 
Heartbeat CPU 0 instructions: 142000001 cycles: 213602545 heartbeat IPC: 0.625748 cumulative IPC: 0.505761 (Simulation time: 1 hr 37 min 34 sec) 
Heartbeat CPU 0 instructions: 143000001 cycles: 215202355 heartbeat IPC: 0.625074 cumulative IPC: 0.506801 (Simulation time: 1 hr 37 min 46 sec) 
Heartbeat CPU 0 instructions: 144000000 cycles: 216800933 heartbeat IPC: 0.625555 cumulative IPC: 0.507827 (Simulation time: 1 hr 37 min 58 sec) 
Heartbeat CPU 0 instructions: 145000000 cycles: 218395828 heartbeat IPC: 0.627001 cumulative IPC: 0.508845 (Simulation time: 1 hr 38 min 10 sec) 
Heartbeat CPU 0 instructions: 146000002 cycles: 220000167 heartbeat IPC: 0.623311 cumulative IPC: 0.50982 (Simulation time: 1 hr 38 min 20 sec) 
Heartbeat CPU 0 instructions: 147000002 cycles: 221598464 heartbeat IPC: 0.625666 cumulative IPC: 0.510795 (Simulation time: 1 hr 38 min 29 sec) 
Heartbeat CPU 0 instructions: 148000000 cycles: 223199544 heartbeat IPC: 0.624577 cumulative IPC: 0.511747 (Simulation time: 1 hr 38 min 38 sec) 
Heartbeat CPU 0 instructions: 149000000 cycles: 224807104 heartbeat IPC: 0.622061 cumulative IPC: 0.512665 (Simulation time: 1 hr 38 min 47 sec) 
Heartbeat CPU 0 instructions: 150000002 cycles: 226414535 heartbeat IPC: 0.622112 cumulative IPC: 0.513568 (Simulation time: 1 hr 38 min 55 sec) 
Finished CPU 0 instructions: 100000002 cycles: 194716006 cummulative IPC: 0.513568 (Simulation time: 1 hr 38 min 55 sec) 

ChampSim completed all CPUs

Region of Interest Statistics

CPU 0 cummulative IPC: 0.513568 instructions: 100000002 cycles: 194716006
LLC TOTAL     ACCESS:    5929438  HIT:    1096356  MISS:    4833082
LLC LOAD      ACCESS:    1303378  HIT:     212779  MISS:    1090599
LLC RFO       ACCESS:         26  HIT:          1  MISS:         25
LLC PREFETCH  ACCESS:    3084053  HIT:     401821  MISS:    2682232
LLC WRITEBACK ACCESS:    1541981  HIT:     481755  MISS:    1060226
OPTgen accesses: 22705
OPTgen hits: 7395
OPTgen hit rate: 32.5699


