
*** ChampSim Multicore Out-of-Order Simulator ***

Warmup Instructions: 50000000
Simulation Instructions: 100000000
Configuration: 2
Number of CPUs: 1
LLC sets: 2048
LLC ways: 16
Off-chip DRAM Channels: 1 Width: 64-bit Data Rate: 1600 MT/s

CPU 0 runs /datasets/cs240c-wi22-a00-public/data/Assignment2-gz/sphinx3_2520B.trace.gz
CPU 0 L1D next line prefetcher
CPU 0 L2C IP-based stride prefetcher
Initialize Hawkeye state
Heartbeat CPU 0 instructions: 1000003 cycles: 338965 heartbeat IPC: 2.95017 cumulative IPC: 2.95017 (Simulation time: 0 hr 0 min 40 sec) 
Heartbeat CPU 0 instructions: 2000000 cycles: 737242 heartbeat IPC: 2.51081 cumulative IPC: 2.71281 (Simulation time: 0 hr 1 min 23 sec) 
Heartbeat CPU 0 instructions: 3000003 cycles: 1185235 heartbeat IPC: 2.23218 cumulative IPC: 2.53115 (Simulation time: 0 hr 2 min 1 sec) 
Heartbeat CPU 0 instructions: 4000000 cycles: 1524261 heartbeat IPC: 2.94962 cumulative IPC: 2.62422 (Simulation time: 0 hr 2 min 43 sec) 
Heartbeat CPU 0 instructions: 5000001 cycles: 1902377 heartbeat IPC: 2.64469 cumulative IPC: 2.62829 (Simulation time: 0 hr 3 min 28 sec) 
Heartbeat CPU 0 instructions: 6000001 cycles: 2367796 heartbeat IPC: 2.1486 cumulative IPC: 2.534 (Simulation time: 0 hr 4 min 12 sec) 
Heartbeat CPU 0 instructions: 7000001 cycles: 2706737 heartbeat IPC: 2.95037 cumulative IPC: 2.58614 (Simulation time: 0 hr 4 min 53 sec) 
Heartbeat CPU 0 instructions: 8000000 cycles: 3055748 heartbeat IPC: 2.86524 cumulative IPC: 2.61802 (Simulation time: 0 hr 5 min 34 sec) 
Heartbeat CPU 0 instructions: 9000000 cycles: 3509134 heartbeat IPC: 2.20563 cumulative IPC: 2.56474 (Simulation time: 0 hr 6 min 15 sec) 
Heartbeat CPU 0 instructions: 10000000 cycles: 3859294 heartbeat IPC: 2.85584 cumulative IPC: 2.59115 (Simulation time: 0 hr 6 min 52 sec) 
Heartbeat CPU 0 instructions: 11000003 cycles: 4204072 heartbeat IPC: 2.90043 cumulative IPC: 2.61651 (Simulation time: 0 hr 7 min 31 sec) 
Heartbeat CPU 0 instructions: 12000000 cycles: 4648691 heartbeat IPC: 2.24911 cumulative IPC: 2.58137 (Simulation time: 0 hr 8 min 14 sec) 
Heartbeat CPU 0 instructions: 13000000 cycles: 5008290 heartbeat IPC: 2.78088 cumulative IPC: 2.5957 (Simulation time: 0 hr 8 min 55 sec) 
Heartbeat CPU 0 instructions: 14000002 cycles: 5350991 heartbeat IPC: 2.918 cumulative IPC: 2.61634 (Simulation time: 0 hr 9 min 38 sec) 
Heartbeat CPU 0 instructions: 15000003 cycles: 5790258 heartbeat IPC: 2.27652 cumulative IPC: 2.59056 (Simulation time: 0 hr 10 min 22 sec) 
Heartbeat CPU 0 instructions: 16000000 cycles: 6157115 heartbeat IPC: 2.72585 cumulative IPC: 2.59862 (Simulation time: 0 hr 11 min 1 sec) 
Heartbeat CPU 0 instructions: 17000000 cycles: 6498520 heartbeat IPC: 2.92907 cumulative IPC: 2.61598 (Simulation time: 0 hr 11 min 39 sec) 
Heartbeat CPU 0 instructions: 18000002 cycles: 6932821 heartbeat IPC: 2.30256 cumulative IPC: 2.59635 (Simulation time: 0 hr 12 min 22 sec) 
Heartbeat CPU 0 instructions: 19000000 cycles: 7304150 heartbeat IPC: 2.69302 cumulative IPC: 2.60126 (Simulation time: 0 hr 13 min 2 sec) 
Heartbeat CPU 0 instructions: 20000000 cycles: 7645336 heartbeat IPC: 2.93095 cumulative IPC: 2.61597 (Simulation time: 0 hr 13 min 41 sec) 
Heartbeat CPU 0 instructions: 21000001 cycles: 8089643 heartbeat IPC: 2.2507 cumulative IPC: 2.59591 (Simulation time: 0 hr 14 min 24 sec) 
Heartbeat CPU 0 instructions: 22000002 cycles: 8503735 heartbeat IPC: 2.41492 cumulative IPC: 2.5871 (Simulation time: 0 hr 15 min 11 sec) 
Heartbeat CPU 0 instructions: 23000001 cycles: 8942735 heartbeat IPC: 2.2779 cumulative IPC: 2.57192 (Simulation time: 0 hr 15 min 49 sec) 
Heartbeat CPU 0 instructions: 24000000 cycles: 9281759 heartbeat IPC: 2.94964 cumulative IPC: 2.58572 (Simulation time: 0 hr 16 min 31 sec) 
Heartbeat CPU 0 instructions: 25000003 cycles: 9668475 heartbeat IPC: 2.58588 cumulative IPC: 2.58572 (Simulation time: 0 hr 17 min 14 sec) 
Heartbeat CPU 0 instructions: 26000001 cycles: 10085323 heartbeat IPC: 2.39895 cumulative IPC: 2.578 (Simulation time: 0 hr 17 min 57 sec) 
Heartbeat CPU 0 instructions: 27000003 cycles: 10424297 heartbeat IPC: 2.95008 cumulative IPC: 2.5901 (Simulation time: 0 hr 18 min 40 sec) 
Heartbeat CPU 0 instructions: 28000000 cycles: 10827557 heartbeat IPC: 2.47978 cumulative IPC: 2.58599 (Simulation time: 0 hr 19 min 25 sec) 
Heartbeat CPU 0 instructions: 29000002 cycles: 11228094 heartbeat IPC: 2.49665 cumulative IPC: 2.58281 (Simulation time: 0 hr 20 min 4 sec) 
Heartbeat CPU 0 instructions: 30000002 cycles: 11567031 heartbeat IPC: 2.9504 cumulative IPC: 2.59358 (Simulation time: 0 hr 20 min 43 sec) 
Heartbeat CPU 0 instructions: 31000000 cycles: 11988265 heartbeat IPC: 2.37397 cumulative IPC: 2.58586 (Simulation time: 0 hr 21 min 18 sec) 
Heartbeat CPU 0 instructions: 32000000 cycles: 12369613 heartbeat IPC: 2.62228 cumulative IPC: 2.58698 (Simulation time: 0 hr 21 min 50 sec) 
Heartbeat CPU 0 instructions: 33000002 cycles: 12710370 heartbeat IPC: 2.93465 cumulative IPC: 2.59631 (Simulation time: 0 hr 22 min 27 sec) 
Heartbeat CPU 0 instructions: 34000000 cycles: 13150125 heartbeat IPC: 2.27399 cumulative IPC: 2.58553 (Simulation time: 0 hr 22 min 59 sec) 
Heartbeat CPU 0 instructions: 35000001 cycles: 13511401 heartbeat IPC: 2.76797 cumulative IPC: 2.5904 (Simulation time: 0 hr 23 min 30 sec) 
Heartbeat CPU 0 instructions: 36000000 cycles: 13853739 heartbeat IPC: 2.92109 cumulative IPC: 2.59858 (Simulation time: 0 hr 24 min 2 sec) 
Heartbeat CPU 0 instructions: 37000000 cycles: 14313213 heartbeat IPC: 2.1764 cumulative IPC: 2.58502 (Simulation time: 0 hr 24 min 35 sec) 
Heartbeat CPU 0 instructions: 38000000 cycles: 14653523 heartbeat IPC: 2.9385 cumulative IPC: 2.59323 (Simulation time: 0 hr 25 min 8 sec) 
Heartbeat CPU 0 instructions: 39000003 cycles: 14999831 heartbeat IPC: 2.88761 cumulative IPC: 2.60003 (Simulation time: 0 hr 25 min 42 sec) 
Heartbeat CPU 0 instructions: 40000000 cycles: 15458551 heartbeat IPC: 2.17997 cumulative IPC: 2.58756 (Simulation time: 0 hr 26 min 13 sec) 
Heartbeat CPU 0 instructions: 41000001 cycles: 15797587 heartbeat IPC: 2.94954 cumulative IPC: 2.59533 (Simulation time: 0 hr 26 min 46 sec) 
Heartbeat CPU 0 instructions: 42000003 cycles: 16145551 heartbeat IPC: 2.87387 cumulative IPC: 2.60134 (Simulation time: 0 hr 27 min 18 sec) 
Heartbeat CPU 0 instructions: 43000001 cycles: 16601789 heartbeat IPC: 2.19183 cumulative IPC: 2.59008 (Simulation time: 0 hr 27 min 49 sec) 
Heartbeat CPU 0 instructions: 44000000 cycles: 16940658 heartbeat IPC: 2.95099 cumulative IPC: 2.5973 (Simulation time: 0 hr 28 min 20 sec) 
Heartbeat CPU 0 instructions: 45000001 cycles: 17287741 heartbeat IPC: 2.88116 cumulative IPC: 2.603 (Simulation time: 0 hr 28 min 53 sec) 
Heartbeat CPU 0 instructions: 46000000 cycles: 17745400 heartbeat IPC: 2.18503 cumulative IPC: 2.59222 (Simulation time: 0 hr 29 min 25 sec) 
Heartbeat CPU 0 instructions: 47000003 cycles: 18084383 heartbeat IPC: 2.95001 cumulative IPC: 2.59893 (Simulation time: 0 hr 29 min 57 sec) 
Heartbeat CPU 0 instructions: 48000000 cycles: 18432910 heartbeat IPC: 2.86921 cumulative IPC: 2.60404 (Simulation time: 0 hr 30 min 30 sec) 
Heartbeat CPU 0 instructions: 49000002 cycles: 18887677 heartbeat IPC: 2.19893 cumulative IPC: 2.59428 (Simulation time: 0 hr 31 min 2 sec) 
Heartbeat CPU 0 instructions: 50000001 cycles: 19226658 heartbeat IPC: 2.95001 cumulative IPC: 2.60056 (Simulation time: 0 hr 31 min 35 sec) 

Warmup complete CPU 0 instructions: 50000001 cycles: 19226658 (Simulation time: 0 hr 31 min 35 sec) 

Heartbeat CPU 0 instructions: 51000001 cycles: 20047361 heartbeat IPC: 1.21847 cumulative IPC: 1.21847 (Simulation time: 0 hr 32 min 13 sec) 
Heartbeat CPU 0 instructions: 52000000 cycles: 20829690 heartbeat IPC: 1.27823 cumulative IPC: 1.24764 (Simulation time: 0 hr 32 min 49 sec) 
Heartbeat CPU 0 instructions: 53000001 cycles: 21671437 heartbeat IPC: 1.18801 cumulative IPC: 1.2271 (Simulation time: 0 hr 33 min 24 sec) 
Heartbeat CPU 0 instructions: 54000001 cycles: 22456727 heartbeat IPC: 1.27341 cumulative IPC: 1.23836 (Simulation time: 0 hr 34 min 2 sec) 
Heartbeat CPU 0 instructions: 55000000 cycles: 23233174 heartbeat IPC: 1.28792 cumulative IPC: 1.24797 (Simulation time: 0 hr 34 min 39 sec) 
Heartbeat CPU 0 instructions: 56000000 cycles: 24064472 heartbeat IPC: 1.20294 cumulative IPC: 1.24023 (Simulation time: 0 hr 35 min 17 sec) 
Heartbeat CPU 0 instructions: 57000000 cycles: 24953267 heartbeat IPC: 1.12512 cumulative IPC: 1.22236 (Simulation time: 0 hr 35 min 55 sec) 
Heartbeat CPU 0 instructions: 58000002 cycles: 26081665 heartbeat IPC: 0.886214 cumulative IPC: 1.16703 (Simulation time: 0 hr 36 min 33 sec) 
Heartbeat CPU 0 instructions: 59000001 cycles: 26884072 heartbeat IPC: 1.24625 cumulative IPC: 1.17533 (Simulation time: 0 hr 37 min 10 sec) 
Heartbeat CPU 0 instructions: 60000000 cycles: 27723890 heartbeat IPC: 1.19073 cumulative IPC: 1.17685 (Simulation time: 0 hr 37 min 46 sec) 
Heartbeat CPU 0 instructions: 61000001 cycles: 28504959 heartbeat IPC: 1.2803 cumulative IPC: 1.18556 (Simulation time: 0 hr 38 min 23 sec) 
Heartbeat CPU 0 instructions: 62000000 cycles: 29284232 heartbeat IPC: 1.28325 cumulative IPC: 1.19313 (Simulation time: 0 hr 38 min 59 sec) 
Heartbeat CPU 0 instructions: 63000002 cycles: 30099603 heartbeat IPC: 1.22644 cumulative IPC: 1.19563 (Simulation time: 0 hr 39 min 35 sec) 
Heartbeat CPU 0 instructions: 64000000 cycles: 30889920 heartbeat IPC: 1.26531 cumulative IPC: 1.20035 (Simulation time: 0 hr 40 min 8 sec) 
Heartbeat CPU 0 instructions: 65000003 cycles: 31668274 heartbeat IPC: 1.28477 cumulative IPC: 1.20563 (Simulation time: 0 hr 40 min 45 sec) 
Heartbeat CPU 0 instructions: 66000003 cycles: 32485235 heartbeat IPC: 1.22405 cumulative IPC: 1.20677 (Simulation time: 0 hr 41 min 22 sec) 
Heartbeat CPU 0 instructions: 67000003 cycles: 33304784 heartbeat IPC: 1.22018 cumulative IPC: 1.20755 (Simulation time: 0 hr 41 min 57 sec) 
Heartbeat CPU 0 instructions: 68000000 cycles: 34093715 heartbeat IPC: 1.26753 cumulative IPC: 1.21073 (Simulation time: 0 hr 42 min 35 sec) 
Heartbeat CPU 0 instructions: 69000003 cycles: 34922443 heartbeat IPC: 1.20667 cumulative IPC: 1.21052 (Simulation time: 0 hr 43 min 11 sec) 
Heartbeat CPU 0 instructions: 70000000 cycles: 35756273 heartbeat IPC: 1.19928 cumulative IPC: 1.20995 (Simulation time: 0 hr 43 min 49 sec) 
Heartbeat CPU 0 instructions: 71000002 cycles: 36563202 heartbeat IPC: 1.23927 cumulative IPC: 1.21131 (Simulation time: 0 hr 44 min 26 sec) 
Heartbeat CPU 0 instructions: 72000000 cycles: 37262792 heartbeat IPC: 1.42941 cumulative IPC: 1.21977 (Simulation time: 0 hr 45 min 2 sec) 
Heartbeat CPU 0 instructions: 73000003 cycles: 38026498 heartbeat IPC: 1.30941 cumulative IPC: 1.22341 (Simulation time: 0 hr 45 min 37 sec) 
Heartbeat CPU 0 instructions: 74000003 cycles: 38759852 heartbeat IPC: 1.3636 cumulative IPC: 1.22868 (Simulation time: 0 hr 46 min 11 sec) 
Heartbeat CPU 0 instructions: 75000002 cycles: 39531540 heartbeat IPC: 1.29586 cumulative IPC: 1.23123 (Simulation time: 0 hr 46 min 48 sec) 
Heartbeat CPU 0 instructions: 76000000 cycles: 40329678 heartbeat IPC: 1.25291 cumulative IPC: 1.23205 (Simulation time: 0 hr 47 min 22 sec) 
Heartbeat CPU 0 instructions: 77000003 cycles: 41079005 heartbeat IPC: 1.33453 cumulative IPC: 1.23557 (Simulation time: 0 hr 47 min 58 sec) 
Heartbeat CPU 0 instructions: 78000003 cycles: 41761318 heartbeat IPC: 1.4656 cumulative IPC: 1.24253 (Simulation time: 0 hr 48 min 34 sec) 
Heartbeat CPU 0 instructions: 79000003 cycles: 42536559 heartbeat IPC: 1.28992 cumulative IPC: 1.24411 (Simulation time: 0 hr 49 min 12 sec) 
Heartbeat CPU 0 instructions: 80000000 cycles: 43282221 heartbeat IPC: 1.34109 cumulative IPC: 1.24711 (Simulation time: 0 hr 49 min 49 sec) 
Heartbeat CPU 0 instructions: 81000001 cycles: 43970287 heartbeat IPC: 1.45335 cumulative IPC: 1.25285 (Simulation time: 0 hr 50 min 25 sec) 
Heartbeat CPU 0 instructions: 82000002 cycles: 44757360 heartbeat IPC: 1.27053 cumulative IPC: 1.25339 (Simulation time: 0 hr 51 min 2 sec) 
Heartbeat CPU 0 instructions: 83000003 cycles: 45498652 heartbeat IPC: 1.349 cumulative IPC: 1.25609 (Simulation time: 0 hr 51 min 41 sec) 
Heartbeat CPU 0 instructions: 84000000 cycles: 46191692 heartbeat IPC: 1.44291 cumulative IPC: 1.26089 (Simulation time: 0 hr 52 min 16 sec) 
Heartbeat CPU 0 instructions: 85000001 cycles: 46981872 heartbeat IPC: 1.26554 cumulative IPC: 1.26102 (Simulation time: 0 hr 52 min 53 sec) 
Heartbeat CPU 0 instructions: 86000000 cycles: 47688272 heartbeat IPC: 1.41563 cumulative IPC: 1.26486 (Simulation time: 0 hr 53 min 31 sec) 
Heartbeat CPU 0 instructions: 87000000 cycles: 48374651 heartbeat IPC: 1.45692 cumulative IPC: 1.26938 (Simulation time: 0 hr 54 min 6 sec) 
Heartbeat CPU 0 instructions: 88000000 cycles: 49160169 heartbeat IPC: 1.27305 cumulative IPC: 1.26948 (Simulation time: 0 hr 54 min 43 sec) 
Heartbeat CPU 0 instructions: 89000000 cycles: 49854216 heartbeat IPC: 1.44082 cumulative IPC: 1.27336 (Simulation time: 0 hr 55 min 18 sec) 
Heartbeat CPU 0 instructions: 90000001 cycles: 50540330 heartbeat IPC: 1.45749 cumulative IPC: 1.2774 (Simulation time: 0 hr 55 min 55 sec) 
Heartbeat CPU 0 instructions: 91000001 cycles: 51335181 heartbeat IPC: 1.2581 cumulative IPC: 1.27692 (Simulation time: 0 hr 56 min 29 sec) 
Heartbeat CPU 0 instructions: 92000000 cycles: 52020599 heartbeat IPC: 1.45896 cumulative IPC: 1.28072 (Simulation time: 0 hr 57 min 4 sec) 
Heartbeat CPU 0 instructions: 93000002 cycles: 52700923 heartbeat IPC: 1.46989 cumulative IPC: 1.28457 (Simulation time: 0 hr 57 min 40 sec) 
Heartbeat CPU 0 instructions: 94000000 cycles: 53514699 heartbeat IPC: 1.22884 cumulative IPC: 1.28325 (Simulation time: 0 hr 58 min 16 sec) 
Heartbeat CPU 0 instructions: 95000000 cycles: 54195120 heartbeat IPC: 1.46968 cumulative IPC: 1.28687 (Simulation time: 0 hr 58 min 53 sec) 
Heartbeat CPU 0 instructions: 96000000 cycles: 54910895 heartbeat IPC: 1.39709 cumulative IPC: 1.28908 (Simulation time: 0 hr 59 min 30 sec) 
Heartbeat CPU 0 instructions: 97000002 cycles: 56094751 heartbeat IPC: 0.844699 cumulative IPC: 1.27482 (Simulation time: 1 hr 0 min 8 sec) 
Heartbeat CPU 0 instructions: 98000003 cycles: 57022266 heartbeat IPC: 1.07815 cumulative IPC: 1.26999 (Simulation time: 1 hr 0 min 46 sec) 
Heartbeat CPU 0 instructions: 99000001 cycles: 57754039 heartbeat IPC: 1.36654 cumulative IPC: 1.27182 (Simulation time: 1 hr 1 min 22 sec) 
Heartbeat CPU 0 instructions: 100000000 cycles: 58458759 heartbeat IPC: 1.419 cumulative IPC: 1.27447 (Simulation time: 1 hr 1 min 57 sec) 
Heartbeat CPU 0 instructions: 101000001 cycles: 59847749 heartbeat IPC: 0.719948 cumulative IPC: 1.25551 (Simulation time: 1 hr 2 min 36 sec) 
Heartbeat CPU 0 instructions: 102000002 cycles: 60631693 heartbeat IPC: 1.2756 cumulative IPC: 1.25589 (Simulation time: 1 hr 3 min 12 sec) 
Heartbeat CPU 0 instructions: 103000001 cycles: 61359809 heartbeat IPC: 1.37341 cumulative IPC: 1.25792 (Simulation time: 1 hr 3 min 50 sec) 
Heartbeat CPU 0 instructions: 104000000 cycles: 62614717 heartbeat IPC: 0.79687 cumulative IPC: 1.24458 (Simulation time: 1 hr 4 min 28 sec) 
Heartbeat CPU 0 instructions: 105000002 cycles: 63427029 heartbeat IPC: 1.23106 cumulative IPC: 1.24433 (Simulation time: 1 hr 4 min 58 sec) 
Heartbeat CPU 0 instructions: 106000000 cycles: 64153828 heartbeat IPC: 1.37589 cumulative IPC: 1.24646 (Simulation time: 1 hr 5 min 30 sec) 
Heartbeat CPU 0 instructions: 107000001 cycles: 65235697 heartbeat IPC: 0.924327 cumulative IPC: 1.23889 (Simulation time: 1 hr 6 min 4 sec) 
Heartbeat CPU 0 instructions: 108000000 cycles: 66232255 heartbeat IPC: 1.00345 cumulative IPC: 1.2339 (Simulation time: 1 hr 6 min 41 sec) 
Heartbeat CPU 0 instructions: 109000003 cycles: 66971895 heartbeat IPC: 1.35201 cumulative IPC: 1.23573 (Simulation time: 1 hr 7 min 16 sec) 
Heartbeat CPU 0 instructions: 110000000 cycles: 67786840 heartbeat IPC: 1.22707 cumulative IPC: 1.23558 (Simulation time: 1 hr 7 min 47 sec) 
Heartbeat CPU 0 instructions: 111000001 cycles: 69025875 heartbeat IPC: 0.807081 cumulative IPC: 1.22492 (Simulation time: 1 hr 8 min 21 sec) 
Heartbeat CPU 0 instructions: 112000000 cycles: 69811611 heartbeat IPC: 1.27269 cumulative IPC: 1.22566 (Simulation time: 1 hr 8 min 55 sec) 
Heartbeat CPU 0 instructions: 113000000 cycles: 70538669 heartbeat IPC: 1.37541 cumulative IPC: 1.22778 (Simulation time: 1 hr 9 min 24 sec) 
Heartbeat CPU 0 instructions: 114000000 cycles: 71797143 heartbeat IPC: 0.794613 cumulative IPC: 1.21741 (Simulation time: 1 hr 9 min 59 sec) 
Heartbeat CPU 0 instructions: 115000000 cycles: 72605623 heartbeat IPC: 1.23689 cumulative IPC: 1.21771 (Simulation time: 1 hr 10 min 33 sec) 
Heartbeat CPU 0 instructions: 116000000 cycles: 73337443 heartbeat IPC: 1.36646 cumulative IPC: 1.21972 (Simulation time: 1 hr 11 min 2 sec) 
Heartbeat CPU 0 instructions: 117000001 cycles: 74401667 heartbeat IPC: 0.939653 cumulative IPC: 1.21432 (Simulation time: 1 hr 11 min 35 sec) 
Heartbeat CPU 0 instructions: 118000001 cycles: 75399872 heartbeat IPC: 1.0018 cumulative IPC: 1.21054 (Simulation time: 1 hr 12 min 5 sec) 
Heartbeat CPU 0 instructions: 119000001 cycles: 76137012 heartbeat IPC: 1.35659 cumulative IPC: 1.21243 (Simulation time: 1 hr 12 min 36 sec) 
Heartbeat CPU 0 instructions: 120000000 cycles: 76936388 heartbeat IPC: 1.25097 cumulative IPC: 1.21297 (Simulation time: 1 hr 13 min 6 sec) 
Heartbeat CPU 0 instructions: 121000003 cycles: 78141652 heartbeat IPC: 0.829696 cumulative IPC: 1.20513 (Simulation time: 1 hr 13 min 38 sec) 
Heartbeat CPU 0 instructions: 122000000 cycles: 78939791 heartbeat IPC: 1.25291 cumulative IPC: 1.20576 (Simulation time: 1 hr 14 min 7 sec) 
Heartbeat CPU 0 instructions: 123000003 cycles: 79670648 heartbeat IPC: 1.36826 cumulative IPC: 1.20773 (Simulation time: 1 hr 14 min 36 sec) 
Heartbeat CPU 0 instructions: 124000000 cycles: 80881614 heartbeat IPC: 0.825785 cumulative IPC: 1.20023 (Simulation time: 1 hr 15 min 6 sec) 
Heartbeat CPU 0 instructions: 125000000 cycles: 81755821 heartbeat IPC: 1.14389 cumulative IPC: 1.19944 (Simulation time: 1 hr 15 min 35 sec) 
Heartbeat CPU 0 instructions: 126000000 cycles: 82487896 heartbeat IPC: 1.36598 cumulative IPC: 1.20137 (Simulation time: 1 hr 16 min 3 sec) 
Heartbeat CPU 0 instructions: 127000000 cycles: 83503994 heartbeat IPC: 0.984157 cumulative IPC: 1.19793 (Simulation time: 1 hr 16 min 33 sec) 
Heartbeat CPU 0 instructions: 128000000 cycles: 84602614 heartbeat IPC: 0.910233 cumulative IPC: 1.1931 (Simulation time: 1 hr 17 min 5 sec) 
Heartbeat CPU 0 instructions: 129000000 cycles: 85346724 heartbeat IPC: 1.34389 cumulative IPC: 1.1948 (Simulation time: 1 hr 17 min 39 sec) 
Heartbeat CPU 0 instructions: 130000000 cycles: 86080996 heartbeat IPC: 1.36189 cumulative IPC: 1.19663 (Simulation time: 1 hr 18 min 7 sec) 
Heartbeat CPU 0 instructions: 131000002 cycles: 87379224 heartbeat IPC: 0.770282 cumulative IPC: 1.18851 (Simulation time: 1 hr 18 min 35 sec) 
Heartbeat CPU 0 instructions: 132000000 cycles: 88191165 heartbeat IPC: 1.23161 cumulative IPC: 1.18902 (Simulation time: 1 hr 19 min 0 sec) 
Heartbeat CPU 0 instructions: 133000000 cycles: 88926446 heartbeat IPC: 1.36002 cumulative IPC: 1.19082 (Simulation time: 1 hr 19 min 26 sec) 
Heartbeat CPU 0 instructions: 134000001 cycles: 90107113 heartbeat IPC: 0.84698 cumulative IPC: 1.18509 (Simulation time: 1 hr 19 min 56 sec) 
Heartbeat CPU 0 instructions: 135000002 cycles: 91034020 heartbeat IPC: 1.07886 cumulative IPC: 1.18372 (Simulation time: 1 hr 20 min 24 sec) 
Heartbeat CPU 0 instructions: 136000000 cycles: 91773289 heartbeat IPC: 1.35268 cumulative IPC: 1.18544 (Simulation time: 1 hr 20 min 54 sec) 
Heartbeat CPU 0 instructions: 137000002 cycles: 92710220 heartbeat IPC: 1.06732 cumulative IPC: 1.18394 (Simulation time: 1 hr 21 min 24 sec) 
Heartbeat CPU 0 instructions: 138000000 cycles: 94096295 heartbeat IPC: 0.72146 cumulative IPC: 1.17538 (Simulation time: 1 hr 21 min 53 sec) 
Heartbeat CPU 0 instructions: 139000000 cycles: 95197413 heartbeat IPC: 0.908168 cumulative IPC: 1.1715 (Simulation time: 1 hr 22 min 20 sec) 
Heartbeat CPU 0 instructions: 140000000 cycles: 96024495 heartbeat IPC: 1.20907 cumulative IPC: 1.17191 (Simulation time: 1 hr 22 min 46 sec) 
Heartbeat CPU 0 instructions: 141000003 cycles: 96783362 heartbeat IPC: 1.31776 cumulative IPC: 1.17334 (Simulation time: 1 hr 23 min 15 sec) 
Heartbeat CPU 0 instructions: 142000000 cycles: 97925365 heartbeat IPC: 0.875652 cumulative IPC: 1.16902 (Simulation time: 1 hr 23 min 40 sec) 
Heartbeat CPU 0 instructions: 143000003 cycles: 98887767 heartbeat IPC: 1.03907 cumulative IPC: 1.16745 (Simulation time: 1 hr 24 min 3 sec) 
Heartbeat CPU 0 instructions: 144000000 cycles: 99635009 heartbeat IPC: 1.33825 cumulative IPC: 1.16903 (Simulation time: 1 hr 24 min 24 sec) 
Heartbeat CPU 0 instructions: 145000000 cycles: 100510029 heartbeat IPC: 1.14283 cumulative IPC: 1.16875 (Simulation time: 1 hr 24 min 46 sec) 
Heartbeat CPU 0 instructions: 146000000 cycles: 101681619 heartbeat IPC: 0.853541 cumulative IPC: 1.16427 (Simulation time: 1 hr 25 min 7 sec) 
Heartbeat CPU 0 instructions: 147000003 cycles: 102498263 heartbeat IPC: 1.22453 cumulative IPC: 1.16486 (Simulation time: 1 hr 25 min 28 sec) 
Heartbeat CPU 0 instructions: 148000000 cycles: 103290655 heartbeat IPC: 1.262 cumulative IPC: 1.16578 (Simulation time: 1 hr 25 min 54 sec) 
Heartbeat CPU 0 instructions: 149000003 cycles: 104529111 heartbeat IPC: 0.807459 cumulative IPC: 1.16058 (Simulation time: 1 hr 26 min 15 sec) 
Heartbeat CPU 0 instructions: 150000001 cycles: 105374602 heartbeat IPC: 1.18274 cumulative IPC: 1.16079 (Simulation time: 1 hr 26 min 37 sec) 
Finished CPU 0 instructions: 100000000 cycles: 86147944 cummulative IPC: 1.16079 (Simulation time: 1 hr 26 min 37 sec) 

ChampSim completed all CPUs

Region of Interest Statistics

CPU 0 cummulative IPC: 1.16079 instructions: 100000000 cycles: 86147944
LLC TOTAL     ACCESS:    1520469  HIT:     894907  MISS:     625562
LLC LOAD      ACCESS:     160561  HIT:     131462  MISS:      29099
LLC RFO       ACCESS:     118677  HIT:     114679  MISS:       3998
LLC PREFETCH  ACCESS:    1108922  HIT:     516568  MISS:     592354
LLC WRITEBACK ACCESS:     132309  HIT:     132198  MISS:        111
OPTgen accesses: 6737
OPTgen hits: 6736
OPTgen hit rate: 99.9852


