
*** ChampSim Multicore Out-of-Order Simulator ***

Warmup Instructions: 50000000
Simulation Instructions: 100000000
Configuration: 2
Number of CPUs: 1
LLC sets: 2048
LLC ways: 16
Off-chip DRAM Channels: 1 Width: 64-bit Data Rate: 1600 MT/s

CPU 0 runs /datasets/cs240c-wi22-a00-public/data/Assignment2-gz/libquantum_1210B.trace.gz
CPU 0 L1D next line prefetcher
CPU 0 L2C IP-based stride prefetcher
Initialize Hawkeye state
Heartbeat CPU 0 instructions: 1000003 cycles: 314916 heartbeat IPC: 3.17546 cumulative IPC: 3.17546 (Simulation time: 0 hr 0 min 25 sec) 
Heartbeat CPU 0 instructions: 2000000 cycles: 630170 heartbeat IPC: 3.17204 cumulative IPC: 3.17375 (Simulation time: 0 hr 0 min 48 sec) 
Heartbeat CPU 0 instructions: 3000001 cycles: 945979 heartbeat IPC: 3.16647 cumulative IPC: 3.17132 (Simulation time: 0 hr 1 min 9 sec) 
Heartbeat CPU 0 instructions: 4000000 cycles: 1260333 heartbeat IPC: 3.18112 cumulative IPC: 3.17376 (Simulation time: 0 hr 1 min 31 sec) 
Heartbeat CPU 0 instructions: 5000001 cycles: 1576818 heartbeat IPC: 3.15971 cumulative IPC: 3.17094 (Simulation time: 0 hr 1 min 54 sec) 
Heartbeat CPU 0 instructions: 6000002 cycles: 1891318 heartbeat IPC: 3.17965 cumulative IPC: 3.17239 (Simulation time: 0 hr 2 min 15 sec) 
Heartbeat CPU 0 instructions: 7000001 cycles: 2206981 heartbeat IPC: 3.16793 cumulative IPC: 3.17175 (Simulation time: 0 hr 2 min 35 sec) 
Heartbeat CPU 0 instructions: 8000000 cycles: 2522385 heartbeat IPC: 3.17053 cumulative IPC: 3.1716 (Simulation time: 0 hr 2 min 58 sec) 
Heartbeat CPU 0 instructions: 9000002 cycles: 2837144 heartbeat IPC: 3.17704 cumulative IPC: 3.1722 (Simulation time: 0 hr 3 min 21 sec) 
Heartbeat CPU 0 instructions: 10000003 cycles: 3153454 heartbeat IPC: 3.16146 cumulative IPC: 3.17113 (Simulation time: 0 hr 3 min 44 sec) 
Heartbeat CPU 0 instructions: 11000001 cycles: 3467723 heartbeat IPC: 3.18198 cumulative IPC: 3.17211 (Simulation time: 0 hr 4 min 6 sec) 
Heartbeat CPU 0 instructions: 12000000 cycles: 3783792 heartbeat IPC: 3.16386 cumulative IPC: 3.17142 (Simulation time: 0 hr 4 min 29 sec) 
Heartbeat CPU 0 instructions: 13000003 cycles: 4264651 heartbeat IPC: 2.07962 cumulative IPC: 3.04832 (Simulation time: 0 hr 4 min 59 sec) 
Heartbeat CPU 0 instructions: 14000001 cycles: 4772750 heartbeat IPC: 1.96812 cumulative IPC: 2.93332 (Simulation time: 0 hr 5 min 27 sec) 
Heartbeat CPU 0 instructions: 15000001 cycles: 5279404 heartbeat IPC: 1.97373 cumulative IPC: 2.84123 (Simulation time: 0 hr 5 min 54 sec) 
Heartbeat CPU 0 instructions: 16000000 cycles: 5788628 heartbeat IPC: 1.96377 cumulative IPC: 2.76404 (Simulation time: 0 hr 6 min 23 sec) 
Heartbeat CPU 0 instructions: 17000000 cycles: 6300340 heartbeat IPC: 1.95422 cumulative IPC: 2.69827 (Simulation time: 0 hr 6 min 51 sec) 
Heartbeat CPU 0 instructions: 18000000 cycles: 6813181 heartbeat IPC: 1.94992 cumulative IPC: 2.64194 (Simulation time: 0 hr 7 min 19 sec) 
Heartbeat CPU 0 instructions: 19000000 cycles: 7323126 heartbeat IPC: 1.961 cumulative IPC: 2.59452 (Simulation time: 0 hr 7 min 48 sec) 
Heartbeat CPU 0 instructions: 20000000 cycles: 7831196 heartbeat IPC: 1.96823 cumulative IPC: 2.55389 (Simulation time: 0 hr 8 min 16 sec) 
Heartbeat CPU 0 instructions: 21000000 cycles: 8339286 heartbeat IPC: 1.96816 cumulative IPC: 2.5182 (Simulation time: 0 hr 8 min 44 sec) 
Heartbeat CPU 0 instructions: 22000003 cycles: 8847294 heartbeat IPC: 1.96848 cumulative IPC: 2.48664 (Simulation time: 0 hr 9 min 11 sec) 
Heartbeat CPU 0 instructions: 23000000 cycles: 9352298 heartbeat IPC: 1.98018 cumulative IPC: 2.45929 (Simulation time: 0 hr 9 min 39 sec) 
Heartbeat CPU 0 instructions: 24000000 cycles: 9862866 heartbeat IPC: 1.9586 cumulative IPC: 2.43337 (Simulation time: 0 hr 10 min 8 sec) 
Heartbeat CPU 0 instructions: 25000000 cycles: 10374319 heartbeat IPC: 1.95521 cumulative IPC: 2.4098 (Simulation time: 0 hr 10 min 34 sec) 
Heartbeat CPU 0 instructions: 26000000 cycles: 10886972 heartbeat IPC: 1.95064 cumulative IPC: 2.38818 (Simulation time: 0 hr 11 min 2 sec) 
Heartbeat CPU 0 instructions: 27000000 cycles: 11395325 heartbeat IPC: 1.96714 cumulative IPC: 2.36939 (Simulation time: 0 hr 11 min 30 sec) 
Heartbeat CPU 0 instructions: 28000000 cycles: 11881150 heartbeat IPC: 2.05835 cumulative IPC: 2.35667 (Simulation time: 0 hr 11 min 58 sec) 
Heartbeat CPU 0 instructions: 29000002 cycles: 12220214 heartbeat IPC: 2.9493 cumulative IPC: 2.37312 (Simulation time: 0 hr 12 min 23 sec) 
Heartbeat CPU 0 instructions: 30000001 cycles: 12559582 heartbeat IPC: 2.94665 cumulative IPC: 2.38861 (Simulation time: 0 hr 12 min 48 sec) 
Heartbeat CPU 0 instructions: 31000000 cycles: 12898996 heartbeat IPC: 2.94625 cumulative IPC: 2.40329 (Simulation time: 0 hr 13 min 14 sec) 
Heartbeat CPU 0 instructions: 32000000 cycles: 13238401 heartbeat IPC: 2.94633 cumulative IPC: 2.41721 (Simulation time: 0 hr 13 min 40 sec) 
Heartbeat CPU 0 instructions: 33000000 cycles: 13577811 heartbeat IPC: 2.94629 cumulative IPC: 2.43044 (Simulation time: 0 hr 14 min 6 sec) 
Heartbeat CPU 0 instructions: 34000002 cycles: 13917221 heartbeat IPC: 2.9463 cumulative IPC: 2.44302 (Simulation time: 0 hr 14 min 31 sec) 
Heartbeat CPU 0 instructions: 35000001 cycles: 14256633 heartbeat IPC: 2.94627 cumulative IPC: 2.455 (Simulation time: 0 hr 14 min 56 sec) 
Heartbeat CPU 0 instructions: 36000000 cycles: 14595999 heartbeat IPC: 2.94667 cumulative IPC: 2.46643 (Simulation time: 0 hr 15 min 21 sec) 
Heartbeat CPU 0 instructions: 37000003 cycles: 14935386 heartbeat IPC: 2.9465 cumulative IPC: 2.47734 (Simulation time: 0 hr 15 min 47 sec) 
Heartbeat CPU 0 instructions: 38000002 cycles: 15274795 heartbeat IPC: 2.94629 cumulative IPC: 2.48776 (Simulation time: 0 hr 16 min 13 sec) 
Heartbeat CPU 0 instructions: 39000001 cycles: 15614204 heartbeat IPC: 2.94629 cumulative IPC: 2.49773 (Simulation time: 0 hr 16 min 40 sec) 
Heartbeat CPU 0 instructions: 40000000 cycles: 15953613 heartbeat IPC: 2.94629 cumulative IPC: 2.50727 (Simulation time: 0 hr 17 min 7 sec) 
Heartbeat CPU 0 instructions: 41000001 cycles: 16293025 heartbeat IPC: 2.94627 cumulative IPC: 2.51641 (Simulation time: 0 hr 17 min 34 sec) 
Heartbeat CPU 0 instructions: 42000000 cycles: 16632434 heartbeat IPC: 2.94629 cumulative IPC: 2.52519 (Simulation time: 0 hr 18 min 0 sec) 
Heartbeat CPU 0 instructions: 43000002 cycles: 16971844 heartbeat IPC: 2.9463 cumulative IPC: 2.53361 (Simulation time: 0 hr 18 min 26 sec) 
Heartbeat CPU 0 instructions: 44000000 cycles: 17311253 heartbeat IPC: 2.94629 cumulative IPC: 2.5417 (Simulation time: 0 hr 18 min 52 sec) 
Heartbeat CPU 0 instructions: 45000000 cycles: 17650662 heartbeat IPC: 2.9463 cumulative IPC: 2.54948 (Simulation time: 0 hr 19 min 19 sec) 
Heartbeat CPU 0 instructions: 46000003 cycles: 17990072 heartbeat IPC: 2.9463 cumulative IPC: 2.55697 (Simulation time: 0 hr 19 min 44 sec) 
Heartbeat CPU 0 instructions: 47000001 cycles: 18367322 heartbeat IPC: 2.65076 cumulative IPC: 2.55889 (Simulation time: 0 hr 20 min 10 sec) 
Heartbeat CPU 0 instructions: 48000000 cycles: 18874712 heartbeat IPC: 1.97087 cumulative IPC: 2.54309 (Simulation time: 0 hr 20 min 39 sec) 
Heartbeat CPU 0 instructions: 49000000 cycles: 19367506 heartbeat IPC: 2.02925 cumulative IPC: 2.53001 (Simulation time: 0 hr 21 min 8 sec) 
Heartbeat CPU 0 instructions: 50000001 cycles: 19868141 heartbeat IPC: 1.99747 cumulative IPC: 2.51659 (Simulation time: 0 hr 21 min 38 sec) 

Warmup complete CPU 0 instructions: 50000001 cycles: 19868141 (Simulation time: 0 hr 21 min 38 sec) 

Heartbeat CPU 0 instructions: 51000000 cycles: 22178873 heartbeat IPC: 0.432763 cumulative IPC: 0.432763 (Simulation time: 0 hr 22 min 17 sec) 
Heartbeat CPU 0 instructions: 52000000 cycles: 24505086 heartbeat IPC: 0.429883 cumulative IPC: 0.431318 (Simulation time: 0 hr 22 min 58 sec) 
Heartbeat CPU 0 instructions: 53000003 cycles: 26780318 heartbeat IPC: 0.439517 cumulative IPC: 0.434017 (Simulation time: 0 hr 23 min 37 sec) 
Heartbeat CPU 0 instructions: 54000003 cycles: 28892704 heartbeat IPC: 0.473398 cumulative IPC: 0.443235 (Simulation time: 0 hr 24 min 15 sec) 
Heartbeat CPU 0 instructions: 55000002 cycles: 31197449 heartbeat IPC: 0.433887 cumulative IPC: 0.441333 (Simulation time: 0 hr 24 min 53 sec) 
Heartbeat CPU 0 instructions: 56000000 cycles: 33516218 heartbeat IPC: 0.431262 cumulative IPC: 0.439622 (Simulation time: 0 hr 25 min 32 sec) 
Heartbeat CPU 0 instructions: 57000001 cycles: 35837804 heartbeat IPC: 0.43074 cumulative IPC: 0.438331 (Simulation time: 0 hr 26 min 11 sec) 
Heartbeat CPU 0 instructions: 58000000 cycles: 38150328 heartbeat IPC: 0.432428 cumulative IPC: 0.437584 (Simulation time: 0 hr 26 min 50 sec) 
Heartbeat CPU 0 instructions: 59000000 cycles: 40468126 heartbeat IPC: 0.431444 cumulative IPC: 0.436893 (Simulation time: 0 hr 27 min 29 sec) 
Heartbeat CPU 0 instructions: 60000000 cycles: 42760775 heartbeat IPC: 0.436177 cumulative IPC: 0.436822 (Simulation time: 0 hr 28 min 6 sec) 
Heartbeat CPU 0 instructions: 61000001 cycles: 45073702 heartbeat IPC: 0.432353 cumulative IPC: 0.436412 (Simulation time: 0 hr 28 min 44 sec) 
Heartbeat CPU 0 instructions: 62000000 cycles: 47370504 heartbeat IPC: 0.435388 cumulative IPC: 0.436326 (Simulation time: 0 hr 29 min 25 sec) 
Heartbeat CPU 0 instructions: 63000001 cycles: 49504064 heartbeat IPC: 0.468701 cumulative IPC: 0.438657 (Simulation time: 0 hr 29 min 59 sec) 
Heartbeat CPU 0 instructions: 64000000 cycles: 51632232 heartbeat IPC: 0.469887 cumulative IPC: 0.440749 (Simulation time: 0 hr 30 min 35 sec) 
Heartbeat CPU 0 instructions: 65000000 cycles: 53761835 heartbeat IPC: 0.469571 cumulative IPC: 0.44256 (Simulation time: 0 hr 31 min 11 sec) 
Heartbeat CPU 0 instructions: 66000001 cycles: 55915292 heartbeat IPC: 0.46437 cumulative IPC: 0.443863 (Simulation time: 0 hr 31 min 46 sec) 
Heartbeat CPU 0 instructions: 67000000 cycles: 58015210 heartbeat IPC: 0.476209 cumulative IPC: 0.445644 (Simulation time: 0 hr 32 min 18 sec) 
Heartbeat CPU 0 instructions: 68000000 cycles: 60172258 heartbeat IPC: 0.463597 cumulative IPC: 0.446604 (Simulation time: 0 hr 32 min 52 sec) 
Heartbeat CPU 0 instructions: 69000002 cycles: 62317895 heartbeat IPC: 0.466063 cumulative IPC: 0.447588 (Simulation time: 0 hr 33 min 27 sec) 
Heartbeat CPU 0 instructions: 70000001 cycles: 64454672 heartbeat IPC: 0.467994 cumulative IPC: 0.448566 (Simulation time: 0 hr 34 min 1 sec) 
Heartbeat CPU 0 instructions: 71000000 cycles: 66452960 heartbeat IPC: 0.500428 cumulative IPC: 0.450791 (Simulation time: 0 hr 34 min 36 sec) 
Heartbeat CPU 0 instructions: 72000000 cycles: 68237055 heartbeat IPC: 0.560508 cumulative IPC: 0.454838 (Simulation time: 0 hr 35 min 9 sec) 
Heartbeat CPU 0 instructions: 73000002 cycles: 70387959 heartbeat IPC: 0.464922 cumulative IPC: 0.455267 (Simulation time: 0 hr 35 min 44 sec) 
Heartbeat CPU 0 instructions: 74000002 cycles: 72501426 heartbeat IPC: 0.473156 cumulative IPC: 0.455985 (Simulation time: 0 hr 36 min 18 sec) 
Heartbeat CPU 0 instructions: 75000001 cycles: 74630012 heartbeat IPC: 0.469795 cumulative IPC: 0.456522 (Simulation time: 0 hr 36 min 53 sec) 
Heartbeat CPU 0 instructions: 76000000 cycles: 76770640 heartbeat IPC: 0.467152 cumulative IPC: 0.456922 (Simulation time: 0 hr 37 min 29 sec) 
Heartbeat CPU 0 instructions: 77000000 cycles: 78904473 heartbeat IPC: 0.46864 cumulative IPC: 0.457345 (Simulation time: 0 hr 38 min 4 sec) 
Heartbeat CPU 0 instructions: 78000002 cycles: 81071789 heartbeat IPC: 0.461401 cumulative IPC: 0.457489 (Simulation time: 0 hr 38 min 39 sec) 
Heartbeat CPU 0 instructions: 79000001 cycles: 83187482 heartbeat IPC: 0.472658 cumulative IPC: 0.457996 (Simulation time: 0 hr 39 min 14 sec) 
Heartbeat CPU 0 instructions: 80000000 cycles: 85356233 heartbeat IPC: 0.461094 cumulative IPC: 0.458099 (Simulation time: 0 hr 39 min 47 sec) 
Heartbeat CPU 0 instructions: 81000000 cycles: 87483591 heartbeat IPC: 0.470067 cumulative IPC: 0.458475 (Simulation time: 0 hr 40 min 23 sec) 
Heartbeat CPU 0 instructions: 82000000 cycles: 89605990 heartbeat IPC: 0.471165 cumulative IPC: 0.458861 (Simulation time: 0 hr 40 min 57 sec) 
Heartbeat CPU 0 instructions: 83000001 cycles: 91906031 heartbeat IPC: 0.434775 cumulative IPC: 0.458092 (Simulation time: 0 hr 41 min 34 sec) 
Heartbeat CPU 0 instructions: 84000000 cycles: 94394838 heartbeat IPC: 0.401799 cumulative IPC: 0.456212 (Simulation time: 0 hr 42 min 13 sec) 
Heartbeat CPU 0 instructions: 85000001 cycles: 96889845 heartbeat IPC: 0.400801 cumulative IPC: 0.454417 (Simulation time: 0 hr 42 min 51 sec) 
Heartbeat CPU 0 instructions: 86000001 cycles: 99379975 heartbeat IPC: 0.401585 cumulative IPC: 0.452763 (Simulation time: 0 hr 43 min 30 sec) 
Heartbeat CPU 0 instructions: 87000003 cycles: 101889634 heartbeat IPC: 0.398461 cumulative IPC: 0.451101 (Simulation time: 0 hr 44 min 10 sec) 
Heartbeat CPU 0 instructions: 88000000 cycles: 104401647 heartbeat IPC: 0.398086 cumulative IPC: 0.449526 (Simulation time: 0 hr 44 min 51 sec) 
Heartbeat CPU 0 instructions: 89000001 cycles: 106788684 heartbeat IPC: 0.41893 cumulative IPC: 0.448686 (Simulation time: 0 hr 45 min 30 sec) 
Heartbeat CPU 0 instructions: 90000000 cycles: 108911856 heartbeat IPC: 0.470993 cumulative IPC: 0.449218 (Simulation time: 0 hr 46 min 8 sec) 
Heartbeat CPU 0 instructions: 91000002 cycles: 111400098 heartbeat IPC: 0.401891 cumulative IPC: 0.447931 (Simulation time: 0 hr 46 min 45 sec) 
Heartbeat CPU 0 instructions: 92000000 cycles: 113877990 heartbeat IPC: 0.403568 cumulative IPC: 0.446762 (Simulation time: 0 hr 47 min 23 sec) 
Heartbeat CPU 0 instructions: 93000003 cycles: 116361863 heartbeat IPC: 0.402598 cumulative IPC: 0.445625 (Simulation time: 0 hr 48 min 1 sec) 
Heartbeat CPU 0 instructions: 94000000 cycles: 118873602 heartbeat IPC: 0.398129 cumulative IPC: 0.44442 (Simulation time: 0 hr 48 min 40 sec) 
Heartbeat CPU 0 instructions: 95000002 cycles: 121386858 heartbeat IPC: 0.397891 cumulative IPC: 0.443268 (Simulation time: 0 hr 49 min 18 sec) 
Heartbeat CPU 0 instructions: 96000000 cycles: 123906737 heartbeat IPC: 0.396844 cumulative IPC: 0.442144 (Simulation time: 0 hr 49 min 59 sec) 
Heartbeat CPU 0 instructions: 97000001 cycles: 126426441 heartbeat IPC: 0.396872 cumulative IPC: 0.441073 (Simulation time: 0 hr 50 min 38 sec) 
Heartbeat CPU 0 instructions: 98000002 cycles: 128902950 heartbeat IPC: 0.403795 cumulative IPC: 0.440226 (Simulation time: 0 hr 51 min 19 sec) 
Heartbeat CPU 0 instructions: 99000002 cycles: 130480385 heartbeat IPC: 0.633941 cumulative IPC: 0.442989 (Simulation time: 0 hr 51 min 57 sec) 
Heartbeat CPU 0 instructions: 100000000 cycles: 131907318 heartbeat IPC: 0.700802 cumulative IPC: 0.446272 (Simulation time: 0 hr 52 min 36 sec) 
Heartbeat CPU 0 instructions: 101000000 cycles: 133334032 heartbeat IPC: 0.700911 cumulative IPC: 0.449474 (Simulation time: 0 hr 53 min 16 sec) 
Heartbeat CPU 0 instructions: 102000003 cycles: 134760626 heartbeat IPC: 0.700972 cumulative IPC: 0.452597 (Simulation time: 0 hr 53 min 55 sec) 
Heartbeat CPU 0 instructions: 103000002 cycles: 136187222 heartbeat IPC: 0.700969 cumulative IPC: 0.455643 (Simulation time: 0 hr 54 min 31 sec) 
Heartbeat CPU 0 instructions: 104000000 cycles: 137613886 heartbeat IPC: 0.700934 cumulative IPC: 0.458615 (Simulation time: 0 hr 55 min 10 sec) 
Heartbeat CPU 0 instructions: 105000000 cycles: 139040600 heartbeat IPC: 0.700911 cumulative IPC: 0.461516 (Simulation time: 0 hr 55 min 45 sec) 
Heartbeat CPU 0 instructions: 106000001 cycles: 140437958 heartbeat IPC: 0.715637 cumulative IPC: 0.464461 (Simulation time: 0 hr 56 min 22 sec) 
Heartbeat CPU 0 instructions: 107000000 cycles: 141741457 heartbeat IPC: 0.767165 cumulative IPC: 0.467699 (Simulation time: 0 hr 56 min 58 sec) 
Heartbeat CPU 0 instructions: 108000000 cycles: 143143462 heartbeat IPC: 0.713264 cumulative IPC: 0.470492 (Simulation time: 0 hr 57 min 37 sec) 
Heartbeat CPU 0 instructions: 109000001 cycles: 144569223 heartbeat IPC: 0.701381 cumulative IPC: 0.473131 (Simulation time: 0 hr 58 min 18 sec) 
Heartbeat CPU 0 instructions: 110000000 cycles: 145992209 heartbeat IPC: 0.702747 cumulative IPC: 0.475722 (Simulation time: 0 hr 58 min 57 sec) 
Heartbeat CPU 0 instructions: 111000001 cycles: 147418809 heartbeat IPC: 0.700968 cumulative IPC: 0.478241 (Simulation time: 0 hr 59 min 38 sec) 
Heartbeat CPU 0 instructions: 112000000 cycles: 148845471 heartbeat IPC: 0.700936 cumulative IPC: 0.480705 (Simulation time: 1 hr 0 min 16 sec) 
Heartbeat CPU 0 instructions: 113000001 cycles: 150272202 heartbeat IPC: 0.700904 cumulative IPC: 0.483114 (Simulation time: 1 hr 0 min 52 sec) 
Heartbeat CPU 0 instructions: 114000000 cycles: 151698983 heartbeat IPC: 0.700878 cumulative IPC: 0.485471 (Simulation time: 1 hr 1 min 29 sec) 
Heartbeat CPU 0 instructions: 115000000 cycles: 153125574 heartbeat IPC: 0.700972 cumulative IPC: 0.487778 (Simulation time: 1 hr 2 min 9 sec) 
Heartbeat CPU 0 instructions: 116000000 cycles: 154552068 heartbeat IPC: 0.701019 cumulative IPC: 0.490036 (Simulation time: 1 hr 2 min 47 sec) 
Heartbeat CPU 0 instructions: 117000000 cycles: 155973610 heartbeat IPC: 0.703461 cumulative IPC: 0.492265 (Simulation time: 1 hr 3 min 25 sec) 
Heartbeat CPU 0 instructions: 118000000 cycles: 158173512 heartbeat IPC: 0.454566 cumulative IPC: 0.491666 (Simulation time: 1 hr 4 min 4 sec) 
Heartbeat CPU 0 instructions: 119000000 cycles: 160474276 heartbeat IPC: 0.434638 cumulative IPC: 0.490732 (Simulation time: 1 hr 4 min 42 sec) 
Heartbeat CPU 0 instructions: 120000000 cycles: 162778684 heartbeat IPC: 0.433951 cumulative IPC: 0.489817 (Simulation time: 1 hr 5 min 18 sec) 
Heartbeat CPU 0 instructions: 121000003 cycles: 165089120 heartbeat IPC: 0.43282 cumulative IPC: 0.48891 (Simulation time: 1 hr 5 min 52 sec) 
Heartbeat CPU 0 instructions: 122000000 cycles: 167407895 heartbeat IPC: 0.431261 cumulative IPC: 0.488004 (Simulation time: 1 hr 6 min 24 sec) 
Heartbeat CPU 0 instructions: 123000001 cycles: 169716966 heartbeat IPC: 0.433075 cumulative IPC: 0.487158 (Simulation time: 1 hr 7 min 2 sec) 
Heartbeat CPU 0 instructions: 124000000 cycles: 171847576 heartbeat IPC: 0.469349 cumulative IPC: 0.486908 (Simulation time: 1 hr 7 min 38 sec) 
Heartbeat CPU 0 instructions: 125000001 cycles: 174035827 heartbeat IPC: 0.456986 cumulative IPC: 0.486483 (Simulation time: 1 hr 8 min 11 sec) 
Heartbeat CPU 0 instructions: 126000001 cycles: 176341563 heartbeat IPC: 0.433701 cumulative IPC: 0.485705 (Simulation time: 1 hr 8 min 47 sec) 
Heartbeat CPU 0 instructions: 127000003 cycles: 178640929 heartbeat IPC: 0.434903 cumulative IPC: 0.48497 (Simulation time: 1 hr 9 min 18 sec) 
Heartbeat CPU 0 instructions: 128000000 cycles: 180962904 heartbeat IPC: 0.430667 cumulative IPC: 0.484187 (Simulation time: 1 hr 9 min 50 sec) 
Heartbeat CPU 0 instructions: 129000002 cycles: 183276227 heartbeat IPC: 0.432279 cumulative IPC: 0.483452 (Simulation time: 1 hr 10 min 19 sec) 
Heartbeat CPU 0 instructions: 130000002 cycles: 185577228 heartbeat IPC: 0.434593 cumulative IPC: 0.482774 (Simulation time: 1 hr 10 min 49 sec) 
Heartbeat CPU 0 instructions: 131000002 cycles: 187882890 heartbeat IPC: 0.433715 cumulative IPC: 0.482101 (Simulation time: 1 hr 11 min 21 sec) 
Heartbeat CPU 0 instructions: 132000000 cycles: 190206082 heartbeat IPC: 0.430441 cumulative IPC: 0.481396 (Simulation time: 1 hr 11 min 54 sec) 
Heartbeat CPU 0 instructions: 133000000 cycles: 192243057 heartbeat IPC: 0.490924 cumulative IPC: 0.481509 (Simulation time: 1 hr 12 min 26 sec) 
Heartbeat CPU 0 instructions: 134000003 cycles: 193696596 heartbeat IPC: 0.687978 cumulative IPC: 0.483235 (Simulation time: 1 hr 13 min 1 sec) 
Heartbeat CPU 0 instructions: 135000002 cycles: 195206520 heartbeat IPC: 0.662284 cumulative IPC: 0.484777 (Simulation time: 1 hr 13 min 37 sec) 
Heartbeat CPU 0 instructions: 136000000 cycles: 196716514 heartbeat IPC: 0.662253 cumulative IPC: 0.486292 (Simulation time: 1 hr 14 min 10 sec) 
Heartbeat CPU 0 instructions: 137000000 cycles: 198226557 heartbeat IPC: 0.662233 cumulative IPC: 0.487782 (Simulation time: 1 hr 14 min 43 sec) 
Heartbeat CPU 0 instructions: 138000001 cycles: 199736680 heartbeat IPC: 0.662198 cumulative IPC: 0.489246 (Simulation time: 1 hr 15 min 17 sec) 
Heartbeat CPU 0 instructions: 139000000 cycles: 201246600 heartbeat IPC: 0.662286 cumulative IPC: 0.490687 (Simulation time: 1 hr 15 min 48 sec) 
Heartbeat CPU 0 instructions: 140000000 cycles: 202753084 heartbeat IPC: 0.663797 cumulative IPC: 0.492113 (Simulation time: 1 hr 16 min 17 sec) 
Heartbeat CPU 0 instructions: 141000001 cycles: 204140237 heartbeat IPC: 0.720902 cumulative IPC: 0.493835 (Simulation time: 1 hr 16 min 46 sec) 
Heartbeat CPU 0 instructions: 142000000 cycles: 205513863 heartbeat IPC: 0.727999 cumulative IPC: 0.495568 (Simulation time: 1 hr 17 min 15 sec) 
Heartbeat CPU 0 instructions: 143000003 cycles: 207022422 heartbeat IPC: 0.662886 cumulative IPC: 0.496916 (Simulation time: 1 hr 17 min 43 sec) 
Heartbeat CPU 0 instructions: 144000000 cycles: 208532413 heartbeat IPC: 0.662254 cumulative IPC: 0.49824 (Simulation time: 1 hr 18 min 12 sec) 
Heartbeat CPU 0 instructions: 145000001 cycles: 210036415 heartbeat IPC: 0.664893 cumulative IPC: 0.499558 (Simulation time: 1 hr 18 min 39 sec) 
Heartbeat CPU 0 instructions: 146000000 cycles: 211546335 heartbeat IPC: 0.662286 cumulative IPC: 0.500839 (Simulation time: 1 hr 19 min 9 sec) 
Heartbeat CPU 0 instructions: 147000001 cycles: 213056260 heartbeat IPC: 0.662285 cumulative IPC: 0.502101 (Simulation time: 1 hr 19 min 37 sec) 
Heartbeat CPU 0 instructions: 148000000 cycles: 214566252 heartbeat IPC: 0.662255 cumulative IPC: 0.503343 (Simulation time: 1 hr 20 min 5 sec) 
Heartbeat CPU 0 instructions: 149000002 cycles: 216076296 heartbeat IPC: 0.662234 cumulative IPC: 0.504566 (Simulation time: 1 hr 20 min 34 sec) 
Heartbeat CPU 0 instructions: 150000001 cycles: 217586216 heartbeat IPC: 0.662286 cumulative IPC: 0.505771 (Simulation time: 1 hr 21 min 5 sec) 
Finished CPU 0 instructions: 100000000 cycles: 197718075 cummulative IPC: 0.505771 (Simulation time: 1 hr 21 min 5 sec) 

ChampSim completed all CPUs

Region of Interest Statistics

CPU 0 cummulative IPC: 0.505771 instructions: 100000000 cycles: 197718075
LLC TOTAL     ACCESS:    3948315  HIT:     258098  MISS:    3690217
LLC LOAD      ACCESS:     888191  HIT:      41631  MISS:     846560
LLC RFO       ACCESS:         21  HIT:         20  MISS:          1
LLC PREFETCH  ACCESS:    2105713  HIT:     114236  MISS:    1991477
LLC WRITEBACK ACCESS:     954390  HIT:     102211  MISS:     852179
OPTgen accesses: 15121
OPTgen hits: 83
OPTgen hit rate: 0.548905


