
*** ChampSim Multicore Out-of-Order Simulator ***

Warmup Instructions: 50000000
Simulation Instructions: 100000000
Configuration: 2
Number of CPUs: 1
LLC sets: 2048
LLC ways: 16
Off-chip DRAM Channels: 1 Width: 64-bit Data Rate: 1600 MT/s

CPU 0 runs /datasets/cs240c-wi22-a00-public/data/Assignment2-gz/mcf_158B.trace.gz
CPU 0 L1D next line prefetcher
CPU 0 L2C IP-based stride prefetcher
Initialize Hawkeye state
Heartbeat CPU 0 instructions: 1000002 cycles: 512894 heartbeat IPC: 1.94972 cumulative IPC: 1.94972 (Simulation time: 0 hr 0 min 52 sec) 
Heartbeat CPU 0 instructions: 2000002 cycles: 1025065 heartbeat IPC: 1.95247 cumulative IPC: 1.9511 (Simulation time: 0 hr 1 min 44 sec) 
Heartbeat CPU 0 instructions: 3000000 cycles: 1539218 heartbeat IPC: 1.94494 cumulative IPC: 1.94904 (Simulation time: 0 hr 2 min 37 sec) 
Heartbeat CPU 0 instructions: 4000000 cycles: 2051711 heartbeat IPC: 1.95125 cumulative IPC: 1.94959 (Simulation time: 0 hr 3 min 31 sec) 
Heartbeat CPU 0 instructions: 5000002 cycles: 2560589 heartbeat IPC: 1.96511 cumulative IPC: 1.95268 (Simulation time: 0 hr 4 min 34 sec) 
Heartbeat CPU 0 instructions: 6000001 cycles: 3074757 heartbeat IPC: 1.94489 cumulative IPC: 1.95137 (Simulation time: 0 hr 5 min 43 sec) 
Heartbeat CPU 0 instructions: 7000001 cycles: 3585021 heartbeat IPC: 1.95977 cumulative IPC: 1.95257 (Simulation time: 0 hr 6 min 52 sec) 
Heartbeat CPU 0 instructions: 8000000 cycles: 4097145 heartbeat IPC: 1.95265 cumulative IPC: 1.95258 (Simulation time: 0 hr 8 min 1 sec) 
Heartbeat CPU 0 instructions: 9000000 cycles: 4616741 heartbeat IPC: 1.92457 cumulative IPC: 1.94943 (Simulation time: 0 hr 9 min 9 sec) 
Heartbeat CPU 0 instructions: 10000001 cycles: 5149378 heartbeat IPC: 1.87745 cumulative IPC: 1.94198 (Simulation time: 0 hr 10 min 17 sec) 
Heartbeat CPU 0 instructions: 11000001 cycles: 5658551 heartbeat IPC: 1.96397 cumulative IPC: 1.94396 (Simulation time: 0 hr 11 min 28 sec) 
Heartbeat CPU 0 instructions: 12000000 cycles: 6168616 heartbeat IPC: 1.96053 cumulative IPC: 1.94533 (Simulation time: 0 hr 12 min 39 sec) 
Heartbeat CPU 0 instructions: 13000003 cycles: 6677909 heartbeat IPC: 1.96351 cumulative IPC: 1.94672 (Simulation time: 0 hr 13 min 48 sec) 
Heartbeat CPU 0 instructions: 14000001 cycles: 7184038 heartbeat IPC: 1.97578 cumulative IPC: 1.94876 (Simulation time: 0 hr 14 min 53 sec) 
Heartbeat CPU 0 instructions: 15000000 cycles: 7689328 heartbeat IPC: 1.97906 cumulative IPC: 1.95076 (Simulation time: 0 hr 16 min 5 sec) 
Heartbeat CPU 0 instructions: 16000000 cycles: 8233052 heartbeat IPC: 1.83917 cumulative IPC: 1.94339 (Simulation time: 0 hr 17 min 14 sec) 
Heartbeat CPU 0 instructions: 17000001 cycles: 8744840 heartbeat IPC: 1.95394 cumulative IPC: 1.944 (Simulation time: 0 hr 18 min 21 sec) 
Heartbeat CPU 0 instructions: 18000001 cycles: 9251754 heartbeat IPC: 1.97272 cumulative IPC: 1.94558 (Simulation time: 0 hr 19 min 34 sec) 
Heartbeat CPU 0 instructions: 19000001 cycles: 9763945 heartbeat IPC: 1.9524 cumulative IPC: 1.94593 (Simulation time: 0 hr 20 min 44 sec) 
Heartbeat CPU 0 instructions: 20000000 cycles: 10275111 heartbeat IPC: 1.95631 cumulative IPC: 1.94645 (Simulation time: 0 hr 21 min 56 sec) 
Heartbeat CPU 0 instructions: 21000000 cycles: 10785742 heartbeat IPC: 1.95836 cumulative IPC: 1.94701 (Simulation time: 0 hr 23 min 3 sec) 
Heartbeat CPU 0 instructions: 22000002 cycles: 11295493 heartbeat IPC: 1.96175 cumulative IPC: 1.94768 (Simulation time: 0 hr 24 min 13 sec) 
Heartbeat CPU 0 instructions: 23000003 cycles: 11813770 heartbeat IPC: 1.92947 cumulative IPC: 1.94688 (Simulation time: 0 hr 25 min 19 sec) 
Heartbeat CPU 0 instructions: 24000000 cycles: 12352372 heartbeat IPC: 1.85665 cumulative IPC: 1.94295 (Simulation time: 0 hr 26 min 21 sec) 
Heartbeat CPU 0 instructions: 25000001 cycles: 12858300 heartbeat IPC: 1.97657 cumulative IPC: 1.94427 (Simulation time: 0 hr 27 min 27 sec) 
Heartbeat CPU 0 instructions: 26000001 cycles: 13360155 heartbeat IPC: 1.99261 cumulative IPC: 1.94609 (Simulation time: 0 hr 28 min 30 sec) 
Heartbeat CPU 0 instructions: 27000002 cycles: 13865455 heartbeat IPC: 1.97902 cumulative IPC: 1.94729 (Simulation time: 0 hr 29 min 31 sec) 
Heartbeat CPU 0 instructions: 28000000 cycles: 14407070 heartbeat IPC: 1.84633 cumulative IPC: 1.94349 (Simulation time: 0 hr 30 min 36 sec) 
Heartbeat CPU 0 instructions: 29000003 cycles: 14914526 heartbeat IPC: 1.97062 cumulative IPC: 1.94441 (Simulation time: 0 hr 31 min 41 sec) 
Heartbeat CPU 0 instructions: 30000000 cycles: 15416463 heartbeat IPC: 1.99228 cumulative IPC: 1.94597 (Simulation time: 0 hr 32 min 41 sec) 
Heartbeat CPU 0 instructions: 31000003 cycles: 15927352 heartbeat IPC: 1.95738 cumulative IPC: 1.94634 (Simulation time: 0 hr 33 min 53 sec) 
Heartbeat CPU 0 instructions: 32000000 cycles: 16466429 heartbeat IPC: 1.85502 cumulative IPC: 1.94335 (Simulation time: 0 hr 35 min 0 sec) 
Heartbeat CPU 0 instructions: 33000000 cycles: 16972158 heartbeat IPC: 1.97734 cumulative IPC: 1.94436 (Simulation time: 0 hr 36 min 9 sec) 
Heartbeat CPU 0 instructions: 34000000 cycles: 17480608 heartbeat IPC: 1.96676 cumulative IPC: 1.94501 (Simulation time: 0 hr 37 min 15 sec) 
Heartbeat CPU 0 instructions: 35000001 cycles: 17988732 heartbeat IPC: 1.96803 cumulative IPC: 1.94566 (Simulation time: 0 hr 38 min 19 sec) 
Heartbeat CPU 0 instructions: 36000000 cycles: 18531929 heartbeat IPC: 1.84095 cumulative IPC: 1.94259 (Simulation time: 0 hr 39 min 23 sec) 
Heartbeat CPU 0 instructions: 37000001 cycles: 19036514 heartbeat IPC: 1.98183 cumulative IPC: 1.94363 (Simulation time: 0 hr 40 min 34 sec) 
Heartbeat CPU 0 instructions: 38000002 cycles: 19540593 heartbeat IPC: 1.98382 cumulative IPC: 1.94467 (Simulation time: 0 hr 41 min 37 sec) 
Heartbeat CPU 0 instructions: 39000000 cycles: 20041547 heartbeat IPC: 1.99619 cumulative IPC: 1.94596 (Simulation time: 0 hr 42 min 42 sec) 
Heartbeat CPU 0 instructions: 40000000 cycles: 20580141 heartbeat IPC: 1.85669 cumulative IPC: 1.94362 (Simulation time: 0 hr 43 min 45 sec) 
Heartbeat CPU 0 instructions: 41000003 cycles: 21084551 heartbeat IPC: 1.98252 cumulative IPC: 1.94455 (Simulation time: 0 hr 44 min 47 sec) 
Heartbeat CPU 0 instructions: 42000000 cycles: 21584478 heartbeat IPC: 2.00029 cumulative IPC: 1.94584 (Simulation time: 0 hr 45 min 53 sec) 
Heartbeat CPU 0 instructions: 43000001 cycles: 22097363 heartbeat IPC: 1.94976 cumulative IPC: 1.94593 (Simulation time: 0 hr 46 min 55 sec) 
Heartbeat CPU 0 instructions: 44000000 cycles: 22614478 heartbeat IPC: 1.9338 cumulative IPC: 1.94566 (Simulation time: 0 hr 47 min 53 sec) 
Heartbeat CPU 0 instructions: 45000000 cycles: 23095137 heartbeat IPC: 2.08048 cumulative IPC: 1.94846 (Simulation time: 0 hr 48 min 51 sec) 
Heartbeat CPU 0 instructions: 46000002 cycles: 23604464 heartbeat IPC: 1.96338 cumulative IPC: 1.94878 (Simulation time: 0 hr 50 min 1 sec) 
Heartbeat CPU 0 instructions: 47000002 cycles: 24123603 heartbeat IPC: 1.92627 cumulative IPC: 1.9483 (Simulation time: 0 hr 51 min 4 sec) 
Heartbeat CPU 0 instructions: 48000000 cycles: 24605504 heartbeat IPC: 2.07511 cumulative IPC: 1.95078 (Simulation time: 0 hr 52 min 0 sec) 
Heartbeat CPU 0 instructions: 49000003 cycles: 25112627 heartbeat IPC: 1.97191 cumulative IPC: 1.95121 (Simulation time: 0 hr 53 min 2 sec) 
Heartbeat CPU 0 instructions: 50000000 cycles: 25636319 heartbeat IPC: 1.90951 cumulative IPC: 1.95036 (Simulation time: 0 hr 54 min 4 sec) 

Warmup complete CPU 0 instructions: 50000001 cycles: 25636320 (Simulation time: 0 hr 54 min 4 sec) 

Heartbeat CPU 0 instructions: 51000000 cycles: 31671064 heartbeat IPC: 0.165707 cumulative IPC: 0.165707 (Simulation time: 0 hr 55 min 22 sec) 
Heartbeat CPU 0 instructions: 52000000 cycles: 40816911 heartbeat IPC: 0.109339 cumulative IPC: 0.131747 (Simulation time: 0 hr 56 min 58 sec) 
Heartbeat CPU 0 instructions: 53000000 cycles: 53895627 heartbeat IPC: 0.0764601 cumulative IPC: 0.10616 (Simulation time: 0 hr 58 min 50 sec) 
Heartbeat CPU 0 instructions: 54000000 cycles: 60175887 heartbeat IPC: 0.159229 cumulative IPC: 0.115809 (Simulation time: 1 hr 0 min 6 sec) 
Heartbeat CPU 0 instructions: 55000000 cycles: 68135638 heartbeat IPC: 0.125632 cumulative IPC: 0.117649 (Simulation time: 1 hr 1 min 28 sec) 
Heartbeat CPU 0 instructions: 56000000 cycles: 82895234 heartbeat IPC: 0.0677525 cumulative IPC: 0.104787 (Simulation time: 1 hr 3 min 24 sec) 
Heartbeat CPU 0 instructions: 57000001 cycles: 89020968 heartbeat IPC: 0.163246 cumulative IPC: 0.110437 (Simulation time: 1 hr 4 min 46 sec) 
Heartbeat CPU 0 instructions: 58000001 cycles: 95101311 heartbeat IPC: 0.164464 cumulative IPC: 0.115166 (Simulation time: 1 hr 6 min 4 sec) 
Heartbeat CPU 0 instructions: 59000000 cycles: 110604161 heartbeat IPC: 0.0645042 cumulative IPC: 0.105922 (Simulation time: 1 hr 7 min 54 sec) 
Heartbeat CPU 0 instructions: 60000000 cycles: 117320114 heartbeat IPC: 0.148899 cumulative IPC: 0.109071 (Simulation time: 1 hr 9 min 5 sec) 
Heartbeat CPU 0 instructions: 61000000 cycles: 124165108 heartbeat IPC: 0.146092 cumulative IPC: 0.111642 (Simulation time: 1 hr 10 min 8 sec) 
Heartbeat CPU 0 instructions: 62000001 cycles: 136522997 heartbeat IPC: 0.08092 cumulative IPC: 0.108219 (Simulation time: 1 hr 11 min 40 sec) 
Heartbeat CPU 0 instructions: 63000001 cycles: 146629683 heartbeat IPC: 0.0989444 cumulative IPC: 0.107444 (Simulation time: 1 hr 13 min 14 sec) 
Heartbeat CPU 0 instructions: 64000000 cycles: 152560084 heartbeat IPC: 0.168622 cumulative IPC: 0.110302 (Simulation time: 1 hr 14 min 23 sec) 
Heartbeat CPU 0 instructions: 65000000 cycles: 159676994 heartbeat IPC: 0.14051 cumulative IPC: 0.111906 (Simulation time: 1 hr 15 min 25 sec) 
Heartbeat CPU 0 instructions: 66000000 cycles: 174370834 heartbeat IPC: 0.0680557 cumulative IPC: 0.107574 (Simulation time: 1 hr 16 min 45 sec) 
Heartbeat CPU 0 instructions: 67000002 cycles: 180310816 heartbeat IPC: 0.168351 cumulative IPC: 0.109908 (Simulation time: 1 hr 17 min 40 sec) 
Heartbeat CPU 0 instructions: 68000000 cycles: 186064829 heartbeat IPC: 0.173791 cumulative IPC: 0.1122 (Simulation time: 1 hr 18 min 42 sec) 
Heartbeat CPU 0 instructions: 69000000 cycles: 199124910 heartbeat IPC: 0.0765692 cumulative IPC: 0.109517 (Simulation time: 1 hr 19 min 59 sec) 
Heartbeat CPU 0 instructions: 70000000 cycles: 208171033 heartbeat IPC: 0.110545 cumulative IPC: 0.109568 (Simulation time: 1 hr 21 min 14 sec) 
Heartbeat CPU 0 instructions: 71000002 cycles: 213927790 heartbeat IPC: 0.173709 cumulative IPC: 0.111529 (Simulation time: 1 hr 22 min 16 sec) 
Heartbeat CPU 0 instructions: 72000000 cycles: 221605088 heartbeat IPC: 0.130254 cumulative IPC: 0.112263 (Simulation time: 1 hr 23 min 23 sec) 
Heartbeat CPU 0 instructions: 73000000 cycles: 235819742 heartbeat IPC: 0.0703499 cumulative IPC: 0.109428 (Simulation time: 1 hr 24 min 27 sec) 
Heartbeat CPU 0 instructions: 74000000 cycles: 241884240 heartbeat IPC: 0.164894 cumulative IPC: 0.110984 (Simulation time: 1 hr 25 min 10 sec) 
Heartbeat CPU 0 instructions: 75000001 cycles: 248022418 heartbeat IPC: 0.162915 cumulative IPC: 0.112417 (Simulation time: 1 hr 25 min 57 sec) 
Heartbeat CPU 0 instructions: 76000000 cycles: 260138566 heartbeat IPC: 0.0825344 cumulative IPC: 0.110873 (Simulation time: 1 hr 26 min 55 sec) 
Heartbeat CPU 0 instructions: 77000000 cycles: 270547761 heartbeat IPC: 0.0960689 cumulative IPC: 0.110244 (Simulation time: 1 hr 27 min 41 sec) 
Heartbeat CPU 0 instructions: 78000000 cycles: 277272129 heartbeat IPC: 0.148713 cumulative IPC: 0.111272 (Simulation time: 1 hr 28 min 27 sec) 
Heartbeat CPU 0 instructions: 79000001 cycles: 284359741 heartbeat IPC: 0.141091 cumulative IPC: 0.112089 (Simulation time: 1 hr 29 min 10 sec) 
Heartbeat CPU 0 instructions: 80000000 cycles: 299438877 heartbeat IPC: 0.0663167 cumulative IPC: 0.109568 (Simulation time: 1 hr 30 min 11 sec) 
Heartbeat CPU 0 instructions: 81000001 cycles: 306637582 heartbeat IPC: 0.138914 cumulative IPC: 0.11032 (Simulation time: 1 hr 30 min 50 sec) 
Heartbeat CPU 0 instructions: 82000001 cycles: 313723006 heartbeat IPC: 0.141135 cumulative IPC: 0.111078 (Simulation time: 1 hr 31 min 27 sec) 
Heartbeat CPU 0 instructions: 83000001 cycles: 326316605 heartbeat IPC: 0.0794054 cumulative IPC: 0.109751 (Simulation time: 1 hr 32 min 16 sec) 
Heartbeat CPU 0 instructions: 84000000 cycles: 337176663 heartbeat IPC: 0.0920804 cumulative IPC: 0.109135 (Simulation time: 1 hr 32 min 58 sec) 
Heartbeat CPU 0 instructions: 85000000 cycles: 343537359 heartbeat IPC: 0.157216 cumulative IPC: 0.110097 (Simulation time: 1 hr 33 min 30 sec) 
Heartbeat CPU 0 instructions: 86000000 cycles: 351180237 heartbeat IPC: 0.130841 cumulative IPC: 0.110584 (Simulation time: 1 hr 34 min 1 sec) 
Heartbeat CPU 0 instructions: 87000000 cycles: 366269525 heartbeat IPC: 0.0662722 cumulative IPC: 0.108621 (Simulation time: 1 hr 34 min 43 sec) 
Heartbeat CPU 0 instructions: 88000000 cycles: 373056244 heartbeat IPC: 0.147347 cumulative IPC: 0.109378 (Simulation time: 1 hr 35 min 6 sec) 
Heartbeat CPU 0 instructions: 89000000 cycles: 380298559 heartbeat IPC: 0.138077 cumulative IPC: 0.109964 (Simulation time: 1 hr 35 min 29 sec) 
Heartbeat CPU 0 instructions: 90000002 cycles: 393760632 heartbeat IPC: 0.0742829 cumulative IPC: 0.108659 (Simulation time: 1 hr 35 min 59 sec) 
Heartbeat CPU 0 instructions: 91000000 cycles: 402892124 heartbeat IPC: 0.109511 cumulative IPC: 0.10868 (Simulation time: 1 hr 36 min 23 sec) 
Heartbeat CPU 0 instructions: 92000000 cycles: 409420113 heartbeat IPC: 0.153187 cumulative IPC: 0.109437 (Simulation time: 1 hr 36 min 42 sec) 
Heartbeat CPU 0 instructions: 93000003 cycles: 420430765 heartbeat IPC: 0.0908214 cumulative IPC: 0.108917 (Simulation time: 1 hr 37 min 5 sec) 
Heartbeat CPU 0 instructions: 94000000 cycles: 432352799 heartbeat IPC: 0.0838781 cumulative IPC: 0.108183 (Simulation time: 1 hr 37 min 27 sec) 
Heartbeat CPU 0 instructions: 95000000 cycles: 439152100 heartbeat IPC: 0.147074 cumulative IPC: 0.108823 (Simulation time: 1 hr 37 min 43 sec) 
Heartbeat CPU 0 instructions: 96000000 cycles: 446680208 heartbeat IPC: 0.132836 cumulative IPC: 0.109252 (Simulation time: 1 hr 37 min 58 sec) 
Heartbeat CPU 0 instructions: 97000003 cycles: 462043199 heartbeat IPC: 0.0650917 cumulative IPC: 0.107698 (Simulation time: 1 hr 38 min 18 sec) 
Heartbeat CPU 0 instructions: 98000002 cycles: 469191957 heartbeat IPC: 0.139884 cumulative IPC: 0.108216 (Simulation time: 1 hr 38 min 29 sec) 
Heartbeat CPU 0 instructions: 99000000 cycles: 476190069 heartbeat IPC: 0.142895 cumulative IPC: 0.108755 (Simulation time: 1 hr 38 min 40 sec) 
Heartbeat CPU 0 instructions: 100000000 cycles: 489868197 heartbeat IPC: 0.0731094 cumulative IPC: 0.107705 (Simulation time: 1 hr 38 min 54 sec) 
Heartbeat CPU 0 instructions: 101000000 cycles: 499939654 heartbeat IPC: 0.0992905 cumulative IPC: 0.107526 (Simulation time: 1 hr 39 min 5 sec) 
Heartbeat CPU 0 instructions: 102000000 cycles: 507509089 heartbeat IPC: 0.13211 cumulative IPC: 0.107912 (Simulation time: 1 hr 39 min 14 sec) 
Heartbeat CPU 0 instructions: 103000001 cycles: 514525288 heartbeat IPC: 0.142527 cumulative IPC: 0.108409 (Simulation time: 1 hr 39 min 22 sec) 
Heartbeat CPU 0 instructions: 104000000 cycles: 530214873 heartbeat IPC: 0.0637365 cumulative IPC: 0.10702 (Simulation time: 1 hr 39 min 34 sec) 
Heartbeat CPU 0 instructions: 105000000 cycles: 538348366 heartbeat IPC: 0.122948 cumulative IPC: 0.107273 (Simulation time: 1 hr 39 min 42 sec) 
Heartbeat CPU 0 instructions: 106000000 cycles: 545875781 heartbeat IPC: 0.132848 cumulative IPC: 0.107643 (Simulation time: 1 hr 39 min 50 sec) 
Heartbeat CPU 0 instructions: 107000000 cycles: 556045265 heartbeat IPC: 0.0983334 cumulative IPC: 0.107464 (Simulation time: 1 hr 39 min 58 sec) 
Heartbeat CPU 0 instructions: 108000000 cycles: 569807531 heartbeat IPC: 0.0726625 cumulative IPC: 0.106584 (Simulation time: 1 hr 40 min 8 sec) 
Heartbeat CPU 0 instructions: 109000000 cycles: 577181203 heartbeat IPC: 0.135618 cumulative IPC: 0.106972 (Simulation time: 1 hr 40 min 16 sec) 
Heartbeat CPU 0 instructions: 110000000 cycles: 585042550 heartbeat IPC: 0.127205 cumulative IPC: 0.107257 (Simulation time: 1 hr 40 min 23 sec) 
Heartbeat CPU 0 instructions: 111000001 cycles: 598060258 heartbeat IPC: 0.0768185 cumulative IPC: 0.106564 (Simulation time: 1 hr 40 min 33 sec) 
Heartbeat CPU 0 instructions: 112000000 cycles: 609095261 heartbeat IPC: 0.0906206 cumulative IPC: 0.106263 (Simulation time: 1 hr 40 min 42 sec) 
Heartbeat CPU 0 instructions: 113000000 cycles: 616644649 heartbeat IPC: 0.132461 cumulative IPC: 0.106597 (Simulation time: 1 hr 40 min 50 sec) 
Heartbeat CPU 0 instructions: 114000002 cycles: 624663068 heartbeat IPC: 0.124713 cumulative IPC: 0.10684 (Simulation time: 1 hr 40 min 57 sec) 
Heartbeat CPU 0 instructions: 115000000 cycles: 638196978 heartbeat IPC: 0.0738883 cumulative IPC: 0.106112 (Simulation time: 1 hr 41 min 7 sec) 
Heartbeat CPU 0 instructions: 116000000 cycles: 649639656 heartbeat IPC: 0.0873921 cumulative IPC: 0.105769 (Simulation time: 1 hr 41 min 15 sec) 
Heartbeat CPU 0 instructions: 117000003 cycles: 658054913 heartbeat IPC: 0.118832 cumulative IPC: 0.105942 (Simulation time: 1 hr 41 min 23 sec) 
Heartbeat CPU 0 instructions: 118000000 cycles: 666366072 heartbeat IPC: 0.12032 cumulative IPC: 0.106129 (Simulation time: 1 hr 41 min 29 sec) 
Heartbeat CPU 0 instructions: 119000001 cycles: 675702519 heartbeat IPC: 0.107107 cumulative IPC: 0.106143 (Simulation time: 1 hr 41 min 37 sec) 
Heartbeat CPU 0 instructions: 120000000 cycles: 689637263 heartbeat IPC: 0.071763 cumulative IPC: 0.105422 (Simulation time: 1 hr 41 min 46 sec) 
Heartbeat CPU 0 instructions: 121000000 cycles: 697687047 heartbeat IPC: 0.124227 cumulative IPC: 0.105647 (Simulation time: 1 hr 41 min 53 sec) 
Heartbeat CPU 0 instructions: 122000001 cycles: 706070467 heartbeat IPC: 0.119283 cumulative IPC: 0.105815 (Simulation time: 1 hr 42 min 0 sec) 
Heartbeat CPU 0 instructions: 123000002 cycles: 714908451 heartbeat IPC: 0.113148 cumulative IPC: 0.105909 (Simulation time: 1 hr 42 min 8 sec) 
Heartbeat CPU 0 instructions: 124000000 cycles: 730665441 heartbeat IPC: 0.0634638 cumulative IPC: 0.10496 (Simulation time: 1 hr 42 min 17 sec) 
Heartbeat CPU 0 instructions: 125000001 cycles: 739633717 heartbeat IPC: 0.111504 cumulative IPC: 0.105042 (Simulation time: 1 hr 42 min 24 sec) 
Heartbeat CPU 0 instructions: 126000000 cycles: 748196025 heartbeat IPC: 0.116791 cumulative IPC: 0.105182 (Simulation time: 1 hr 42 min 31 sec) 
Heartbeat CPU 0 instructions: 127000002 cycles: 756220323 heartbeat IPC: 0.124622 cumulative IPC: 0.105395 (Simulation time: 1 hr 42 min 38 sec) 
Heartbeat CPU 0 instructions: 128000000 cycles: 768460766 heartbeat IPC: 0.0816962 cumulative IPC: 0.105005 (Simulation time: 1 hr 42 min 47 sec) 
Heartbeat CPU 0 instructions: 129000001 cycles: 781522681 heartbeat IPC: 0.0765585 cumulative IPC: 0.104513 (Simulation time: 1 hr 42 min 55 sec) 
Heartbeat CPU 0 instructions: 130000003 cycles: 790009661 heartbeat IPC: 0.117828 cumulative IPC: 0.104661 (Simulation time: 1 hr 43 min 3 sec) 
Heartbeat CPU 0 instructions: 131000000 cycles: 797159236 heartbeat IPC: 0.139868 cumulative IPC: 0.104987 (Simulation time: 1 hr 43 min 10 sec) 
Heartbeat CPU 0 instructions: 132000000 cycles: 808787688 heartbeat IPC: 0.085996 cumulative IPC: 0.104705 (Simulation time: 1 hr 43 min 19 sec) 
Heartbeat CPU 0 instructions: 133000002 cycles: 820484223 heartbeat IPC: 0.0854956 cumulative IPC: 0.104422 (Simulation time: 1 hr 43 min 28 sec) 
Heartbeat CPU 0 instructions: 134000003 cycles: 827596904 heartbeat IPC: 0.140594 cumulative IPC: 0.104743 (Simulation time: 1 hr 43 min 35 sec) 
Heartbeat CPU 0 instructions: 135000000 cycles: 834165433 heartbeat IPC: 0.152241 cumulative IPC: 0.105129 (Simulation time: 1 hr 43 min 42 sec) 
Heartbeat CPU 0 instructions: 136000000 cycles: 846785867 heartbeat IPC: 0.0792366 cumulative IPC: 0.104731 (Simulation time: 1 hr 43 min 51 sec) 
Heartbeat CPU 0 instructions: 137000000 cycles: 858185197 heartbeat IPC: 0.0877245 cumulative IPC: 0.104498 (Simulation time: 1 hr 44 min 0 sec) 
Heartbeat CPU 0 instructions: 138000000 cycles: 866805681 heartbeat IPC: 0.116003 cumulative IPC: 0.104616 (Simulation time: 1 hr 44 min 7 sec) 
Heartbeat CPU 0 instructions: 139000001 cycles: 875219916 heartbeat IPC: 0.118846 cumulative IPC: 0.104757 (Simulation time: 1 hr 44 min 14 sec) 
Heartbeat CPU 0 instructions: 140000000 cycles: 883892273 heartbeat IPC: 0.115309 cumulative IPC: 0.104864 (Simulation time: 1 hr 44 min 22 sec) 
Heartbeat CPU 0 instructions: 141000000 cycles: 899597355 heartbeat IPC: 0.0636737 cumulative IPC: 0.104124 (Simulation time: 1 hr 44 min 33 sec) 
Heartbeat CPU 0 instructions: 142000000 cycles: 907520020 heartbeat IPC: 0.12622 cumulative IPC: 0.104322 (Simulation time: 1 hr 44 min 40 sec) 
Heartbeat CPU 0 instructions: 143000000 cycles: 915428173 heartbeat IPC: 0.126452 cumulative IPC: 0.104519 (Simulation time: 1 hr 44 min 47 sec) 
Heartbeat CPU 0 instructions: 144000000 cycles: 923438155 heartbeat IPC: 0.124844 cumulative IPC: 0.1047 (Simulation time: 1 hr 44 min 54 sec) 
Heartbeat CPU 0 instructions: 145000003 cycles: 938726725 heartbeat IPC: 0.0654085 cumulative IPC: 0.104042 (Simulation time: 1 hr 45 min 5 sec) 
Heartbeat CPU 0 instructions: 146000000 cycles: 947451938 heartbeat IPC: 0.11461 cumulative IPC: 0.104142 (Simulation time: 1 hr 45 min 12 sec) 
Heartbeat CPU 0 instructions: 147000000 cycles: 955684589 heartbeat IPC: 0.121468 cumulative IPC: 0.104296 (Simulation time: 1 hr 45 min 20 sec) 
Heartbeat CPU 0 instructions: 148000000 cycles: 964004401 heartbeat IPC: 0.120195 cumulative IPC: 0.104437 (Simulation time: 1 hr 45 min 28 sec) 
Heartbeat CPU 0 instructions: 149000001 cycles: 977416950 heartbeat IPC: 0.0745571 cumulative IPC: 0.104016 (Simulation time: 1 hr 45 min 38 sec) 
Heartbeat CPU 0 instructions: 150000000 cycles: 988814345 heartbeat IPC: 0.0877393 cumulative IPC: 0.103823 (Simulation time: 1 hr 45 min 47 sec) 
Finished CPU 0 instructions: 100000000 cycles: 963178027 cummulative IPC: 0.103823 (Simulation time: 1 hr 45 min 47 sec) 

ChampSim completed all CPUs

Region of Interest Statistics

CPU 0 cummulative IPC: 0.103823 instructions: 100000000 cycles: 963178027
LLC TOTAL     ACCESS:   21110895  HIT:   10085391  MISS:   11025504
LLC LOAD      ACCESS:    9532707  HIT:    5472524  MISS:    4060183
LLC RFO       ACCESS:     168946  HIT:      56916  MISS:     112030
LLC PREFETCH  ACCESS:    9550821  HIT:    3396488  MISS:    6154333
LLC WRITEBACK ACCESS:    1858421  HIT:    1159463  MISS:     698958
OPTgen accesses: 241824
OPTgen hits: 205568
OPTgen hit rate: 85.0073


