
*** ChampSim Multicore Out-of-Order Simulator ***

Warmup Instructions: 50000000
Simulation Instructions: 100000000
Configuration: 2
Number of CPUs: 1
LLC sets: 2048
LLC ways: 16
Off-chip DRAM Channels: 1 Width: 64-bit Data Rate: 1600 MT/s

CPU 0 runs /datasets/cs240c-wi22-a00-public/data/Assignment2-gz/leslie3d_1186B.trace.gz
CPU 0 L1D next line prefetcher
CPU 0 L2C IP-based stride prefetcher
Initialize Hawkeye state
Heartbeat CPU 0 instructions: 1000002 cycles: 564509 heartbeat IPC: 1.77145 cumulative IPC: 1.77145 (Simulation time: 0 hr 0 min 41 sec) 
Heartbeat CPU 0 instructions: 2000000 cycles: 1215810 heartbeat IPC: 1.53539 cumulative IPC: 1.64499 (Simulation time: 0 hr 1 min 25 sec) 
Heartbeat CPU 0 instructions: 3000000 cycles: 1867537 heartbeat IPC: 1.53438 cumulative IPC: 1.60639 (Simulation time: 0 hr 2 min 9 sec) 
Heartbeat CPU 0 instructions: 4000000 cycles: 2473071 heartbeat IPC: 1.65143 cumulative IPC: 1.61742 (Simulation time: 0 hr 2 min 45 sec) 
Heartbeat CPU 0 instructions: 5000000 cycles: 3083388 heartbeat IPC: 1.63849 cumulative IPC: 1.62159 (Simulation time: 0 hr 3 min 25 sec) 
Heartbeat CPU 0 instructions: 6000000 cycles: 3735109 heartbeat IPC: 1.5344 cumulative IPC: 1.60638 (Simulation time: 0 hr 4 min 14 sec) 
Heartbeat CPU 0 instructions: 7000001 cycles: 4386338 heartbeat IPC: 1.53556 cumulative IPC: 1.59586 (Simulation time: 0 hr 4 min 54 sec) 
Heartbeat CPU 0 instructions: 8000000 cycles: 4950910 heartbeat IPC: 1.77125 cumulative IPC: 1.61586 (Simulation time: 0 hr 5 min 38 sec) 
Heartbeat CPU 0 instructions: 9000003 cycles: 5602198 heartbeat IPC: 1.53542 cumulative IPC: 1.60651 (Simulation time: 0 hr 6 min 17 sec) 
Heartbeat CPU 0 instructions: 10000001 cycles: 6253359 heartbeat IPC: 1.53572 cumulative IPC: 1.59914 (Simulation time: 0 hr 6 min 55 sec) 
Heartbeat CPU 0 instructions: 11000000 cycles: 6820142 heartbeat IPC: 1.76434 cumulative IPC: 1.61287 (Simulation time: 0 hr 7 min 33 sec) 
Heartbeat CPU 0 instructions: 12000000 cycles: 7469233 heartbeat IPC: 1.54062 cumulative IPC: 1.60659 (Simulation time: 0 hr 8 min 11 sec) 
Heartbeat CPU 0 instructions: 13000002 cycles: 8120718 heartbeat IPC: 1.53496 cumulative IPC: 1.60084 (Simulation time: 0 hr 8 min 56 sec) 
Heartbeat CPU 0 instructions: 14000000 cycles: 8755145 heartbeat IPC: 1.57622 cumulative IPC: 1.59906 (Simulation time: 0 hr 9 min 35 sec) 
Heartbeat CPU 0 instructions: 15000000 cycles: 9336230 heartbeat IPC: 1.72092 cumulative IPC: 1.60664 (Simulation time: 0 hr 10 min 11 sec) 
Heartbeat CPU 0 instructions: 16000000 cycles: 9987794 heartbeat IPC: 1.53477 cumulative IPC: 1.60196 (Simulation time: 0 hr 10 min 49 sec) 
Heartbeat CPU 0 instructions: 17000000 cycles: 10638857 heartbeat IPC: 1.53595 cumulative IPC: 1.59792 (Simulation time: 0 hr 11 min 27 sec) 
Heartbeat CPU 0 instructions: 18000003 cycles: 11203329 heartbeat IPC: 1.77157 cumulative IPC: 1.60667 (Simulation time: 0 hr 12 min 4 sec) 
Heartbeat CPU 0 instructions: 19000003 cycles: 11854609 heartbeat IPC: 1.53544 cumulative IPC: 1.60275 (Simulation time: 0 hr 12 min 40 sec) 
Heartbeat CPU 0 instructions: 20000000 cycles: 12505775 heartbeat IPC: 1.5357 cumulative IPC: 1.59926 (Simulation time: 0 hr 13 min 19 sec) 
Heartbeat CPU 0 instructions: 21000001 cycles: 13101416 heartbeat IPC: 1.67887 cumulative IPC: 1.60288 (Simulation time: 0 hr 13 min 55 sec) 
Heartbeat CPU 0 instructions: 22000003 cycles: 13721396 heartbeat IPC: 1.61296 cumulative IPC: 1.60334 (Simulation time: 0 hr 14 min 33 sec) 
Heartbeat CPU 0 instructions: 23000001 cycles: 14372557 heartbeat IPC: 1.53572 cumulative IPC: 1.60027 (Simulation time: 0 hr 15 min 9 sec) 
Heartbeat CPU 0 instructions: 24000000 cycles: 15024195 heartbeat IPC: 1.53459 cumulative IPC: 1.59742 (Simulation time: 0 hr 15 min 47 sec) 
Heartbeat CPU 0 instructions: 25000000 cycles: 15588251 heartbeat IPC: 1.77287 cumulative IPC: 1.60377 (Simulation time: 0 hr 16 min 20 sec) 
Heartbeat CPU 0 instructions: 26000003 cycles: 16240226 heartbeat IPC: 1.53381 cumulative IPC: 1.60096 (Simulation time: 0 hr 16 min 59 sec) 
Heartbeat CPU 0 instructions: 27000000 cycles: 16891858 heartbeat IPC: 1.5346 cumulative IPC: 1.5984 (Simulation time: 0 hr 17 min 39 sec) 
Heartbeat CPU 0 instructions: 28000000 cycles: 17455993 heartbeat IPC: 1.77263 cumulative IPC: 1.60403 (Simulation time: 0 hr 18 min 17 sec) 
Heartbeat CPU 0 instructions: 29000002 cycles: 18107435 heartbeat IPC: 1.53506 cumulative IPC: 1.60155 (Simulation time: 0 hr 18 min 58 sec) 
Heartbeat CPU 0 instructions: 30000002 cycles: 18758783 heartbeat IPC: 1.53528 cumulative IPC: 1.59925 (Simulation time: 0 hr 19 min 42 sec) 
Heartbeat CPU 0 instructions: 31000002 cycles: 19382833 heartbeat IPC: 1.60244 cumulative IPC: 1.59935 (Simulation time: 0 hr 20 min 24 sec) 
Heartbeat CPU 0 instructions: 32000000 cycles: 19974307 heartbeat IPC: 1.69069 cumulative IPC: 1.60206 (Simulation time: 0 hr 21 min 3 sec) 
Heartbeat CPU 0 instructions: 33000000 cycles: 20625861 heartbeat IPC: 1.53479 cumulative IPC: 1.59993 (Simulation time: 0 hr 21 min 47 sec) 
Heartbeat CPU 0 instructions: 34000000 cycles: 21277894 heartbeat IPC: 1.53366 cumulative IPC: 1.5979 (Simulation time: 0 hr 22 min 26 sec) 
Heartbeat CPU 0 instructions: 35000000 cycles: 21842136 heartbeat IPC: 1.77229 cumulative IPC: 1.60241 (Simulation time: 0 hr 23 min 3 sec) 
Heartbeat CPU 0 instructions: 36000000 cycles: 22493702 heartbeat IPC: 1.53476 cumulative IPC: 1.60045 (Simulation time: 0 hr 23 min 41 sec) 
Heartbeat CPU 0 instructions: 37000003 cycles: 23145418 heartbeat IPC: 1.53442 cumulative IPC: 1.59859 (Simulation time: 0 hr 24 min 20 sec) 
Heartbeat CPU 0 instructions: 38000002 cycles: 23731094 heartbeat IPC: 1.70743 cumulative IPC: 1.60127 (Simulation time: 0 hr 24 min 56 sec) 
Heartbeat CPU 0 instructions: 39000000 cycles: 24361302 heartbeat IPC: 1.58677 cumulative IPC: 1.6009 (Simulation time: 0 hr 25 min 37 sec) 
Heartbeat CPU 0 instructions: 40000000 cycles: 25013110 heartbeat IPC: 1.53419 cumulative IPC: 1.59916 (Simulation time: 0 hr 26 min 16 sec) 
Heartbeat CPU 0 instructions: 41000000 cycles: 25664087 heartbeat IPC: 1.53615 cumulative IPC: 1.59756 (Simulation time: 0 hr 26 min 59 sec) 
Heartbeat CPU 0 instructions: 42000000 cycles: 26228909 heartbeat IPC: 1.77047 cumulative IPC: 1.60129 (Simulation time: 0 hr 27 min 36 sec) 
Heartbeat CPU 0 instructions: 43000002 cycles: 26880021 heartbeat IPC: 1.53584 cumulative IPC: 1.5997 (Simulation time: 0 hr 28 min 20 sec) 
Heartbeat CPU 0 instructions: 44000000 cycles: 27531590 heartbeat IPC: 1.53475 cumulative IPC: 1.59816 (Simulation time: 0 hr 28 min 59 sec) 
Heartbeat CPU 0 instructions: 45000001 cycles: 28090717 heartbeat IPC: 1.7885 cumulative IPC: 1.60195 (Simulation time: 0 hr 29 min 38 sec) 
Heartbeat CPU 0 instructions: 46000001 cycles: 28591462 heartbeat IPC: 1.99702 cumulative IPC: 1.60887 (Simulation time: 0 hr 30 min 17 sec) 
Heartbeat CPU 0 instructions: 47000001 cycles: 29092136 heartbeat IPC: 1.99731 cumulative IPC: 1.61556 (Simulation time: 0 hr 30 min 50 sec) 
Heartbeat CPU 0 instructions: 48000000 cycles: 29592991 heartbeat IPC: 1.99658 cumulative IPC: 1.62201 (Simulation time: 0 hr 31 min 24 sec) 
Heartbeat CPU 0 instructions: 49000002 cycles: 30093377 heartbeat IPC: 1.99846 cumulative IPC: 1.62827 (Simulation time: 0 hr 31 min 58 sec) 
Heartbeat CPU 0 instructions: 50000001 cycles: 30594304 heartbeat IPC: 1.9963 cumulative IPC: 1.63429 (Simulation time: 0 hr 32 min 32 sec) 

Warmup complete CPU 0 instructions: 50000001 cycles: 30594304 (Simulation time: 0 hr 32 min 32 sec) 

Heartbeat CPU 0 instructions: 51000000 cycles: 32242227 heartbeat IPC: 0.606824 cumulative IPC: 0.606824 (Simulation time: 0 hr 33 min 12 sec) 
Heartbeat CPU 0 instructions: 52000000 cycles: 33800330 heartbeat IPC: 0.641806 cumulative IPC: 0.623825 (Simulation time: 0 hr 33 min 50 sec) 
Heartbeat CPU 0 instructions: 53000003 cycles: 35447567 heartbeat IPC: 0.607079 cumulative IPC: 0.618141 (Simulation time: 0 hr 34 min 34 sec) 
Heartbeat CPU 0 instructions: 54000003 cycles: 37007172 heartbeat IPC: 0.641188 cumulative IPC: 0.623746 (Simulation time: 0 hr 35 min 22 sec) 
Heartbeat CPU 0 instructions: 55000001 cycles: 38863811 heartbeat IPC: 0.538607 cumulative IPC: 0.604631 (Simulation time: 0 hr 36 min 2 sec) 
Heartbeat CPU 0 instructions: 56000000 cycles: 41257699 heartbeat IPC: 0.41773 cumulative IPC: 0.562672 (Simulation time: 0 hr 36 min 43 sec) 
Heartbeat CPU 0 instructions: 57000003 cycles: 43559708 heartbeat IPC: 0.434404 cumulative IPC: 0.539899 (Simulation time: 0 hr 37 min 27 sec) 
Heartbeat CPU 0 instructions: 58000001 cycles: 45909983 heartbeat IPC: 0.425481 cumulative IPC: 0.522341 (Simulation time: 0 hr 38 min 9 sec) 
Heartbeat CPU 0 instructions: 59000003 cycles: 48253622 heartbeat IPC: 0.426688 cumulative IPC: 0.509646 (Simulation time: 0 hr 38 min 54 sec) 
Heartbeat CPU 0 instructions: 60000000 cycles: 50604711 heartbeat IPC: 0.425334 cumulative IPC: 0.49974 (Simulation time: 0 hr 39 min 44 sec) 
Heartbeat CPU 0 instructions: 61000003 cycles: 52942958 heartbeat IPC: 0.427672 cumulative IPC: 0.4922 (Simulation time: 0 hr 40 min 39 sec) 
Heartbeat CPU 0 instructions: 62000001 cycles: 55269257 heartbeat IPC: 0.429866 cumulative IPC: 0.486323 (Simulation time: 0 hr 41 min 32 sec) 
Heartbeat CPU 0 instructions: 63000000 cycles: 57249956 heartbeat IPC: 0.504872 cumulative IPC: 0.487701 (Simulation time: 0 hr 42 min 19 sec) 
Heartbeat CPU 0 instructions: 64000000 cycles: 58495357 heartbeat IPC: 0.802954 cumulative IPC: 0.501773 (Simulation time: 0 hr 43 min 4 sec) 
Heartbeat CPU 0 instructions: 65000000 cycles: 59758524 heartbeat IPC: 0.791661 cumulative IPC: 0.514329 (Simulation time: 0 hr 43 min 45 sec) 
Heartbeat CPU 0 instructions: 66000002 cycles: 61010029 heartbeat IPC: 0.79904 cumulative IPC: 0.526044 (Simulation time: 0 hr 44 min 23 sec) 
Heartbeat CPU 0 instructions: 67000001 cycles: 62254411 heartbeat IPC: 0.803611 cumulative IPC: 0.536953 (Simulation time: 0 hr 45 min 1 sec) 
Heartbeat CPU 0 instructions: 68000000 cycles: 63571741 heartbeat IPC: 0.75911 cumulative IPC: 0.545828 (Simulation time: 0 hr 45 min 43 sec) 
Heartbeat CPU 0 instructions: 69000000 cycles: 64812344 heartbeat IPC: 0.80606 cumulative IPC: 0.555263 (Simulation time: 0 hr 46 min 23 sec) 
Heartbeat CPU 0 instructions: 70000000 cycles: 66092703 heartbeat IPC: 0.781031 cumulative IPC: 0.563406 (Simulation time: 0 hr 47 min 7 sec) 
Heartbeat CPU 0 instructions: 71000003 cycles: 67335681 heartbeat IPC: 0.804522 cumulative IPC: 0.571563 (Simulation time: 0 hr 47 min 49 sec) 
Heartbeat CPU 0 instructions: 72000000 cycles: 68603771 heartbeat IPC: 0.788585 cumulative IPC: 0.578803 (Simulation time: 0 hr 48 min 31 sec) 
Heartbeat CPU 0 instructions: 73000000 cycles: 69877467 heartbeat IPC: 0.785117 cumulative IPC: 0.585493 (Simulation time: 0 hr 49 min 11 sec) 
Heartbeat CPU 0 instructions: 74000000 cycles: 71120725 heartbeat IPC: 0.804338 cumulative IPC: 0.592206 (Simulation time: 0 hr 49 min 53 sec) 
Heartbeat CPU 0 instructions: 75000003 cycles: 72412862 heartbeat IPC: 0.773914 cumulative IPC: 0.597821 (Simulation time: 0 hr 50 min 29 sec) 
Heartbeat CPU 0 instructions: 76000000 cycles: 73658562 heartbeat IPC: 0.802759 cumulative IPC: 0.603749 (Simulation time: 0 hr 51 min 11 sec) 
Heartbeat CPU 0 instructions: 77000000 cycles: 74950204 heartbeat IPC: 0.774208 cumulative IPC: 0.608713 (Simulation time: 0 hr 51 min 49 sec) 
Heartbeat CPU 0 instructions: 78000001 cycles: 76218887 heartbeat IPC: 0.78822 cumulative IPC: 0.613704 (Simulation time: 0 hr 52 min 29 sec) 
Heartbeat CPU 0 instructions: 79000001 cycles: 77508870 heartbeat IPC: 0.775204 cumulative IPC: 0.618145 (Simulation time: 0 hr 53 min 10 sec) 
Heartbeat CPU 0 instructions: 80000000 cycles: 78790978 heartbeat IPC: 0.779965 cumulative IPC: 0.62245 (Simulation time: 0 hr 53 min 49 sec) 
Heartbeat CPU 0 instructions: 81000000 cycles: 80040101 heartbeat IPC: 0.800562 cumulative IPC: 0.626949 (Simulation time: 0 hr 54 min 28 sec) 
Heartbeat CPU 0 instructions: 82000003 cycles: 81331018 heartbeat IPC: 0.774645 cumulative IPC: 0.630707 (Simulation time: 0 hr 55 min 16 sec) 
Heartbeat CPU 0 instructions: 83000001 cycles: 82591030 heartbeat IPC: 0.793642 cumulative IPC: 0.634655 (Simulation time: 0 hr 55 min 54 sec) 
Heartbeat CPU 0 instructions: 84000000 cycles: 83873943 heartbeat IPC: 0.779475 cumulative IPC: 0.638142 (Simulation time: 0 hr 56 min 37 sec) 
Heartbeat CPU 0 instructions: 85000001 cycles: 85131185 heartbeat IPC: 0.795393 cumulative IPC: 0.641768 (Simulation time: 0 hr 57 min 14 sec) 
Heartbeat CPU 0 instructions: 86000003 cycles: 86410165 heartbeat IPC: 0.781875 cumulative IPC: 0.644978 (Simulation time: 0 hr 57 min 53 sec) 
Heartbeat CPU 0 instructions: 87000001 cycles: 87669573 heartbeat IPC: 0.794022 cumulative IPC: 0.648267 (Simulation time: 0 hr 58 min 34 sec) 
Heartbeat CPU 0 instructions: 88000000 cycles: 88938797 heartbeat IPC: 0.787882 cumulative IPC: 0.651304 (Simulation time: 0 hr 59 min 11 sec) 
Heartbeat CPU 0 instructions: 89000001 cycles: 90230432 heartbeat IPC: 0.774213 cumulative IPC: 0.653966 (Simulation time: 0 hr 59 min 48 sec) 
Heartbeat CPU 0 instructions: 90000002 cycles: 91500583 heartbeat IPC: 0.787309 cumulative IPC: 0.656747 (Simulation time: 1 hr 0 min 28 sec) 
Heartbeat CPU 0 instructions: 91000000 cycles: 92800437 heartbeat IPC: 0.769316 cumulative IPC: 0.659099 (Simulation time: 1 hr 1 min 9 sec) 
Heartbeat CPU 0 instructions: 92000000 cycles: 94059376 heartbeat IPC: 0.79432 cumulative IPC: 0.661781 (Simulation time: 1 hr 1 min 52 sec) 
Heartbeat CPU 0 instructions: 93000002 cycles: 95359215 heartbeat IPC: 0.769328 cumulative IPC: 0.66394 (Simulation time: 1 hr 2 min 36 sec) 
Heartbeat CPU 0 instructions: 94000000 cycles: 96608636 heartbeat IPC: 0.800369 cumulative IPC: 0.666522 (Simulation time: 1 hr 3 min 17 sec) 
Heartbeat CPU 0 instructions: 95000003 cycles: 97857149 heartbeat IPC: 0.800955 cumulative IPC: 0.669017 (Simulation time: 1 hr 3 min 55 sec) 
Heartbeat CPU 0 instructions: 96000000 cycles: 99142781 heartbeat IPC: 0.777825 cumulative IPC: 0.671058 (Simulation time: 1 hr 4 min 40 sec) 
Heartbeat CPU 0 instructions: 97000001 cycles: 100385565 heartbeat IPC: 0.804646 cumulative IPC: 0.673437 (Simulation time: 1 hr 5 min 24 sec) 
Heartbeat CPU 0 instructions: 98000002 cycles: 101681819 heartbeat IPC: 0.771455 cumulative IPC: 0.675224 (Simulation time: 1 hr 6 min 0 sec) 
Heartbeat CPU 0 instructions: 99000000 cycles: 102929911 heartbeat IPC: 0.801221 cumulative IPC: 0.677398 (Simulation time: 1 hr 6 min 37 sec) 
Heartbeat CPU 0 instructions: 100000000 cycles: 104226961 heartbeat IPC: 0.77098 cumulative IPC: 0.679047 (Simulation time: 1 hr 7 min 13 sec) 
Heartbeat CPU 0 instructions: 101000000 cycles: 105480052 heartbeat IPC: 0.798027 cumulative IPC: 0.681037 (Simulation time: 1 hr 7 min 58 sec) 
Heartbeat CPU 0 instructions: 102000001 cycles: 106732724 heartbeat IPC: 0.798294 cumulative IPC: 0.682967 (Simulation time: 1 hr 8 min 35 sec) 
Heartbeat CPU 0 instructions: 103000002 cycles: 108033235 heartbeat IPC: 0.768929 cumulative IPC: 0.68441 (Simulation time: 1 hr 9 min 11 sec) 
Heartbeat CPU 0 instructions: 104000000 cycles: 109277678 heartbeat IPC: 0.803571 cumulative IPC: 0.686295 (Simulation time: 1 hr 9 min 49 sec) 
Heartbeat CPU 0 instructions: 105000001 cycles: 110578714 heartbeat IPC: 0.768619 cumulative IPC: 0.687634 (Simulation time: 1 hr 10 min 24 sec) 
Heartbeat CPU 0 instructions: 106000002 cycles: 111826377 heartbeat IPC: 0.801499 cumulative IPC: 0.689383 (Simulation time: 1 hr 10 min 59 sec) 
Heartbeat CPU 0 instructions: 107000000 cycles: 113116153 heartbeat IPC: 0.775327 cumulative IPC: 0.690726 (Simulation time: 1 hr 11 min 33 sec) 
Heartbeat CPU 0 instructions: 108000000 cycles: 114378581 heartbeat IPC: 0.792124 cumulative IPC: 0.692254 (Simulation time: 1 hr 12 min 10 sec) 
Heartbeat CPU 0 instructions: 109000003 cycles: 115634624 heartbeat IPC: 0.796153 cumulative IPC: 0.693789 (Simulation time: 1 hr 12 min 45 sec) 
Heartbeat CPU 0 instructions: 110000002 cycles: 116934641 heartbeat IPC: 0.76922 cumulative IPC: 0.694924 (Simulation time: 1 hr 13 min 18 sec) 
Heartbeat CPU 0 instructions: 111000001 cycles: 118178678 heartbeat IPC: 0.803834 cumulative IPC: 0.696471 (Simulation time: 1 hr 13 min 49 sec) 
Heartbeat CPU 0 instructions: 112000000 cycles: 119513153 heartbeat IPC: 0.749358 cumulative IPC: 0.697265 (Simulation time: 1 hr 14 min 17 sec) 
Heartbeat CPU 0 instructions: 113000000 cycles: 121156774 heartbeat IPC: 0.608413 cumulative IPC: 0.695652 (Simulation time: 1 hr 14 min 46 sec) 
Heartbeat CPU 0 instructions: 114000000 cycles: 122763644 heartbeat IPC: 0.622328 cumulative IPC: 0.694374 (Simulation time: 1 hr 15 min 13 sec) 
Heartbeat CPU 0 instructions: 115000000 cycles: 124383368 heartbeat IPC: 0.617389 cumulative IPC: 0.693045 (Simulation time: 1 hr 15 min 37 sec) 
Heartbeat CPU 0 instructions: 116000000 cycles: 126008602 heartbeat IPC: 0.615296 cumulative IPC: 0.69172 (Simulation time: 1 hr 16 min 2 sec) 
Heartbeat CPU 0 instructions: 117000002 cycles: 127636202 heartbeat IPC: 0.614403 cumulative IPC: 0.690423 (Simulation time: 1 hr 16 min 28 sec) 
Heartbeat CPU 0 instructions: 118000000 cycles: 129266148 heartbeat IPC: 0.613516 cumulative IPC: 0.689153 (Simulation time: 1 hr 16 min 54 sec) 
Heartbeat CPU 0 instructions: 119000001 cycles: 130898662 heartbeat IPC: 0.612553 cumulative IPC: 0.687906 (Simulation time: 1 hr 17 min 18 sec) 
Heartbeat CPU 0 instructions: 120000000 cycles: 132563250 heartbeat IPC: 0.600749 cumulative IPC: 0.686484 (Simulation time: 1 hr 17 min 41 sec) 
Heartbeat CPU 0 instructions: 121000002 cycles: 134217202 heartbeat IPC: 0.604614 cumulative IPC: 0.685177 (Simulation time: 1 hr 18 min 5 sec) 
Heartbeat CPU 0 instructions: 122000000 cycles: 135895364 heartbeat IPC: 0.595889 cumulative IPC: 0.683754 (Simulation time: 1 hr 18 min 28 sec) 
Heartbeat CPU 0 instructions: 123000002 cycles: 137544760 heartbeat IPC: 0.606284 cumulative IPC: 0.682559 (Simulation time: 1 hr 18 min 50 sec) 
Heartbeat CPU 0 instructions: 124000000 cycles: 139195854 heartbeat IPC: 0.605658 cumulative IPC: 0.68139 (Simulation time: 1 hr 19 min 13 sec) 
Heartbeat CPU 0 instructions: 125000003 cycles: 140856729 heartbeat IPC: 0.602094 cumulative IPC: 0.680195 (Simulation time: 1 hr 19 min 34 sec) 
Heartbeat CPU 0 instructions: 126000000 cycles: 142497213 heartbeat IPC: 0.609574 cumulative IPC: 0.67916 (Simulation time: 1 hr 19 min 55 sec) 
Heartbeat CPU 0 instructions: 127000001 cycles: 144187578 heartbeat IPC: 0.591589 cumulative IPC: 0.677857 (Simulation time: 1 hr 20 min 16 sec) 
Heartbeat CPU 0 instructions: 128000000 cycles: 145842013 heartbeat IPC: 0.604435 cumulative IPC: 0.676803 (Simulation time: 1 hr 20 min 37 sec) 
Heartbeat CPU 0 instructions: 129000001 cycles: 147476660 heartbeat IPC: 0.611753 cumulative IPC: 0.675893 (Simulation time: 1 hr 20 min 57 sec) 
Heartbeat CPU 0 instructions: 130000003 cycles: 149157218 heartbeat IPC: 0.595042 cumulative IPC: 0.674747 (Simulation time: 1 hr 21 min 17 sec) 
Heartbeat CPU 0 instructions: 131000001 cycles: 154550536 heartbeat IPC: 0.185414 cumulative IPC: 0.653456 (Simulation time: 1 hr 21 min 55 sec) 
Heartbeat CPU 0 instructions: 132000000 cycles: 157485447 heartbeat IPC: 0.340725 cumulative IPC: 0.646223 (Simulation time: 1 hr 22 min 29 sec) 
Heartbeat CPU 0 instructions: 133000000 cycles: 160035175 heartbeat IPC: 0.392199 cumulative IPC: 0.641219 (Simulation time: 1 hr 22 min 58 sec) 
Heartbeat CPU 0 instructions: 134000000 cycles: 161387087 heartbeat IPC: 0.739693 cumulative IPC: 0.642237 (Simulation time: 1 hr 23 min 13 sec) 
Heartbeat CPU 0 instructions: 135000001 cycles: 162651983 heartbeat IPC: 0.79058 cumulative IPC: 0.643658 (Simulation time: 1 hr 23 min 26 sec) 
Heartbeat CPU 0 instructions: 136000000 cycles: 163924833 heartbeat IPC: 0.785638 cumulative IPC: 0.645014 (Simulation time: 1 hr 23 min 41 sec) 
Heartbeat CPU 0 instructions: 137000001 cycles: 165344276 heartbeat IPC: 0.704502 cumulative IPC: 0.64564 (Simulation time: 1 hr 23 min 57 sec) 
Heartbeat CPU 0 instructions: 138000003 cycles: 166886362 heartbeat IPC: 0.648474 cumulative IPC: 0.645672 (Simulation time: 1 hr 24 min 12 sec) 
Heartbeat CPU 0 instructions: 139000001 cycles: 168391292 heartbeat IPC: 0.664481 cumulative IPC: 0.645878 (Simulation time: 1 hr 24 min 27 sec) 
Heartbeat CPU 0 instructions: 140000000 cycles: 169908112 heartbeat IPC: 0.659273 cumulative IPC: 0.646024 (Simulation time: 1 hr 24 min 41 sec) 
Heartbeat CPU 0 instructions: 141000003 cycles: 171422354 heartbeat IPC: 0.660398 cumulative IPC: 0.646178 (Simulation time: 1 hr 24 min 56 sec) 
Heartbeat CPU 0 instructions: 142000003 cycles: 172973556 heartbeat IPC: 0.644661 cumulative IPC: 0.646162 (Simulation time: 1 hr 25 min 11 sec) 
Heartbeat CPU 0 instructions: 143000003 cycles: 174480356 heartbeat IPC: 0.663658 cumulative IPC: 0.646345 (Simulation time: 1 hr 25 min 26 sec) 
Heartbeat CPU 0 instructions: 144000000 cycles: 175994694 heartbeat IPC: 0.660353 cumulative IPC: 0.646491 (Simulation time: 1 hr 25 min 41 sec) 
Heartbeat CPU 0 instructions: 145000001 cycles: 177541650 heartbeat IPC: 0.646431 cumulative IPC: 0.64649 (Simulation time: 1 hr 25 min 54 sec) 
Heartbeat CPU 0 instructions: 146000003 cycles: 179066300 heartbeat IPC: 0.65589 cumulative IPC: 0.646587 (Simulation time: 1 hr 26 min 7 sec) 
Heartbeat CPU 0 instructions: 147000001 cycles: 181107509 heartbeat IPC: 0.489905 cumulative IPC: 0.644462 (Simulation time: 1 hr 26 min 23 sec) 
Heartbeat CPU 0 instructions: 148000000 cycles: 183595102 heartbeat IPC: 0.401995 cumulative IPC: 0.640519 (Simulation time: 1 hr 26 min 37 sec) 
Heartbeat CPU 0 instructions: 149000003 cycles: 185981459 heartbeat IPC: 0.41905 cumulative IPC: 0.637118 (Simulation time: 1 hr 26 min 50 sec) 
Heartbeat CPU 0 instructions: 150000001 cycles: 188227588 heartbeat IPC: 0.44521 cumulative IPC: 0.634384 (Simulation time: 1 hr 27 min 4 sec) 
Finished CPU 0 instructions: 100000000 cycles: 157633284 cummulative IPC: 0.634384 (Simulation time: 1 hr 27 min 4 sec) 

ChampSim completed all CPUs

Region of Interest Statistics

CPU 0 cummulative IPC: 0.634384 instructions: 100000000 cycles: 157633284
LLC TOTAL     ACCESS:    4659938  HIT:    1258776  MISS:    3401162
LLC LOAD      ACCESS:     475618  HIT:     127366  MISS:     348252
LLC RFO       ACCESS:     797127  HIT:      91225  MISS:     705902
LLC PREFETCH  ACCESS:    2242743  HIT:     524034  MISS:    1718709
LLC WRITEBACK ACCESS:    1144450  HIT:     516151  MISS:     628299
OPTgen accesses: 23812
OPTgen hits: 11426
OPTgen hit rate: 47.9842


