
*** ChampSim Multicore Out-of-Order Simulator ***

Warmup Instructions: 50000000
Simulation Instructions: 100000000
Configuration: 2
Number of CPUs: 1
LLC sets: 2048
LLC ways: 16
Off-chip DRAM Channels: 1 Width: 64-bit Data Rate: 1600 MT/s

CPU 0 runs /datasets/cs240c-wi22-a00-public/data/Assignment2-gz/mcf_250B.trace.gz
CPU 0 L1D next line prefetcher
CPU 0 L2C IP-based stride prefetcher
Initialize Hawkeye state
Heartbeat CPU 0 instructions: 1000000 cycles: 532172 heartbeat IPC: 1.87909 cumulative IPC: 1.87909 (Simulation time: 0 hr 0 min 48 sec) 
Heartbeat CPU 0 instructions: 2000003 cycles: 1045292 heartbeat IPC: 1.94887 cumulative IPC: 1.91334 (Simulation time: 0 hr 1 min 34 sec) 
Heartbeat CPU 0 instructions: 3000002 cycles: 1542264 heartbeat IPC: 2.01218 cumulative IPC: 1.94519 (Simulation time: 0 hr 2 min 22 sec) 
Heartbeat CPU 0 instructions: 4000000 cycles: 2053802 heartbeat IPC: 1.95489 cumulative IPC: 1.94761 (Simulation time: 0 hr 3 min 9 sec) 
Heartbeat CPU 0 instructions: 5000002 cycles: 2560093 heartbeat IPC: 1.97515 cumulative IPC: 1.95305 (Simulation time: 0 hr 3 min 58 sec) 
Heartbeat CPU 0 instructions: 6000002 cycles: 3065714 heartbeat IPC: 1.97777 cumulative IPC: 1.95713 (Simulation time: 0 hr 4 min 49 sec) 
Heartbeat CPU 0 instructions: 7000002 cycles: 3605561 heartbeat IPC: 1.85238 cumulative IPC: 1.94145 (Simulation time: 0 hr 5 min 34 sec) 
Heartbeat CPU 0 instructions: 8000000 cycles: 4120454 heartbeat IPC: 1.94215 cumulative IPC: 1.94153 (Simulation time: 0 hr 6 min 24 sec) 
Heartbeat CPU 0 instructions: 9000002 cycles: 4634906 heartbeat IPC: 1.94382 cumulative IPC: 1.94179 (Simulation time: 0 hr 7 min 12 sec) 
Heartbeat CPU 0 instructions: 10000000 cycles: 5146252 heartbeat IPC: 1.95562 cumulative IPC: 1.94316 (Simulation time: 0 hr 7 min 59 sec) 
Heartbeat CPU 0 instructions: 11000001 cycles: 5658496 heartbeat IPC: 1.9522 cumulative IPC: 1.94398 (Simulation time: 0 hr 8 min 45 sec) 
Heartbeat CPU 0 instructions: 12000000 cycles: 6192318 heartbeat IPC: 1.87328 cumulative IPC: 1.93788 (Simulation time: 0 hr 9 min 29 sec) 
Heartbeat CPU 0 instructions: 13000001 cycles: 6711852 heartbeat IPC: 1.9248 cumulative IPC: 1.93687 (Simulation time: 0 hr 10 min 11 sec) 
Heartbeat CPU 0 instructions: 14000003 cycles: 7224757 heartbeat IPC: 1.94968 cumulative IPC: 1.93778 (Simulation time: 0 hr 10 min 54 sec) 
Heartbeat CPU 0 instructions: 15000002 cycles: 7737873 heartbeat IPC: 1.94888 cumulative IPC: 1.93852 (Simulation time: 0 hr 11 min 40 sec) 
Heartbeat CPU 0 instructions: 16000000 cycles: 8247117 heartbeat IPC: 1.96369 cumulative IPC: 1.94007 (Simulation time: 0 hr 12 min 27 sec) 
Heartbeat CPU 0 instructions: 17000000 cycles: 8758824 heartbeat IPC: 1.95424 cumulative IPC: 1.9409 (Simulation time: 0 hr 13 min 16 sec) 
Heartbeat CPU 0 instructions: 18000002 cycles: 9268284 heartbeat IPC: 1.96287 cumulative IPC: 1.94211 (Simulation time: 0 hr 14 min 3 sec) 
Heartbeat CPU 0 instructions: 19000001 cycles: 9780213 heartbeat IPC: 1.95339 cumulative IPC: 1.9427 (Simulation time: 0 hr 14 min 46 sec) 
Heartbeat CPU 0 instructions: 20000000 cycles: 10291256 heartbeat IPC: 1.95678 cumulative IPC: 1.9434 (Simulation time: 0 hr 15 min 34 sec) 
Heartbeat CPU 0 instructions: 21000001 cycles: 10798112 heartbeat IPC: 1.97295 cumulative IPC: 1.94478 (Simulation time: 0 hr 16 min 19 sec) 
Heartbeat CPU 0 instructions: 22000000 cycles: 11302755 heartbeat IPC: 1.9816 cumulative IPC: 1.94643 (Simulation time: 0 hr 17 min 1 sec) 
Heartbeat CPU 0 instructions: 23000003 cycles: 11811490 heartbeat IPC: 1.96567 cumulative IPC: 1.94726 (Simulation time: 0 hr 17 min 49 sec) 
Heartbeat CPU 0 instructions: 24000000 cycles: 12318830 heartbeat IPC: 1.97106 cumulative IPC: 1.94824 (Simulation time: 0 hr 18 min 35 sec) 
Heartbeat CPU 0 instructions: 25000002 cycles: 12828379 heartbeat IPC: 1.96252 cumulative IPC: 1.9488 (Simulation time: 0 hr 19 min 23 sec) 
Heartbeat CPU 0 instructions: 26000000 cycles: 13341939 heartbeat IPC: 1.94719 cumulative IPC: 1.94874 (Simulation time: 0 hr 20 min 11 sec) 
Heartbeat CPU 0 instructions: 27000003 cycles: 13856333 heartbeat IPC: 1.94404 cumulative IPC: 1.94857 (Simulation time: 0 hr 20 min 58 sec) 
Heartbeat CPU 0 instructions: 28000000 cycles: 14370510 heartbeat IPC: 1.94485 cumulative IPC: 1.94843 (Simulation time: 0 hr 21 min 49 sec) 
Heartbeat CPU 0 instructions: 29000000 cycles: 14885292 heartbeat IPC: 1.94257 cumulative IPC: 1.94823 (Simulation time: 0 hr 22 min 36 sec) 
Heartbeat CPU 0 instructions: 30000000 cycles: 15399709 heartbeat IPC: 1.94395 cumulative IPC: 1.94809 (Simulation time: 0 hr 23 min 20 sec) 
Heartbeat CPU 0 instructions: 31000000 cycles: 15913312 heartbeat IPC: 1.94703 cumulative IPC: 1.94805 (Simulation time: 0 hr 24 min 3 sec) 
Heartbeat CPU 0 instructions: 32000000 cycles: 16421772 heartbeat IPC: 1.96672 cumulative IPC: 1.94863 (Simulation time: 0 hr 24 min 43 sec) 
Heartbeat CPU 0 instructions: 33000002 cycles: 16934898 heartbeat IPC: 1.94884 cumulative IPC: 1.94864 (Simulation time: 0 hr 25 min 31 sec) 
Heartbeat CPU 0 instructions: 34000000 cycles: 17448788 heartbeat IPC: 1.94594 cumulative IPC: 1.94856 (Simulation time: 0 hr 26 min 17 sec) 
Heartbeat CPU 0 instructions: 35000000 cycles: 17973951 heartbeat IPC: 1.90417 cumulative IPC: 1.94726 (Simulation time: 0 hr 27 min 2 sec) 
Heartbeat CPU 0 instructions: 36000000 cycles: 18502535 heartbeat IPC: 1.89185 cumulative IPC: 1.94568 (Simulation time: 0 hr 27 min 45 sec) 
Heartbeat CPU 0 instructions: 37000002 cycles: 19015798 heartbeat IPC: 1.94832 cumulative IPC: 1.94575 (Simulation time: 0 hr 28 min 32 sec) 
Heartbeat CPU 0 instructions: 38000000 cycles: 19529132 heartbeat IPC: 1.94805 cumulative IPC: 1.94581 (Simulation time: 0 hr 29 min 17 sec) 
Heartbeat CPU 0 instructions: 39000002 cycles: 20042476 heartbeat IPC: 1.94802 cumulative IPC: 1.94587 (Simulation time: 0 hr 30 min 7 sec) 
Heartbeat CPU 0 instructions: 40000000 cycles: 20556983 heartbeat IPC: 1.9436 cumulative IPC: 1.94581 (Simulation time: 0 hr 30 min 50 sec) 
Heartbeat CPU 0 instructions: 41000000 cycles: 21071503 heartbeat IPC: 1.94356 cumulative IPC: 1.94576 (Simulation time: 0 hr 31 min 35 sec) 
Heartbeat CPU 0 instructions: 42000001 cycles: 21586702 heartbeat IPC: 1.941 cumulative IPC: 1.94564 (Simulation time: 0 hr 32 min 19 sec) 
Heartbeat CPU 0 instructions: 43000000 cycles: 22099472 heartbeat IPC: 1.95019 cumulative IPC: 1.94575 (Simulation time: 0 hr 33 min 0 sec) 
Heartbeat CPU 0 instructions: 44000000 cycles: 22612447 heartbeat IPC: 1.94941 cumulative IPC: 1.94583 (Simulation time: 0 hr 33 min 45 sec) 
Heartbeat CPU 0 instructions: 45000001 cycles: 23126484 heartbeat IPC: 1.94539 cumulative IPC: 1.94582 (Simulation time: 0 hr 34 min 31 sec) 
Heartbeat CPU 0 instructions: 46000002 cycles: 23640832 heartbeat IPC: 1.94421 cumulative IPC: 1.94579 (Simulation time: 0 hr 35 min 21 sec) 
Heartbeat CPU 0 instructions: 47000002 cycles: 24155259 heartbeat IPC: 1.94391 cumulative IPC: 1.94575 (Simulation time: 0 hr 36 min 4 sec) 
Heartbeat CPU 0 instructions: 48000000 cycles: 24669453 heartbeat IPC: 1.94479 cumulative IPC: 1.94573 (Simulation time: 0 hr 36 min 47 sec) 
Heartbeat CPU 0 instructions: 49000000 cycles: 25183530 heartbeat IPC: 1.94523 cumulative IPC: 1.94572 (Simulation time: 0 hr 37 min 31 sec) 
Heartbeat CPU 0 instructions: 50000002 cycles: 25697094 heartbeat IPC: 1.94718 cumulative IPC: 1.94575 (Simulation time: 0 hr 38 min 21 sec) 

Warmup complete CPU 0 instructions: 50000002 cycles: 25697094 (Simulation time: 0 hr 38 min 21 sec) 

Heartbeat CPU 0 instructions: 51000002 cycles: 34926244 heartbeat IPC: 0.108352 cumulative IPC: 0.108352 (Simulation time: 0 hr 39 min 23 sec) 
Heartbeat CPU 0 instructions: 52000000 cycles: 44126377 heartbeat IPC: 0.108694 cumulative IPC: 0.108523 (Simulation time: 0 hr 40 min 22 sec) 
Heartbeat CPU 0 instructions: 53000000 cycles: 53434858 heartbeat IPC: 0.107429 cumulative IPC: 0.108156 (Simulation time: 0 hr 41 min 27 sec) 
Heartbeat CPU 0 instructions: 54000000 cycles: 62603056 heartbeat IPC: 0.109073 cumulative IPC: 0.108384 (Simulation time: 0 hr 42 min 28 sec) 
Heartbeat CPU 0 instructions: 55000000 cycles: 71774106 heartbeat IPC: 0.109039 cumulative IPC: 0.108514 (Simulation time: 0 hr 43 min 26 sec) 
Heartbeat CPU 0 instructions: 56000000 cycles: 80935667 heartbeat IPC: 0.109152 cumulative IPC: 0.10862 (Simulation time: 0 hr 44 min 26 sec) 
Heartbeat CPU 0 instructions: 57000000 cycles: 90144896 heartbeat IPC: 0.108587 cumulative IPC: 0.108615 (Simulation time: 0 hr 45 min 27 sec) 
Heartbeat CPU 0 instructions: 58000000 cycles: 99249697 heartbeat IPC: 0.109832 cumulative IPC: 0.108766 (Simulation time: 0 hr 46 min 26 sec) 
Heartbeat CPU 0 instructions: 59000001 cycles: 108341456 heartbeat IPC: 0.10999 cumulative IPC: 0.1089 (Simulation time: 0 hr 47 min 23 sec) 
Heartbeat CPU 0 instructions: 60000000 cycles: 117416784 heartbeat IPC: 0.110189 cumulative IPC: 0.109028 (Simulation time: 0 hr 48 min 24 sec) 
Heartbeat CPU 0 instructions: 61000001 cycles: 126450936 heartbeat IPC: 0.110691 cumulative IPC: 0.109177 (Simulation time: 0 hr 49 min 26 sec) 
Heartbeat CPU 0 instructions: 62000000 cycles: 134023752 heartbeat IPC: 0.132051 cumulative IPC: 0.110776 (Simulation time: 0 hr 50 min 28 sec) 
Heartbeat CPU 0 instructions: 63000001 cycles: 142693182 heartbeat IPC: 0.115348 cumulative IPC: 0.111115 (Simulation time: 0 hr 51 min 29 sec) 
Heartbeat CPU 0 instructions: 64000000 cycles: 151806770 heartbeat IPC: 0.109726 cumulative IPC: 0.111014 (Simulation time: 0 hr 52 min 28 sec) 
Heartbeat CPU 0 instructions: 65000000 cycles: 160168644 heartbeat IPC: 0.11959 cumulative IPC: 0.111548 (Simulation time: 0 hr 53 min 24 sec) 
Heartbeat CPU 0 instructions: 66000000 cycles: 169098819 heartbeat IPC: 0.11198 cumulative IPC: 0.111575 (Simulation time: 0 hr 54 min 25 sec) 
Heartbeat CPU 0 instructions: 67000000 cycles: 178172783 heartbeat IPC: 0.110205 cumulative IPC: 0.111493 (Simulation time: 0 hr 55 min 27 sec) 
Heartbeat CPU 0 instructions: 68000000 cycles: 187227120 heartbeat IPC: 0.110444 cumulative IPC: 0.111434 (Simulation time: 0 hr 56 min 28 sec) 
Heartbeat CPU 0 instructions: 69000000 cycles: 196053591 heartbeat IPC: 0.113296 cumulative IPC: 0.111531 (Simulation time: 0 hr 57 min 24 sec) 
Heartbeat CPU 0 instructions: 70000000 cycles: 205171723 heartbeat IPC: 0.109672 cumulative IPC: 0.111436 (Simulation time: 0 hr 58 min 25 sec) 
Heartbeat CPU 0 instructions: 71000000 cycles: 214091991 heartbeat IPC: 0.112104 cumulative IPC: 0.111468 (Simulation time: 0 hr 59 min 26 sec) 
Heartbeat CPU 0 instructions: 72000000 cycles: 222904678 heartbeat IPC: 0.113473 cumulative IPC: 0.111558 (Simulation time: 1 hr 0 min 34 sec) 
Heartbeat CPU 0 instructions: 73000001 cycles: 231903909 heartbeat IPC: 0.111121 cumulative IPC: 0.111538 (Simulation time: 1 hr 1 min 35 sec) 
Heartbeat CPU 0 instructions: 74000001 cycles: 240761766 heartbeat IPC: 0.112894 cumulative IPC: 0.111594 (Simulation time: 1 hr 2 min 31 sec) 
Heartbeat CPU 0 instructions: 75000002 cycles: 249554071 heartbeat IPC: 0.113736 cumulative IPC: 0.111678 (Simulation time: 1 hr 3 min 30 sec) 
Heartbeat CPU 0 instructions: 76000000 cycles: 258666681 heartbeat IPC: 0.109738 cumulative IPC: 0.111603 (Simulation time: 1 hr 4 min 37 sec) 
Heartbeat CPU 0 instructions: 77000003 cycles: 272773214 heartbeat IPC: 0.0708894 cumulative IPC: 0.109278 (Simulation time: 1 hr 5 min 51 sec) 
Heartbeat CPU 0 instructions: 78000000 cycles: 283007028 heartbeat IPC: 0.097715 cumulative IPC: 0.108818 (Simulation time: 1 hr 6 min 53 sec) 
Heartbeat CPU 0 instructions: 79000000 cycles: 291836780 heartbeat IPC: 0.113253 cumulative IPC: 0.108965 (Simulation time: 1 hr 7 min 55 sec) 
Heartbeat CPU 0 instructions: 80000000 cycles: 300584744 heartbeat IPC: 0.114312 cumulative IPC: 0.109135 (Simulation time: 1 hr 9 min 4 sec) 
Heartbeat CPU 0 instructions: 81000001 cycles: 309568935 heartbeat IPC: 0.111307 cumulative IPC: 0.109204 (Simulation time: 1 hr 10 min 6 sec) 
Heartbeat CPU 0 instructions: 82000001 cycles: 317683678 heartbeat IPC: 0.123232 cumulative IPC: 0.109594 (Simulation time: 1 hr 11 min 0 sec) 
Heartbeat CPU 0 instructions: 83000002 cycles: 325275302 heartbeat IPC: 0.131724 cumulative IPC: 0.110155 (Simulation time: 1 hr 11 min 52 sec) 
Heartbeat CPU 0 instructions: 84000000 cycles: 332657468 heartbeat IPC: 0.135461 cumulative IPC: 0.110763 (Simulation time: 1 hr 12 min 45 sec) 
Heartbeat CPU 0 instructions: 85000000 cycles: 340493055 heartbeat IPC: 0.127623 cumulative IPC: 0.111183 (Simulation time: 1 hr 13 min 32 sec) 
Heartbeat CPU 0 instructions: 86000001 cycles: 348014845 heartbeat IPC: 0.132947 cumulative IPC: 0.111691 (Simulation time: 1 hr 14 min 17 sec) 
Heartbeat CPU 0 instructions: 87000001 cycles: 361093997 heartbeat IPC: 0.0764576 cumulative IPC: 0.110317 (Simulation time: 1 hr 15 min 14 sec) 
Heartbeat CPU 0 instructions: 88000000 cycles: 371367769 heartbeat IPC: 0.0973351 cumulative IPC: 0.109931 (Simulation time: 1 hr 15 min 58 sec) 
Heartbeat CPU 0 instructions: 89000001 cycles: 379324985 heartbeat IPC: 0.125672 cumulative IPC: 0.110285 (Simulation time: 1 hr 16 min 38 sec) 
Heartbeat CPU 0 instructions: 90000001 cycles: 385952658 heartbeat IPC: 0.150883 cumulative IPC: 0.111032 (Simulation time: 1 hr 17 min 14 sec) 
Heartbeat CPU 0 instructions: 91000000 cycles: 395799447 heartbeat IPC: 0.101556 cumulative IPC: 0.11078 (Simulation time: 1 hr 17 min 50 sec) 
Heartbeat CPU 0 instructions: 92000000 cycles: 403735902 heartbeat IPC: 0.126001 cumulative IPC: 0.1111 (Simulation time: 1 hr 18 min 24 sec) 
Heartbeat CPU 0 instructions: 93000000 cycles: 412874429 heartbeat IPC: 0.109427 cumulative IPC: 0.11106 (Simulation time: 1 hr 19 min 0 sec) 
Heartbeat CPU 0 instructions: 94000000 cycles: 421999453 heartbeat IPC: 0.109589 cumulative IPC: 0.111026 (Simulation time: 1 hr 19 min 35 sec) 
Heartbeat CPU 0 instructions: 95000000 cycles: 431007738 heartbeat IPC: 0.111009 cumulative IPC: 0.111026 (Simulation time: 1 hr 20 min 7 sec) 
Heartbeat CPU 0 instructions: 96000000 cycles: 440347526 heartbeat IPC: 0.107069 cumulative IPC: 0.110937 (Simulation time: 1 hr 20 min 40 sec) 
Heartbeat CPU 0 instructions: 97000000 cycles: 449329109 heartbeat IPC: 0.111339 cumulative IPC: 0.110945 (Simulation time: 1 hr 21 min 13 sec) 
Heartbeat CPU 0 instructions: 98000000 cycles: 458585031 heartbeat IPC: 0.108039 cumulative IPC: 0.110883 (Simulation time: 1 hr 21 min 47 sec) 
Heartbeat CPU 0 instructions: 99000000 cycles: 467738810 heartbeat IPC: 0.109244 cumulative IPC: 0.110849 (Simulation time: 1 hr 22 min 19 sec) 
Heartbeat CPU 0 instructions: 100000000 cycles: 476791969 heartbeat IPC: 0.110459 cumulative IPC: 0.110841 (Simulation time: 1 hr 22 min 50 sec) 
Heartbeat CPU 0 instructions: 101000002 cycles: 485884738 heartbeat IPC: 0.109978 cumulative IPC: 0.110824 (Simulation time: 1 hr 23 min 19 sec) 
Heartbeat CPU 0 instructions: 102000000 cycles: 495228037 heartbeat IPC: 0.107028 cumulative IPC: 0.110749 (Simulation time: 1 hr 23 min 47 sec) 
Heartbeat CPU 0 instructions: 103000000 cycles: 504706598 heartbeat IPC: 0.105501 cumulative IPC: 0.110645 (Simulation time: 1 hr 24 min 15 sec) 
Heartbeat CPU 0 instructions: 104000000 cycles: 514103068 heartbeat IPC: 0.106423 cumulative IPC: 0.110564 (Simulation time: 1 hr 24 min 40 sec) 
Heartbeat CPU 0 instructions: 105000000 cycles: 523483844 heartbeat IPC: 0.106601 cumulative IPC: 0.110489 (Simulation time: 1 hr 25 min 5 sec) 
Heartbeat CPU 0 instructions: 106000003 cycles: 532656462 heartbeat IPC: 0.10902 cumulative IPC: 0.110463 (Simulation time: 1 hr 25 min 28 sec) 
Heartbeat CPU 0 instructions: 107000003 cycles: 541793264 heartbeat IPC: 0.109447 cumulative IPC: 0.110445 (Simulation time: 1 hr 25 min 52 sec) 
Heartbeat CPU 0 instructions: 108000000 cycles: 551000729 heartbeat IPC: 0.108607 cumulative IPC: 0.110412 (Simulation time: 1 hr 26 min 16 sec) 
Heartbeat CPU 0 instructions: 109000000 cycles: 560149619 heartbeat IPC: 0.109303 cumulative IPC: 0.110393 (Simulation time: 1 hr 26 min 38 sec) 
Heartbeat CPU 0 instructions: 110000000 cycles: 569132394 heartbeat IPC: 0.111324 cumulative IPC: 0.110409 (Simulation time: 1 hr 26 min 56 sec) 
Heartbeat CPU 0 instructions: 111000000 cycles: 578079937 heartbeat IPC: 0.111763 cumulative IPC: 0.110431 (Simulation time: 1 hr 27 min 12 sec) 
Heartbeat CPU 0 instructions: 112000000 cycles: 587063534 heartbeat IPC: 0.111314 cumulative IPC: 0.110445 (Simulation time: 1 hr 27 min 26 sec) 
Heartbeat CPU 0 instructions: 113000001 cycles: 596080006 heartbeat IPC: 0.110908 cumulative IPC: 0.110452 (Simulation time: 1 hr 27 min 41 sec) 
Heartbeat CPU 0 instructions: 114000000 cycles: 605070864 heartbeat IPC: 0.111224 cumulative IPC: 0.110464 (Simulation time: 1 hr 27 min 53 sec) 
Heartbeat CPU 0 instructions: 115000000 cycles: 614115089 heartbeat IPC: 0.110568 cumulative IPC: 0.110466 (Simulation time: 1 hr 28 min 4 sec) 
Heartbeat CPU 0 instructions: 116000000 cycles: 623311509 heartbeat IPC: 0.108738 cumulative IPC: 0.110439 (Simulation time: 1 hr 28 min 13 sec) 
Heartbeat CPU 0 instructions: 117000001 cycles: 632479907 heartbeat IPC: 0.10907 cumulative IPC: 0.110418 (Simulation time: 1 hr 28 min 23 sec) 
Heartbeat CPU 0 instructions: 118000000 cycles: 641546964 heartbeat IPC: 0.110289 cumulative IPC: 0.110417 (Simulation time: 1 hr 28 min 33 sec) 
Heartbeat CPU 0 instructions: 119000000 cycles: 650568496 heartbeat IPC: 0.110846 cumulative IPC: 0.110423 (Simulation time: 1 hr 28 min 41 sec) 
Heartbeat CPU 0 instructions: 120000000 cycles: 659737701 heartbeat IPC: 0.109061 cumulative IPC: 0.110403 (Simulation time: 1 hr 28 min 50 sec) 
Heartbeat CPU 0 instructions: 121000000 cycles: 668822143 heartbeat IPC: 0.110078 cumulative IPC: 0.110398 (Simulation time: 1 hr 28 min 59 sec) 
Heartbeat CPU 0 instructions: 122000001 cycles: 677815728 heartbeat IPC: 0.11119 cumulative IPC: 0.110409 (Simulation time: 1 hr 29 min 7 sec) 
Heartbeat CPU 0 instructions: 123000002 cycles: 686940901 heartbeat IPC: 0.109587 cumulative IPC: 0.110398 (Simulation time: 1 hr 29 min 15 sec) 
Heartbeat CPU 0 instructions: 124000000 cycles: 696094040 heartbeat IPC: 0.109252 cumulative IPC: 0.110382 (Simulation time: 1 hr 29 min 21 sec) 
Heartbeat CPU 0 instructions: 125000001 cycles: 705557014 heartbeat IPC: 0.105675 cumulative IPC: 0.110317 (Simulation time: 1 hr 29 min 29 sec) 
Heartbeat CPU 0 instructions: 126000002 cycles: 714795285 heartbeat IPC: 0.108245 cumulative IPC: 0.110289 (Simulation time: 1 hr 29 min 38 sec) 
Heartbeat CPU 0 instructions: 127000000 cycles: 723983351 heartbeat IPC: 0.108837 cumulative IPC: 0.11027 (Simulation time: 1 hr 29 min 46 sec) 
Heartbeat CPU 0 instructions: 128000000 cycles: 733348604 heartbeat IPC: 0.106778 cumulative IPC: 0.110224 (Simulation time: 1 hr 29 min 54 sec) 
Heartbeat CPU 0 instructions: 129000001 cycles: 742884878 heartbeat IPC: 0.104863 cumulative IPC: 0.110152 (Simulation time: 1 hr 30 min 1 sec) 
Heartbeat CPU 0 instructions: 130000000 cycles: 752347335 heartbeat IPC: 0.105681 cumulative IPC: 0.110094 (Simulation time: 1 hr 30 min 9 sec) 
Heartbeat CPU 0 instructions: 131000000 cycles: 761627773 heartbeat IPC: 0.107754 cumulative IPC: 0.110065 (Simulation time: 1 hr 30 min 17 sec) 
Heartbeat CPU 0 instructions: 132000000 cycles: 770642782 heartbeat IPC: 0.110926 cumulative IPC: 0.110075 (Simulation time: 1 hr 30 min 26 sec) 
Heartbeat CPU 0 instructions: 133000000 cycles: 779695612 heartbeat IPC: 0.110463 cumulative IPC: 0.11008 (Simulation time: 1 hr 30 min 34 sec) 
Heartbeat CPU 0 instructions: 134000002 cycles: 788810042 heartbeat IPC: 0.109716 cumulative IPC: 0.110075 (Simulation time: 1 hr 30 min 42 sec) 
Heartbeat CPU 0 instructions: 135000002 cycles: 797895305 heartbeat IPC: 0.110068 cumulative IPC: 0.110075 (Simulation time: 1 hr 30 min 50 sec) 
Heartbeat CPU 0 instructions: 136000000 cycles: 807080089 heartbeat IPC: 0.108876 cumulative IPC: 0.110061 (Simulation time: 1 hr 30 min 59 sec) 
Heartbeat CPU 0 instructions: 137000000 cycles: 816237707 heartbeat IPC: 0.109199 cumulative IPC: 0.110051 (Simulation time: 1 hr 31 min 7 sec) 
Heartbeat CPU 0 instructions: 138000000 cycles: 825278149 heartbeat IPC: 0.110614 cumulative IPC: 0.110058 (Simulation time: 1 hr 31 min 15 sec) 
Heartbeat CPU 0 instructions: 139000001 cycles: 834306898 heartbeat IPC: 0.110757 cumulative IPC: 0.110065 (Simulation time: 1 hr 31 min 23 sec) 
Heartbeat CPU 0 instructions: 140000000 cycles: 843358431 heartbeat IPC: 0.110478 cumulative IPC: 0.11007 (Simulation time: 1 hr 31 min 31 sec) 
Heartbeat CPU 0 instructions: 141000002 cycles: 856948013 heartbeat IPC: 0.0735859 cumulative IPC: 0.109474 (Simulation time: 1 hr 31 min 42 sec) 
Heartbeat CPU 0 instructions: 142000002 cycles: 867319621 heartbeat IPC: 0.0964171 cumulative IPC: 0.109313 (Simulation time: 1 hr 31 min 50 sec) 
Heartbeat CPU 0 instructions: 143000001 cycles: 876365190 heartbeat IPC: 0.110551 cumulative IPC: 0.109326 (Simulation time: 1 hr 31 min 57 sec) 
Heartbeat CPU 0 instructions: 144000000 cycles: 885329826 heartbeat IPC: 0.111549 cumulative IPC: 0.109349 (Simulation time: 1 hr 32 min 5 sec) 
Heartbeat CPU 0 instructions: 145000000 cycles: 894396509 heartbeat IPC: 0.110294 cumulative IPC: 0.109359 (Simulation time: 1 hr 32 min 13 sec) 
Heartbeat CPU 0 instructions: 146000001 cycles: 903094853 heartbeat IPC: 0.114965 cumulative IPC: 0.109414 (Simulation time: 1 hr 32 min 21 sec) 
Heartbeat CPU 0 instructions: 147000001 cycles: 911574601 heartbeat IPC: 0.117928 cumulative IPC: 0.109496 (Simulation time: 1 hr 32 min 28 sec) 
Heartbeat CPU 0 instructions: 148000000 cycles: 920179202 heartbeat IPC: 0.116217 cumulative IPC: 0.109561 (Simulation time: 1 hr 32 min 35 sec) 
Heartbeat CPU 0 instructions: 149000001 cycles: 928514716 heartbeat IPC: 0.119969 cumulative IPC: 0.109657 (Simulation time: 1 hr 32 min 43 sec) 
Heartbeat CPU 0 instructions: 150000001 cycles: 937144436 heartbeat IPC: 0.115879 cumulative IPC: 0.109716 (Simulation time: 1 hr 32 min 51 sec) 
Finished CPU 0 instructions: 100000001 cycles: 911447391 cummulative IPC: 0.109716 (Simulation time: 1 hr 32 min 51 sec) 

ChampSim completed all CPUs

Region of Interest Statistics

CPU 0 cummulative IPC: 0.109716 instructions: 100000001 cycles: 911447391
LLC TOTAL     ACCESS:   27038542  HIT:   15462004  MISS:   11576538
LLC LOAD      ACCESS:   11745694  HIT:    8849966  MISS:    2895728
LLC RFO       ACCESS:      20877  HIT:       6790  MISS:      14087
LLC PREFETCH  ACCESS:   14998541  HIT:    6409142  MISS:    8589399
LLC WRITEBACK ACCESS:     273430  HIT:     196106  MISS:      77324
OPTgen accesses: 279143
OPTgen hits: 295019
OPTgen hit rate: 105.687


