
*** ChampSim Multicore Out-of-Order Simulator ***

Warmup Instructions: 50000000
Simulation Instructions: 100000000
Configuration: 2
Number of CPUs: 1
LLC sets: 2048
LLC ways: 16
Off-chip DRAM Channels: 1 Width: 64-bit Data Rate: 1600 MT/s

CPU 0 runs /datasets/cs240c-wi22-a00-public/data/Assignment2-gz/GemsFDTD_712B.trace.gz
CPU 0 L1D next line prefetcher
CPU 0 L2C IP-based stride prefetcher
Initialize Hawkeye state
Heartbeat CPU 0 instructions: 1000003 cycles: 634340 heartbeat IPC: 1.57645 cumulative IPC: 1.57645 (Simulation time: 0 hr 0 min 48 sec) 
Heartbeat CPU 0 instructions: 2000000 cycles: 1268289 heartbeat IPC: 1.57741 cumulative IPC: 1.57693 (Simulation time: 0 hr 1 min 30 sec) 
Heartbeat CPU 0 instructions: 3000000 cycles: 1902273 heartbeat IPC: 1.57733 cumulative IPC: 1.57706 (Simulation time: 0 hr 2 min 7 sec) 
Heartbeat CPU 0 instructions: 4000000 cycles: 2535976 heartbeat IPC: 1.57803 cumulative IPC: 1.5773 (Simulation time: 0 hr 2 min 49 sec) 
Heartbeat CPU 0 instructions: 5000003 cycles: 3170131 heartbeat IPC: 1.57691 cumulative IPC: 1.57722 (Simulation time: 0 hr 3 min 33 sec) 
Heartbeat CPU 0 instructions: 6000002 cycles: 3804028 heartbeat IPC: 1.57754 cumulative IPC: 1.57728 (Simulation time: 0 hr 4 min 10 sec) 
Heartbeat CPU 0 instructions: 7000001 cycles: 4438178 heartbeat IPC: 1.57691 cumulative IPC: 1.57722 (Simulation time: 0 hr 4 min 47 sec) 
Heartbeat CPU 0 instructions: 8000000 cycles: 5072006 heartbeat IPC: 1.57771 cumulative IPC: 1.57729 (Simulation time: 0 hr 5 min 28 sec) 
Heartbeat CPU 0 instructions: 9000001 cycles: 5706113 heartbeat IPC: 1.57702 cumulative IPC: 1.57726 (Simulation time: 0 hr 6 min 8 sec) 
Heartbeat CPU 0 instructions: 10000002 cycles: 6339882 heartbeat IPC: 1.57786 cumulative IPC: 1.57732 (Simulation time: 0 hr 6 min 48 sec) 
Heartbeat CPU 0 instructions: 11000002 cycles: 6973665 heartbeat IPC: 1.57783 cumulative IPC: 1.57736 (Simulation time: 0 hr 7 min 27 sec) 
Heartbeat CPU 0 instructions: 12000000 cycles: 7607627 heartbeat IPC: 1.57738 cumulative IPC: 1.57736 (Simulation time: 0 hr 8 min 10 sec) 
Heartbeat CPU 0 instructions: 13000000 cycles: 8241675 heartbeat IPC: 1.57717 cumulative IPC: 1.57735 (Simulation time: 0 hr 8 min 50 sec) 
Heartbeat CPU 0 instructions: 14000001 cycles: 8875819 heartbeat IPC: 1.57693 cumulative IPC: 1.57732 (Simulation time: 0 hr 9 min 29 sec) 
Heartbeat CPU 0 instructions: 15000001 cycles: 9509889 heartbeat IPC: 1.57711 cumulative IPC: 1.57731 (Simulation time: 0 hr 10 min 7 sec) 
Heartbeat CPU 0 instructions: 16000000 cycles: 10143689 heartbeat IPC: 1.57778 cumulative IPC: 1.57734 (Simulation time: 0 hr 10 min 45 sec) 
Heartbeat CPU 0 instructions: 17000000 cycles: 10777662 heartbeat IPC: 1.57735 cumulative IPC: 1.57734 (Simulation time: 0 hr 11 min 25 sec) 
Heartbeat CPU 0 instructions: 18000003 cycles: 11411516 heartbeat IPC: 1.57766 cumulative IPC: 1.57735 (Simulation time: 0 hr 12 min 4 sec) 
Heartbeat CPU 0 instructions: 19000000 cycles: 12045538 heartbeat IPC: 1.57723 cumulative IPC: 1.57735 (Simulation time: 0 hr 12 min 42 sec) 
Heartbeat CPU 0 instructions: 20000000 cycles: 12679582 heartbeat IPC: 1.57718 cumulative IPC: 1.57734 (Simulation time: 0 hr 13 min 24 sec) 
Heartbeat CPU 0 instructions: 21000002 cycles: 13313738 heartbeat IPC: 1.5769 cumulative IPC: 1.57732 (Simulation time: 0 hr 14 min 4 sec) 
Heartbeat CPU 0 instructions: 22000000 cycles: 13947561 heartbeat IPC: 1.57772 cumulative IPC: 1.57734 (Simulation time: 0 hr 14 min 45 sec) 
Heartbeat CPU 0 instructions: 23000002 cycles: 14581493 heartbeat IPC: 1.57746 cumulative IPC: 1.57734 (Simulation time: 0 hr 15 min 21 sec) 
Heartbeat CPU 0 instructions: 24000000 cycles: 15215397 heartbeat IPC: 1.57752 cumulative IPC: 1.57735 (Simulation time: 0 hr 15 min 58 sec) 
Heartbeat CPU 0 instructions: 25000000 cycles: 15849451 heartbeat IPC: 1.57715 cumulative IPC: 1.57734 (Simulation time: 0 hr 16 min 33 sec) 
Heartbeat CPU 0 instructions: 26000002 cycles: 16483541 heartbeat IPC: 1.57707 cumulative IPC: 1.57733 (Simulation time: 0 hr 17 min 9 sec) 
Heartbeat CPU 0 instructions: 27000002 cycles: 17117587 heartbeat IPC: 1.57717 cumulative IPC: 1.57733 (Simulation time: 0 hr 17 min 47 sec) 
Heartbeat CPU 0 instructions: 28000000 cycles: 17751480 heartbeat IPC: 1.57755 cumulative IPC: 1.57733 (Simulation time: 0 hr 18 min 26 sec) 
Heartbeat CPU 0 instructions: 29000001 cycles: 18385488 heartbeat IPC: 1.57727 cumulative IPC: 1.57733 (Simulation time: 0 hr 19 min 5 sec) 
Heartbeat CPU 0 instructions: 30000000 cycles: 19019308 heartbeat IPC: 1.57773 cumulative IPC: 1.57734 (Simulation time: 0 hr 19 min 46 sec) 
Heartbeat CPU 0 instructions: 31000001 cycles: 19653211 heartbeat IPC: 1.57753 cumulative IPC: 1.57735 (Simulation time: 0 hr 20 min 27 sec) 
Heartbeat CPU 0 instructions: 32000000 cycles: 20287222 heartbeat IPC: 1.57726 cumulative IPC: 1.57735 (Simulation time: 0 hr 21 min 5 sec) 
Heartbeat CPU 0 instructions: 33000003 cycles: 20921397 heartbeat IPC: 1.57686 cumulative IPC: 1.57733 (Simulation time: 0 hr 21 min 40 sec) 
Heartbeat CPU 0 instructions: 34000001 cycles: 21555312 heartbeat IPC: 1.5775 cumulative IPC: 1.57734 (Simulation time: 0 hr 22 min 19 sec) 
Heartbeat CPU 0 instructions: 35000002 cycles: 22189238 heartbeat IPC: 1.57747 cumulative IPC: 1.57734 (Simulation time: 0 hr 23 min 2 sec) 
Heartbeat CPU 0 instructions: 36000000 cycles: 22823001 heartbeat IPC: 1.57787 cumulative IPC: 1.57736 (Simulation time: 0 hr 23 min 42 sec) 
Heartbeat CPU 0 instructions: 37000000 cycles: 23456982 heartbeat IPC: 1.57733 cumulative IPC: 1.57736 (Simulation time: 0 hr 24 min 19 sec) 
Heartbeat CPU 0 instructions: 38000003 cycles: 24090886 heartbeat IPC: 1.57753 cumulative IPC: 1.57736 (Simulation time: 0 hr 24 min 59 sec) 
Heartbeat CPU 0 instructions: 39000001 cycles: 24725066 heartbeat IPC: 1.57684 cumulative IPC: 1.57735 (Simulation time: 0 hr 25 min 42 sec) 
Heartbeat CPU 0 instructions: 40000000 cycles: 25359108 heartbeat IPC: 1.57718 cumulative IPC: 1.57734 (Simulation time: 0 hr 26 min 22 sec) 
Heartbeat CPU 0 instructions: 41000003 cycles: 25993245 heartbeat IPC: 1.57695 cumulative IPC: 1.57733 (Simulation time: 0 hr 27 min 1 sec) 
Heartbeat CPU 0 instructions: 42000000 cycles: 26627011 heartbeat IPC: 1.57786 cumulative IPC: 1.57735 (Simulation time: 0 hr 27 min 39 sec) 
Heartbeat CPU 0 instructions: 43000002 cycles: 27260861 heartbeat IPC: 1.57766 cumulative IPC: 1.57735 (Simulation time: 0 hr 28 min 16 sec) 
Heartbeat CPU 0 instructions: 44000000 cycles: 27894797 heartbeat IPC: 1.57744 cumulative IPC: 1.57736 (Simulation time: 0 hr 28 min 54 sec) 
Heartbeat CPU 0 instructions: 45000003 cycles: 28528944 heartbeat IPC: 1.57693 cumulative IPC: 1.57735 (Simulation time: 0 hr 29 min 35 sec) 
Heartbeat CPU 0 instructions: 46000002 cycles: 29162908 heartbeat IPC: 1.57738 cumulative IPC: 1.57735 (Simulation time: 0 hr 30 min 12 sec) 
Heartbeat CPU 0 instructions: 47000001 cycles: 29796982 heartbeat IPC: 1.5771 cumulative IPC: 1.57734 (Simulation time: 0 hr 30 min 50 sec) 
Heartbeat CPU 0 instructions: 48000000 cycles: 30430652 heartbeat IPC: 1.57811 cumulative IPC: 1.57736 (Simulation time: 0 hr 31 min 26 sec) 
Heartbeat CPU 0 instructions: 49000001 cycles: 31064695 heartbeat IPC: 1.57718 cumulative IPC: 1.57735 (Simulation time: 0 hr 32 min 2 sec) 
Heartbeat CPU 0 instructions: 50000000 cycles: 31698525 heartbeat IPC: 1.57771 cumulative IPC: 1.57736 (Simulation time: 0 hr 32 min 40 sec) 

Warmup complete CPU 0 instructions: 50000004 cycles: 31698526 (Simulation time: 0 hr 32 min 40 sec) 

Heartbeat CPU 0 instructions: 51000002 cycles: 33316244 heartbeat IPC: 0.618156 cumulative IPC: 0.618153 (Simulation time: 0 hr 33 min 22 sec) 
Heartbeat CPU 0 instructions: 52000000 cycles: 34922442 heartbeat IPC: 0.622587 cumulative IPC: 0.620362 (Simulation time: 0 hr 34 min 3 sec) 
Heartbeat CPU 0 instructions: 53000000 cycles: 36563282 heartbeat IPC: 0.609444 cumulative IPC: 0.61668 (Simulation time: 0 hr 34 min 46 sec) 
Heartbeat CPU 0 instructions: 54000000 cycles: 38148598 heartbeat IPC: 0.630789 cumulative IPC: 0.620147 (Simulation time: 0 hr 35 min 30 sec) 
Heartbeat CPU 0 instructions: 55000003 cycles: 39734981 heartbeat IPC: 0.630367 cumulative IPC: 0.622165 (Simulation time: 0 hr 36 min 13 sec) 
Heartbeat CPU 0 instructions: 56000000 cycles: 41351803 heartbeat IPC: 0.618495 cumulative IPC: 0.62155 (Simulation time: 0 hr 36 min 54 sec) 
Heartbeat CPU 0 instructions: 57000000 cycles: 42999375 heartbeat IPC: 0.606954 cumulative IPC: 0.619422 (Simulation time: 0 hr 37 min 37 sec) 
Heartbeat CPU 0 instructions: 58000001 cycles: 44609382 heartbeat IPC: 0.621116 cumulative IPC: 0.619633 (Simulation time: 0 hr 38 min 17 sec) 
Heartbeat CPU 0 instructions: 59000001 cycles: 46224486 heartbeat IPC: 0.619155 cumulative IPC: 0.61958 (Simulation time: 0 hr 38 min 58 sec) 
Heartbeat CPU 0 instructions: 60000000 cycles: 47846901 heartbeat IPC: 0.616364 cumulative IPC: 0.619257 (Simulation time: 0 hr 39 min 40 sec) 
Heartbeat CPU 0 instructions: 61000001 cycles: 49428225 heartbeat IPC: 0.632382 cumulative IPC: 0.620428 (Simulation time: 0 hr 40 min 22 sec) 
Heartbeat CPU 0 instructions: 62000000 cycles: 51018397 heartbeat IPC: 0.628862 cumulative IPC: 0.621122 (Simulation time: 0 hr 41 min 6 sec) 
Heartbeat CPU 0 instructions: 63000003 cycles: 52634102 heartbeat IPC: 0.618927 cumulative IPC: 0.620953 (Simulation time: 0 hr 41 min 53 sec) 
Heartbeat CPU 0 instructions: 64000000 cycles: 54251268 heartbeat IPC: 0.618364 cumulative IPC: 0.620767 (Simulation time: 0 hr 42 min 39 sec) 
Heartbeat CPU 0 instructions: 65000003 cycles: 55878288 heartbeat IPC: 0.614622 cumulative IPC: 0.620353 (Simulation time: 0 hr 43 min 21 sec) 
Heartbeat CPU 0 instructions: 66000002 cycles: 57468322 heartbeat IPC: 0.628917 cumulative IPC: 0.620882 (Simulation time: 0 hr 44 min 5 sec) 
Heartbeat CPU 0 instructions: 67000000 cycles: 59066652 heartbeat IPC: 0.625652 cumulative IPC: 0.62116 (Simulation time: 0 hr 44 min 49 sec) 
Heartbeat CPU 0 instructions: 68000000 cycles: 60664983 heartbeat IPC: 0.625653 cumulative IPC: 0.621408 (Simulation time: 0 hr 45 min 33 sec) 
Heartbeat CPU 0 instructions: 69000000 cycles: 62244547 heartbeat IPC: 0.633086 cumulative IPC: 0.622012 (Simulation time: 0 hr 46 min 14 sec) 
Heartbeat CPU 0 instructions: 70000002 cycles: 63875342 heartbeat IPC: 0.613199 cumulative IPC: 0.621565 (Simulation time: 0 hr 46 min 55 sec) 
Heartbeat CPU 0 instructions: 71000002 cycles: 65538121 heartbeat IPC: 0.601403 cumulative IPC: 0.620575 (Simulation time: 0 hr 47 min 42 sec) 
Heartbeat CPU 0 instructions: 72000000 cycles: 67302152 heartbeat IPC: 0.566882 cumulative IPC: 0.617914 (Simulation time: 0 hr 48 min 34 sec) 
Heartbeat CPU 0 instructions: 73000000 cycles: 68979198 heartbeat IPC: 0.596287 cumulative IPC: 0.616942 (Simulation time: 0 hr 49 min 23 sec) 
Heartbeat CPU 0 instructions: 74000001 cycles: 70654840 heartbeat IPC: 0.596787 cumulative IPC: 0.616075 (Simulation time: 0 hr 50 min 12 sec) 
Heartbeat CPU 0 instructions: 75000003 cycles: 72321134 heartbeat IPC: 0.600135 cumulative IPC: 0.615421 (Simulation time: 0 hr 51 min 1 sec) 
Heartbeat CPU 0 instructions: 76000000 cycles: 73989929 heartbeat IPC: 0.599233 cumulative IPC: 0.614782 (Simulation time: 0 hr 51 min 48 sec) 
Heartbeat CPU 0 instructions: 77000000 cycles: 75669530 heartbeat IPC: 0.595379 cumulative IPC: 0.614041 (Simulation time: 0 hr 52 min 39 sec) 
Heartbeat CPU 0 instructions: 78000001 cycles: 77336831 heartbeat IPC: 0.599772 cumulative IPC: 0.61352 (Simulation time: 0 hr 53 min 27 sec) 
Heartbeat CPU 0 instructions: 79000003 cycles: 79014613 heartbeat IPC: 0.596026 cumulative IPC: 0.612899 (Simulation time: 0 hr 54 min 11 sec) 
Heartbeat CPU 0 instructions: 80000000 cycles: 80710152 heartbeat IPC: 0.589781 cumulative IPC: 0.6121 (Simulation time: 0 hr 54 min 59 sec) 
Heartbeat CPU 0 instructions: 81000001 cycles: 82398934 heartbeat IPC: 0.592143 cumulative IPC: 0.611435 (Simulation time: 0 hr 55 min 43 sec) 
Heartbeat CPU 0 instructions: 82000000 cycles: 84084050 heartbeat IPC: 0.59343 cumulative IPC: 0.610856 (Simulation time: 0 hr 56 min 33 sec) 
Heartbeat CPU 0 instructions: 83000001 cycles: 85765643 heartbeat IPC: 0.594675 cumulative IPC: 0.610352 (Simulation time: 0 hr 57 min 21 sec) 
Heartbeat CPU 0 instructions: 84000000 cycles: 87449452 heartbeat IPC: 0.593891 cumulative IPC: 0.609855 (Simulation time: 0 hr 58 min 8 sec) 
Heartbeat CPU 0 instructions: 85000000 cycles: 89134019 heartbeat IPC: 0.593624 cumulative IPC: 0.609379 (Simulation time: 0 hr 58 min 56 sec) 
Heartbeat CPU 0 instructions: 86000000 cycles: 90811687 heartbeat IPC: 0.596065 cumulative IPC: 0.609001 (Simulation time: 0 hr 59 min 43 sec) 
Heartbeat CPU 0 instructions: 87000001 cycles: 92507801 heartbeat IPC: 0.589584 cumulative IPC: 0.60846 (Simulation time: 1 hr 0 min 27 sec) 
Heartbeat CPU 0 instructions: 88000000 cycles: 94201406 heartbeat IPC: 0.590456 cumulative IPC: 0.607972 (Simulation time: 1 hr 1 min 14 sec) 
Heartbeat CPU 0 instructions: 89000003 cycles: 95899745 heartbeat IPC: 0.588812 cumulative IPC: 0.607465 (Simulation time: 1 hr 2 min 2 sec) 
Heartbeat CPU 0 instructions: 90000000 cycles: 97586276 heartbeat IPC: 0.592931 cumulative IPC: 0.607093 (Simulation time: 1 hr 2 min 49 sec) 
Heartbeat CPU 0 instructions: 91000001 cycles: 99264087 heartbeat IPC: 0.596015 cumulative IPC: 0.606818 (Simulation time: 1 hr 3 min 32 sec) 
Heartbeat CPU 0 instructions: 92000000 cycles: 100950340 heartbeat IPC: 0.59303 cumulative IPC: 0.606482 (Simulation time: 1 hr 4 min 17 sec) 
Heartbeat CPU 0 instructions: 93000003 cycles: 102625635 heartbeat IPC: 0.596912 cumulative IPC: 0.606256 (Simulation time: 1 hr 5 min 2 sec) 
Heartbeat CPU 0 instructions: 94000002 cycles: 104304845 heartbeat IPC: 0.595518 cumulative IPC: 0.606008 (Simulation time: 1 hr 5 min 44 sec) 
Heartbeat CPU 0 instructions: 95000000 cycles: 105998153 heartbeat IPC: 0.590559 cumulative IPC: 0.605656 (Simulation time: 1 hr 6 min 26 sec) 
Heartbeat CPU 0 instructions: 96000000 cycles: 107683511 heartbeat IPC: 0.593346 cumulative IPC: 0.605383 (Simulation time: 1 hr 7 min 9 sec) 
Heartbeat CPU 0 instructions: 97000003 cycles: 109365887 heartbeat IPC: 0.594399 cumulative IPC: 0.605145 (Simulation time: 1 hr 7 min 50 sec) 
Heartbeat CPU 0 instructions: 98000000 cycles: 111048119 heartbeat IPC: 0.594447 cumulative IPC: 0.604918 (Simulation time: 1 hr 8 min 33 sec) 
Heartbeat CPU 0 instructions: 99000001 cycles: 112735761 heartbeat IPC: 0.592543 cumulative IPC: 0.60466 (Simulation time: 1 hr 9 min 17 sec) 
Heartbeat CPU 0 instructions: 100000000 cycles: 114425281 heartbeat IPC: 0.591883 cumulative IPC: 0.604399 (Simulation time: 1 hr 9 min 59 sec) 
Heartbeat CPU 0 instructions: 101000001 cycles: 116104336 heartbeat IPC: 0.595574 cumulative IPC: 0.604224 (Simulation time: 1 hr 10 min 44 sec) 
Heartbeat CPU 0 instructions: 102000002 cycles: 117789069 heartbeat IPC: 0.593566 cumulative IPC: 0.604015 (Simulation time: 1 hr 11 min 30 sec) 
Heartbeat CPU 0 instructions: 103000000 cycles: 119468219 heartbeat IPC: 0.595538 cumulative IPC: 0.603853 (Simulation time: 1 hr 12 min 6 sec) 
Heartbeat CPU 0 instructions: 104000000 cycles: 121155299 heartbeat IPC: 0.59274 cumulative IPC: 0.603643 (Simulation time: 1 hr 12 min 45 sec) 
Heartbeat CPU 0 instructions: 105000000 cycles: 122844597 heartbeat IPC: 0.591962 cumulative IPC: 0.603427 (Simulation time: 1 hr 13 min 22 sec) 
Heartbeat CPU 0 instructions: 106000003 cycles: 124522123 heartbeat IPC: 0.596118 cumulative IPC: 0.603295 (Simulation time: 1 hr 13 min 59 sec) 
Heartbeat CPU 0 instructions: 107000000 cycles: 126211119 heartbeat IPC: 0.592066 cumulative IPC: 0.603094 (Simulation time: 1 hr 14 min 33 sec) 
Heartbeat CPU 0 instructions: 108000000 cycles: 127898594 heartbeat IPC: 0.592601 cumulative IPC: 0.60291 (Simulation time: 1 hr 15 min 5 sec) 
Heartbeat CPU 0 instructions: 109000003 cycles: 129594189 heartbeat IPC: 0.589765 cumulative IPC: 0.602682 (Simulation time: 1 hr 15 min 35 sec) 
Heartbeat CPU 0 instructions: 110000001 cycles: 131280976 heartbeat IPC: 0.592842 cumulative IPC: 0.602516 (Simulation time: 1 hr 16 min 5 sec) 
Heartbeat CPU 0 instructions: 111000001 cycles: 132958365 heartbeat IPC: 0.596165 cumulative IPC: 0.602411 (Simulation time: 1 hr 16 min 34 sec) 
Heartbeat CPU 0 instructions: 112000000 cycles: 134638297 heartbeat IPC: 0.595262 cumulative IPC: 0.602294 (Simulation time: 1 hr 17 min 3 sec) 
Heartbeat CPU 0 instructions: 113000002 cycles: 136320199 heartbeat IPC: 0.594566 cumulative IPC: 0.60217 (Simulation time: 1 hr 17 min 30 sec) 
Heartbeat CPU 0 instructions: 114000002 cycles: 138002488 heartbeat IPC: 0.594428 cumulative IPC: 0.602047 (Simulation time: 1 hr 17 min 58 sec) 
Heartbeat CPU 0 instructions: 115000002 cycles: 139686748 heartbeat IPC: 0.593733 cumulative IPC: 0.601918 (Simulation time: 1 hr 18 min 25 sec) 
Heartbeat CPU 0 instructions: 116000000 cycles: 141366807 heartbeat IPC: 0.595216 cumulative IPC: 0.601815 (Simulation time: 1 hr 18 min 50 sec) 
Heartbeat CPU 0 instructions: 117000001 cycles: 143052804 heartbeat IPC: 0.593121 cumulative IPC: 0.601683 (Simulation time: 1 hr 19 min 15 sec) 
Heartbeat CPU 0 instructions: 118000002 cycles: 144740199 heartbeat IPC: 0.59263 cumulative IPC: 0.601548 (Simulation time: 1 hr 19 min 40 sec) 
Heartbeat CPU 0 instructions: 119000001 cycles: 146425612 heartbeat IPC: 0.593326 cumulative IPC: 0.601427 (Simulation time: 1 hr 20 min 5 sec) 
Heartbeat CPU 0 instructions: 120000000 cycles: 148725508 heartbeat IPC: 0.434802 cumulative IPC: 0.598153 (Simulation time: 1 hr 20 min 31 sec) 
Heartbeat CPU 0 instructions: 121000000 cycles: 157546012 heartbeat IPC: 0.113372 cumulative IPC: 0.564175 (Simulation time: 1 hr 21 min 18 sec) 
Heartbeat CPU 0 instructions: 122000002 cycles: 166353034 heartbeat IPC: 0.113546 cumulative IPC: 0.534702 (Simulation time: 1 hr 22 min 3 sec) 
Heartbeat CPU 0 instructions: 123000002 cycles: 175093665 heartbeat IPC: 0.114408 cumulative IPC: 0.509083 (Simulation time: 1 hr 22 min 44 sec) 
Heartbeat CPU 0 instructions: 124000000 cycles: 183906893 heartbeat IPC: 0.113466 cumulative IPC: 0.486176 (Simulation time: 1 hr 23 min 22 sec) 
Heartbeat CPU 0 instructions: 125000001 cycles: 186549939 heartbeat IPC: 0.378352 cumulative IPC: 0.484335 (Simulation time: 1 hr 23 min 44 sec) 
Heartbeat CPU 0 instructions: 126000003 cycles: 188130204 heartbeat IPC: 0.632807 cumulative IPC: 0.485835 (Simulation time: 1 hr 24 min 5 sec) 
Heartbeat CPU 0 instructions: 127000000 cycles: 189712127 heartbeat IPC: 0.63214 cumulative IPC: 0.4873 (Simulation time: 1 hr 24 min 24 sec) 
Heartbeat CPU 0 instructions: 128000000 cycles: 191300058 heartbeat IPC: 0.62975 cumulative IPC: 0.488717 (Simulation time: 1 hr 24 min 43 sec) 
Heartbeat CPU 0 instructions: 129000001 cycles: 192887490 heartbeat IPC: 0.629949 cumulative IPC: 0.490108 (Simulation time: 1 hr 25 min 0 sec) 
Heartbeat CPU 0 instructions: 130000003 cycles: 194473364 heartbeat IPC: 0.630568 cumulative IPC: 0.491476 (Simulation time: 1 hr 25 min 17 sec) 
Heartbeat CPU 0 instructions: 131000001 cycles: 196075901 heartbeat IPC: 0.624009 cumulative IPC: 0.492769 (Simulation time: 1 hr 25 min 34 sec) 
Heartbeat CPU 0 instructions: 132000000 cycles: 197682567 heartbeat IPC: 0.622406 cumulative IPC: 0.494023 (Simulation time: 1 hr 25 min 52 sec) 
Heartbeat CPU 0 instructions: 133000002 cycles: 199282500 heartbeat IPC: 0.625027 cumulative IPC: 0.495274 (Simulation time: 1 hr 26 min 8 sec) 
Heartbeat CPU 0 instructions: 134000000 cycles: 200886337 heartbeat IPC: 0.623504 cumulative IPC: 0.49649 (Simulation time: 1 hr 26 min 26 sec) 
Heartbeat CPU 0 instructions: 135000003 cycles: 202494207 heartbeat IPC: 0.621943 cumulative IPC: 0.497671 (Simulation time: 1 hr 26 min 41 sec) 
Heartbeat CPU 0 instructions: 136000000 cycles: 204103389 heartbeat IPC: 0.621432 cumulative IPC: 0.498826 (Simulation time: 1 hr 26 min 54 sec) 
Heartbeat CPU 0 instructions: 137000003 cycles: 205707985 heartbeat IPC: 0.623212 cumulative IPC: 0.499973 (Simulation time: 1 hr 27 min 6 sec) 
Heartbeat CPU 0 instructions: 138000000 cycles: 207315052 heartbeat IPC: 0.62225 cumulative IPC: 0.501092 (Simulation time: 1 hr 27 min 17 sec) 
Heartbeat CPU 0 instructions: 139000002 cycles: 208915309 heartbeat IPC: 0.624901 cumulative IPC: 0.50221 (Simulation time: 1 hr 27 min 27 sec) 
Heartbeat CPU 0 instructions: 140000000 cycles: 210509857 heartbeat IPC: 0.627136 cumulative IPC: 0.503324 (Simulation time: 1 hr 27 min 37 sec) 
Heartbeat CPU 0 instructions: 141000000 cycles: 212124048 heartbeat IPC: 0.619505 cumulative IPC: 0.504363 (Simulation time: 1 hr 27 min 46 sec) 
Heartbeat CPU 0 instructions: 142000001 cycles: 213725383 heartbeat IPC: 0.62448 cumulative IPC: 0.50542 (Simulation time: 1 hr 27 min 55 sec) 
Heartbeat CPU 0 instructions: 143000001 cycles: 215324083 heartbeat IPC: 0.625508 cumulative IPC: 0.506465 (Simulation time: 1 hr 28 min 3 sec) 
Heartbeat CPU 0 instructions: 144000000 cycles: 216920981 heartbeat IPC: 0.626213 cumulative IPC: 0.507498 (Simulation time: 1 hr 28 min 9 sec) 
Heartbeat CPU 0 instructions: 145000000 cycles: 218514223 heartbeat IPC: 0.627651 cumulative IPC: 0.508523 (Simulation time: 1 hr 28 min 16 sec) 
Heartbeat CPU 0 instructions: 146000002 cycles: 220118015 heartbeat IPC: 0.623523 cumulative IPC: 0.509501 (Simulation time: 1 hr 28 min 23 sec) 
Heartbeat CPU 0 instructions: 147000002 cycles: 221718547 heartbeat IPC: 0.624792 cumulative IPC: 0.510473 (Simulation time: 1 hr 28 min 30 sec) 
Heartbeat CPU 0 instructions: 148000000 cycles: 223317774 heartbeat IPC: 0.625301 cumulative IPC: 0.511431 (Simulation time: 1 hr 28 min 37 sec) 
Heartbeat CPU 0 instructions: 149000000 cycles: 224927525 heartbeat IPC: 0.621214 cumulative IPC: 0.512345 (Simulation time: 1 hr 28 min 43 sec) 
Heartbeat CPU 0 instructions: 150000002 cycles: 226542305 heartbeat IPC: 0.619281 cumulative IPC: 0.513232 (Simulation time: 1 hr 28 min 49 sec) 
Finished CPU 0 instructions: 100000002 cycles: 194843780 cummulative IPC: 0.513232 (Simulation time: 1 hr 28 min 49 sec) 

ChampSim completed all CPUs

Region of Interest Statistics

CPU 0 cummulative IPC: 0.513232 instructions: 100000002 cycles: 194843780
LLC TOTAL     ACCESS:    5928932  HIT:    1147235  MISS:    4781697
LLC LOAD      ACCESS:    1303231  HIT:     213811  MISS:    1089420
LLC RFO       ACCESS:         26  HIT:          2  MISS:         24
LLC PREFETCH  ACCESS:    3083697  HIT:     402106  MISS:    2681591
LLC WRITEBACK ACCESS:    1541978  HIT:     531316  MISS:    1010662
OPTgen accesses: 22699
OPTgen hits: 7567
OPTgen hit rate: 33.3363


