
*** ChampSim Multicore Out-of-Order Simulator ***

Warmup Instructions: 50000000
Simulation Instructions: 100000000
Configuration: 2
Number of CPUs: 1
LLC sets: 2048
LLC ways: 16
Off-chip DRAM Channels: 1 Width: 64-bit Data Rate: 1600 MT/s

CPU 0 runs /datasets/cs240c-wi22-a00-public/data/Assignment2-gz/soplex_217B.trace.gz
CPU 0 L1D next line prefetcher
CPU 0 L2C IP-based stride prefetcher
Initialize Hawkeye state
Heartbeat CPU 0 instructions: 1000002 cycles: 441289 heartbeat IPC: 2.26609 cumulative IPC: 2.26609 (Simulation time: 0 hr 0 min 39 sec) 
Heartbeat CPU 0 instructions: 2000003 cycles: 800423 heartbeat IPC: 2.78448 cumulative IPC: 2.49868 (Simulation time: 0 hr 1 min 11 sec) 
Heartbeat CPU 0 instructions: 3000002 cycles: 1245423 heartbeat IPC: 2.24719 cumulative IPC: 2.40882 (Simulation time: 0 hr 1 min 46 sec) 
Heartbeat CPU 0 instructions: 4000000 cycles: 1672911 heartbeat IPC: 2.33924 cumulative IPC: 2.39104 (Simulation time: 0 hr 2 min 24 sec) 
Heartbeat CPU 0 instructions: 5000001 cycles: 2056960 heartbeat IPC: 2.60384 cumulative IPC: 2.43077 (Simulation time: 0 hr 2 min 54 sec) 
Heartbeat CPU 0 instructions: 6000000 cycles: 2431128 heartbeat IPC: 2.67259 cumulative IPC: 2.46799 (Simulation time: 0 hr 3 min 23 sec) 
Heartbeat CPU 0 instructions: 7000003 cycles: 2955268 heartbeat IPC: 1.90789 cumulative IPC: 2.36865 (Simulation time: 0 hr 3 min 56 sec) 
Heartbeat CPU 0 instructions: 8000000 cycles: 3401585 heartbeat IPC: 2.24055 cumulative IPC: 2.35184 (Simulation time: 0 hr 4 min 32 sec) 
Heartbeat CPU 0 instructions: 9000001 cycles: 3825900 heartbeat IPC: 2.35674 cumulative IPC: 2.35239 (Simulation time: 0 hr 5 min 8 sec) 
Heartbeat CPU 0 instructions: 10000000 cycles: 4238213 heartbeat IPC: 2.42534 cumulative IPC: 2.35948 (Simulation time: 0 hr 5 min 40 sec) 
Heartbeat CPU 0 instructions: 11000002 cycles: 4666823 heartbeat IPC: 2.33313 cumulative IPC: 2.35706 (Simulation time: 0 hr 6 min 20 sec) 
Heartbeat CPU 0 instructions: 12000000 cycles: 5071068 heartbeat IPC: 2.47374 cumulative IPC: 2.36637 (Simulation time: 0 hr 6 min 51 sec) 
Heartbeat CPU 0 instructions: 13000000 cycles: 5455313 heartbeat IPC: 2.60251 cumulative IPC: 2.383 (Simulation time: 0 hr 7 min 21 sec) 
Heartbeat CPU 0 instructions: 14000000 cycles: 5904450 heartbeat IPC: 2.22649 cumulative IPC: 2.37109 (Simulation time: 0 hr 7 min 51 sec) 
Heartbeat CPU 0 instructions: 15000000 cycles: 6425724 heartbeat IPC: 1.91838 cumulative IPC: 2.33437 (Simulation time: 0 hr 8 min 25 sec) 
Heartbeat CPU 0 instructions: 16000000 cycles: 6884215 heartbeat IPC: 2.18107 cumulative IPC: 2.32416 (Simulation time: 0 hr 8 min 58 sec) 
Heartbeat CPU 0 instructions: 17000002 cycles: 7264085 heartbeat IPC: 2.63248 cumulative IPC: 2.34028 (Simulation time: 0 hr 9 min 27 sec) 
Heartbeat CPU 0 instructions: 18000003 cycles: 7693904 heartbeat IPC: 2.32656 cumulative IPC: 2.33951 (Simulation time: 0 hr 10 min 0 sec) 
Heartbeat CPU 0 instructions: 19000001 cycles: 8117850 heartbeat IPC: 2.35879 cumulative IPC: 2.34052 (Simulation time: 0 hr 10 min 34 sec) 
Heartbeat CPU 0 instructions: 20000000 cycles: 8502195 heartbeat IPC: 2.60183 cumulative IPC: 2.35233 (Simulation time: 0 hr 11 min 1 sec) 
Heartbeat CPU 0 instructions: 21000000 cycles: 8879771 heartbeat IPC: 2.64847 cumulative IPC: 2.36493 (Simulation time: 0 hr 11 min 29 sec) 
Heartbeat CPU 0 instructions: 22000001 cycles: 9410670 heartbeat IPC: 1.8836 cumulative IPC: 2.33777 (Simulation time: 0 hr 11 min 57 sec) 
Heartbeat CPU 0 instructions: 23000001 cycles: 9858604 heartbeat IPC: 2.23247 cumulative IPC: 2.33299 (Simulation time: 0 hr 12 min 30 sec) 
Heartbeat CPU 0 instructions: 24000000 cycles: 10275620 heartbeat IPC: 2.39799 cumulative IPC: 2.33563 (Simulation time: 0 hr 13 min 1 sec) 
Heartbeat CPU 0 instructions: 25000001 cycles: 10688145 heartbeat IPC: 2.4241 cumulative IPC: 2.33904 (Simulation time: 0 hr 13 min 32 sec) 
Heartbeat CPU 0 instructions: 26000002 cycles: 11120211 heartbeat IPC: 2.31446 cumulative IPC: 2.33809 (Simulation time: 0 hr 14 min 8 sec) 
Heartbeat CPU 0 instructions: 27000002 cycles: 11522390 heartbeat IPC: 2.48645 cumulative IPC: 2.34326 (Simulation time: 0 hr 14 min 35 sec) 
Heartbeat CPU 0 instructions: 28000000 cycles: 11906702 heartbeat IPC: 2.60205 cumulative IPC: 2.35162 (Simulation time: 0 hr 15 min 1 sec) 
Heartbeat CPU 0 instructions: 29000002 cycles: 12361528 heartbeat IPC: 2.19865 cumulative IPC: 2.34599 (Simulation time: 0 hr 15 min 30 sec) 
Heartbeat CPU 0 instructions: 30000002 cycles: 12884593 heartbeat IPC: 1.91181 cumulative IPC: 2.32836 (Simulation time: 0 hr 16 min 2 sec) 
Heartbeat CPU 0 instructions: 31000000 cycles: 13290113 heartbeat IPC: 2.46596 cumulative IPC: 2.33256 (Simulation time: 0 hr 16 min 34 sec) 
Heartbeat CPU 0 instructions: 32000000 cycles: 13698336 heartbeat IPC: 2.44964 cumulative IPC: 2.33605 (Simulation time: 0 hr 17 min 3 sec) 
Heartbeat CPU 0 instructions: 33000002 cycles: 14123478 heartbeat IPC: 2.35216 cumulative IPC: 2.33653 (Simulation time: 0 hr 17 min 38 sec) 
Heartbeat CPU 0 instructions: 34000000 cycles: 14531831 heartbeat IPC: 2.44886 cumulative IPC: 2.33969 (Simulation time: 0 hr 18 min 8 sec) 
Heartbeat CPU 0 instructions: 35000002 cycles: 14916527 heartbeat IPC: 2.59946 cumulative IPC: 2.34639 (Simulation time: 0 hr 18 min 38 sec) 
Heartbeat CPU 0 instructions: 36000000 cycles: 15353224 heartbeat IPC: 2.28991 cumulative IPC: 2.34478 (Simulation time: 0 hr 19 min 10 sec) 
Heartbeat CPU 0 instructions: 37000001 cycles: 15878095 heartbeat IPC: 1.90523 cumulative IPC: 2.33025 (Simulation time: 0 hr 19 min 43 sec) 
Heartbeat CPU 0 instructions: 38000000 cycles: 16306741 heartbeat IPC: 2.33293 cumulative IPC: 2.33032 (Simulation time: 0 hr 20 min 23 sec) 
Heartbeat CPU 0 instructions: 39000001 cycles: 16703186 heartbeat IPC: 2.52242 cumulative IPC: 2.33488 (Simulation time: 0 hr 20 min 53 sec) 
Heartbeat CPU 0 instructions: 40000000 cycles: 17127775 heartbeat IPC: 2.35522 cumulative IPC: 2.33539 (Simulation time: 0 hr 21 min 27 sec) 
Heartbeat CPU 0 instructions: 41000000 cycles: 17542958 heartbeat IPC: 2.40858 cumulative IPC: 2.33712 (Simulation time: 0 hr 22 min 1 sec) 
Heartbeat CPU 0 instructions: 42000002 cycles: 17926884 heartbeat IPC: 2.60467 cumulative IPC: 2.34285 (Simulation time: 0 hr 22 min 27 sec) 
Heartbeat CPU 0 instructions: 43000000 cycles: 18347538 heartbeat IPC: 2.37725 cumulative IPC: 2.34364 (Simulation time: 0 hr 22 min 54 sec) 
Heartbeat CPU 0 instructions: 44000000 cycles: 18878586 heartbeat IPC: 1.88307 cumulative IPC: 2.33068 (Simulation time: 0 hr 23 min 22 sec) 
Heartbeat CPU 0 instructions: 45000003 cycles: 19338004 heartbeat IPC: 2.17667 cumulative IPC: 2.32702 (Simulation time: 0 hr 24 min 0 sec) 
Heartbeat CPU 0 instructions: 46000000 cycles: 19769769 heartbeat IPC: 2.31607 cumulative IPC: 2.32678 (Simulation time: 0 hr 24 min 33 sec) 
Heartbeat CPU 0 instructions: 47000001 cycles: 20180654 heartbeat IPC: 2.43377 cumulative IPC: 2.32896 (Simulation time: 0 hr 25 min 1 sec) 
Heartbeat CPU 0 instructions: 48000000 cycles: 20609192 heartbeat IPC: 2.33351 cumulative IPC: 2.32906 (Simulation time: 0 hr 25 min 37 sec) 
Heartbeat CPU 0 instructions: 49000000 cycles: 21014530 heartbeat IPC: 2.46708 cumulative IPC: 2.33172 (Simulation time: 0 hr 26 min 10 sec) 
Heartbeat CPU 0 instructions: 50000002 cycles: 21399034 heartbeat IPC: 2.60076 cumulative IPC: 2.33655 (Simulation time: 0 hr 26 min 39 sec) 

Warmup complete CPU 0 instructions: 50000002 cycles: 21399034 (Simulation time: 0 hr 26 min 39 sec) 

Heartbeat CPU 0 instructions: 51000000 cycles: 24074304 heartbeat IPC: 0.373793 cumulative IPC: 0.373793 (Simulation time: 0 hr 27 min 15 sec) 
Heartbeat CPU 0 instructions: 52000000 cycles: 26998979 heartbeat IPC: 0.341918 cumulative IPC: 0.357146 (Simulation time: 0 hr 27 min 58 sec) 
Heartbeat CPU 0 instructions: 53000000 cycles: 30189093 heartbeat IPC: 0.313468 cumulative IPC: 0.341294 (Simulation time: 0 hr 28 min 41 sec) 
Heartbeat CPU 0 instructions: 54000000 cycles: 32059634 heartbeat IPC: 0.534605 cumulative IPC: 0.375213 (Simulation time: 0 hr 29 min 17 sec) 
Heartbeat CPU 0 instructions: 55000000 cycles: 35478366 heartbeat IPC: 0.292506 cumulative IPC: 0.35513 (Simulation time: 0 hr 30 min 1 sec) 
Heartbeat CPU 0 instructions: 56000000 cycles: 38286225 heartbeat IPC: 0.356143 cumulative IPC: 0.355299 (Simulation time: 0 hr 30 min 43 sec) 
Heartbeat CPU 0 instructions: 57000003 cycles: 39515087 heartbeat IPC: 0.813763 cumulative IPC: 0.386398 (Simulation time: 0 hr 31 min 12 sec) 
Heartbeat CPU 0 instructions: 58000000 cycles: 41687451 heartbeat IPC: 0.460327 cumulative IPC: 0.394314 (Simulation time: 0 hr 31 min 44 sec) 
Heartbeat CPU 0 instructions: 59000001 cycles: 44413478 heartbeat IPC: 0.366835 cumulative IPC: 0.391059 (Simulation time: 0 hr 32 min 24 sec) 
Heartbeat CPU 0 instructions: 60000000 cycles: 47818457 heartbeat IPC: 0.293687 cumulative IPC: 0.378509 (Simulation time: 0 hr 33 min 14 sec) 
Heartbeat CPU 0 instructions: 61000000 cycles: 50051362 heartbeat IPC: 0.447847 cumulative IPC: 0.383913 (Simulation time: 0 hr 33 min 53 sec) 
Heartbeat CPU 0 instructions: 62000002 cycles: 52774308 heartbeat IPC: 0.36725 cumulative IPC: 0.382467 (Simulation time: 0 hr 34 min 35 sec) 
Heartbeat CPU 0 instructions: 63000001 cycles: 56069923 heartbeat IPC: 0.303433 cumulative IPC: 0.374954 (Simulation time: 0 hr 35 min 21 sec) 
Heartbeat CPU 0 instructions: 64000000 cycles: 57320956 heartbeat IPC: 0.799339 cumulative IPC: 0.389734 (Simulation time: 0 hr 35 min 45 sec) 
Heartbeat CPU 0 instructions: 65000001 cycles: 58753242 heartbeat IPC: 0.698185 cumulative IPC: 0.401561 (Simulation time: 0 hr 36 min 12 sec) 
Heartbeat CPU 0 instructions: 66000002 cycles: 62043998 heartbeat IPC: 0.303882 cumulative IPC: 0.393653 (Simulation time: 0 hr 36 min 50 sec) 
Heartbeat CPU 0 instructions: 67000000 cycles: 65237488 heartbeat IPC: 0.313136 cumulative IPC: 0.387787 (Simulation time: 0 hr 37 min 33 sec) 
Heartbeat CPU 0 instructions: 68000000 cycles: 70779076 heartbeat IPC: 0.180454 cumulative IPC: 0.36452 (Simulation time: 0 hr 38 min 20 sec) 
Heartbeat CPU 0 instructions: 69000001 cycles: 74687969 heartbeat IPC: 0.255827 cumulative IPC: 0.356547 (Simulation time: 0 hr 39 min 4 sec) 
Heartbeat CPU 0 instructions: 70000002 cycles: 78720780 heartbeat IPC: 0.247966 cumulative IPC: 0.348908 (Simulation time: 0 hr 39 min 51 sec) 
Heartbeat CPU 0 instructions: 71000002 cycles: 82930666 heartbeat IPC: 0.237536 cumulative IPC: 0.341288 (Simulation time: 0 hr 40 min 37 sec) 
Heartbeat CPU 0 instructions: 72000000 cycles: 86240745 heartbeat IPC: 0.302107 cumulative IPC: 0.339288 (Simulation time: 0 hr 41 min 18 sec) 
Heartbeat CPU 0 instructions: 73000000 cycles: 89576637 heartbeat IPC: 0.29977 cumulative IPC: 0.337354 (Simulation time: 0 hr 42 min 2 sec) 
Heartbeat CPU 0 instructions: 74000000 cycles: 93124756 heartbeat IPC: 0.281839 cumulative IPC: 0.334608 (Simulation time: 0 hr 42 min 40 sec) 
Heartbeat CPU 0 instructions: 75000002 cycles: 96742583 heartbeat IPC: 0.27641 cumulative IPC: 0.331813 (Simulation time: 0 hr 43 min 26 sec) 
Heartbeat CPU 0 instructions: 76000000 cycles: 99306643 heartbeat IPC: 0.390006 cumulative IPC: 0.333729 (Simulation time: 0 hr 44 min 0 sec) 
Heartbeat CPU 0 instructions: 77000000 cycles: 102714609 heartbeat IPC: 0.29343 cumulative IPC: 0.33204 (Simulation time: 0 hr 44 min 42 sec) 
Heartbeat CPU 0 instructions: 78000002 cycles: 104892178 heartbeat IPC: 0.459229 cumulative IPC: 0.335357 (Simulation time: 0 hr 45 min 22 sec) 
Heartbeat CPU 0 instructions: 79000003 cycles: 106769947 heartbeat IPC: 0.532547 cumulative IPC: 0.339694 (Simulation time: 0 hr 46 min 2 sec) 
Heartbeat CPU 0 instructions: 80000000 cycles: 108069040 heartbeat IPC: 0.769765 cumulative IPC: 0.34614 (Simulation time: 0 hr 46 min 35 sec) 
Heartbeat CPU 0 instructions: 81000002 cycles: 110222377 heartbeat IPC: 0.464396 cumulative IPC: 0.349007 (Simulation time: 0 hr 47 min 13 sec) 
Heartbeat CPU 0 instructions: 82000001 cycles: 112932768 heartbeat IPC: 0.36895 cumulative IPC: 0.349598 (Simulation time: 0 hr 47 min 59 sec) 
Heartbeat CPU 0 instructions: 83000002 cycles: 115401184 heartbeat IPC: 0.405118 cumulative IPC: 0.351056 (Simulation time: 0 hr 48 min 43 sec) 
Heartbeat CPU 0 instructions: 84000000 cycles: 117583463 heartbeat IPC: 0.458236 cumulative IPC: 0.353488 (Simulation time: 0 hr 49 min 21 sec) 
Heartbeat CPU 0 instructions: 85000000 cycles: 119158219 heartbeat IPC: 0.635019 cumulative IPC: 0.358023 (Simulation time: 0 hr 49 min 57 sec) 
Heartbeat CPU 0 instructions: 86000000 cycles: 122784400 heartbeat IPC: 0.275772 cumulative IPC: 0.355081 (Simulation time: 0 hr 50 min 45 sec) 
Heartbeat CPU 0 instructions: 87000000 cycles: 125320390 heartbeat IPC: 0.394323 cumulative IPC: 0.356038 (Simulation time: 0 hr 51 min 19 sec) 
Heartbeat CPU 0 instructions: 88000000 cycles: 126635618 heartbeat IPC: 0.760324 cumulative IPC: 0.361091 (Simulation time: 0 hr 51 min 42 sec) 
Heartbeat CPU 0 instructions: 89000003 cycles: 129273785 heartbeat IPC: 0.379052 cumulative IPC: 0.36153 (Simulation time: 0 hr 52 min 16 sec) 
Heartbeat CPU 0 instructions: 90000002 cycles: 132166614 heartbeat IPC: 0.345682 cumulative IPC: 0.361116 (Simulation time: 0 hr 52 min 58 sec) 
Heartbeat CPU 0 instructions: 91000001 cycles: 135493634 heartbeat IPC: 0.300569 cumulative IPC: 0.359351 (Simulation time: 0 hr 53 min 46 sec) 
Heartbeat CPU 0 instructions: 92000000 cycles: 137330256 heartbeat IPC: 0.544477 cumulative IPC: 0.362284 (Simulation time: 0 hr 54 min 23 sec) 
Heartbeat CPU 0 instructions: 93000000 cycles: 140771653 heartbeat IPC: 0.29058 cumulative IPC: 0.360217 (Simulation time: 0 hr 55 min 9 sec) 
Heartbeat CPU 0 instructions: 94000001 cycles: 143541844 heartbeat IPC: 0.360986 cumulative IPC: 0.360234 (Simulation time: 0 hr 55 min 44 sec) 
Heartbeat CPU 0 instructions: 95000003 cycles: 144766325 heartbeat IPC: 0.816674 cumulative IPC: 0.364764 (Simulation time: 0 hr 56 min 8 sec) 
Heartbeat CPU 0 instructions: 96000000 cycles: 147042700 heartbeat IPC: 0.439294 cumulative IPC: 0.366115 (Simulation time: 0 hr 56 min 39 sec) 
Heartbeat CPU 0 instructions: 97000002 cycles: 149813218 heartbeat IPC: 0.360944 cumulative IPC: 0.366003 (Simulation time: 0 hr 57 min 18 sec) 
Heartbeat CPU 0 instructions: 98000003 cycles: 153776298 heartbeat IPC: 0.252329 cumulative IPC: 0.3626 (Simulation time: 0 hr 58 min 11 sec) 
Heartbeat CPU 0 instructions: 99000000 cycles: 156667466 heartbeat IPC: 0.34588 cumulative IPC: 0.362243 (Simulation time: 0 hr 58 min 51 sec) 
Heartbeat CPU 0 instructions: 100000000 cycles: 158526013 heartbeat IPC: 0.538055 cumulative IPC: 0.364626 (Simulation time: 0 hr 59 min 28 sec) 
Heartbeat CPU 0 instructions: 101000001 cycles: 162384826 heartbeat IPC: 0.259147 cumulative IPC: 0.361739 (Simulation time: 1 hr 0 min 20 sec) 
Heartbeat CPU 0 instructions: 102000000 cycles: 163993981 heartbeat IPC: 0.621444 cumulative IPC: 0.364669 (Simulation time: 1 hr 0 min 48 sec) 
Heartbeat CPU 0 instructions: 103000001 cycles: 165249607 heartbeat IPC: 0.796416 cumulative IPC: 0.368438 (Simulation time: 1 hr 1 min 18 sec) 
Heartbeat CPU 0 instructions: 104000000 cycles: 168732458 heartbeat IPC: 0.287121 cumulative IPC: 0.366516 (Simulation time: 1 hr 1 min 58 sec) 
Heartbeat CPU 0 instructions: 105000003 cycles: 171861136 heartbeat IPC: 0.319625 cumulative IPC: 0.365541 (Simulation time: 1 hr 2 min 44 sec) 
Heartbeat CPU 0 instructions: 106000002 cycles: 174570225 heartbeat IPC: 0.369127 cumulative IPC: 0.365604 (Simulation time: 1 hr 3 min 21 sec) 
Heartbeat CPU 0 instructions: 107000003 cycles: 176287050 heartbeat IPC: 0.582471 cumulative IPC: 0.368008 (Simulation time: 1 hr 3 min 55 sec) 
Heartbeat CPU 0 instructions: 108000000 cycles: 180204696 heartbeat IPC: 0.255255 cumulative IPC: 0.365226 (Simulation time: 1 hr 4 min 45 sec) 
Heartbeat CPU 0 instructions: 109000000 cycles: 182043753 heartbeat IPC: 0.543757 cumulative IPC: 0.36727 (Simulation time: 1 hr 5 min 12 sec) 
Heartbeat CPU 0 instructions: 110000002 cycles: 183200588 heartbeat IPC: 0.864429 cumulative IPC: 0.370825 (Simulation time: 1 hr 5 min 36 sec) 
Heartbeat CPU 0 instructions: 111000000 cycles: 186558225 heartbeat IPC: 0.297828 cumulative IPC: 0.369341 (Simulation time: 1 hr 6 min 14 sec) 
Heartbeat CPU 0 instructions: 112000000 cycles: 189437536 heartbeat IPC: 0.347305 cumulative IPC: 0.368963 (Simulation time: 1 hr 6 min 54 sec) 
Heartbeat CPU 0 instructions: 113000001 cycles: 192297129 heartbeat IPC: 0.3497 cumulative IPC: 0.368641 (Simulation time: 1 hr 7 min 30 sec) 
Heartbeat CPU 0 instructions: 114000003 cycles: 193801856 heartbeat IPC: 0.664574 cumulative IPC: 0.371224 (Simulation time: 1 hr 8 min 1 sec) 
Heartbeat CPU 0 instructions: 115000000 cycles: 197667614 heartbeat IPC: 0.258681 cumulative IPC: 0.368755 (Simulation time: 1 hr 8 min 46 sec) 
Heartbeat CPU 0 instructions: 116000000 cycles: 199802972 heartbeat IPC: 0.468306 cumulative IPC: 0.369947 (Simulation time: 1 hr 9 min 13 sec) 
Heartbeat CPU 0 instructions: 117000000 cycles: 200980611 heartbeat IPC: 0.849157 cumulative IPC: 0.373089 (Simulation time: 1 hr 9 min 35 sec) 
Heartbeat CPU 0 instructions: 118000000 cycles: 204081064 heartbeat IPC: 0.322534 cumulative IPC: 0.372231 (Simulation time: 1 hr 10 min 12 sec) 
Heartbeat CPU 0 instructions: 119000001 cycles: 206918931 heartbeat IPC: 0.352378 cumulative IPC: 0.371928 (Simulation time: 1 hr 10 min 56 sec) 
Heartbeat CPU 0 instructions: 120000000 cycles: 209886641 heartbeat IPC: 0.33696 cumulative IPC: 0.371377 (Simulation time: 1 hr 11 min 35 sec) 
Heartbeat CPU 0 instructions: 121000000 cycles: 211454085 heartbeat IPC: 0.637981 cumulative IPC: 0.373576 (Simulation time: 1 hr 12 min 3 sec) 
Heartbeat CPU 0 instructions: 122000001 cycles: 215134878 heartbeat IPC: 0.271681 cumulative IPC: 0.37164 (Simulation time: 1 hr 12 min 42 sec) 
Heartbeat CPU 0 instructions: 123000000 cycles: 217639761 heartbeat IPC: 0.39922 cumulative IPC: 0.371992 (Simulation time: 1 hr 13 min 7 sec) 
Heartbeat CPU 0 instructions: 124000000 cycles: 218848663 heartbeat IPC: 0.827197 cumulative IPC: 0.374779 (Simulation time: 1 hr 13 min 30 sec) 
Heartbeat CPU 0 instructions: 125000003 cycles: 221502184 heartbeat IPC: 0.376859 cumulative IPC: 0.374807 (Simulation time: 1 hr 14 min 0 sec) 
Heartbeat CPU 0 instructions: 126000000 cycles: 224341207 heartbeat IPC: 0.352233 cumulative IPC: 0.374491 (Simulation time: 1 hr 14 min 32 sec) 
Heartbeat CPU 0 instructions: 127000003 cycles: 226742156 heartbeat IPC: 0.416503 cumulative IPC: 0.374982 (Simulation time: 1 hr 15 min 1 sec) 
Heartbeat CPU 0 instructions: 128000000 cycles: 229382931 heartbeat IPC: 0.378676 cumulative IPC: 0.375029 (Simulation time: 1 hr 15 min 27 sec) 
Heartbeat CPU 0 instructions: 129000001 cycles: 231339981 heartbeat IPC: 0.510974 cumulative IPC: 0.376296 (Simulation time: 1 hr 15 min 51 sec) 
Heartbeat CPU 0 instructions: 130000000 cycles: 235354238 heartbeat IPC: 0.249112 cumulative IPC: 0.37391 (Simulation time: 1 hr 16 min 23 sec) 
Heartbeat CPU 0 instructions: 131000001 cycles: 236686866 heartbeat IPC: 0.750398 cumulative IPC: 0.37624 (Simulation time: 1 hr 16 min 39 sec) 
Heartbeat CPU 0 instructions: 132000000 cycles: 237823424 heartbeat IPC: 0.879849 cumulative IPC: 0.378885 (Simulation time: 1 hr 16 min 54 sec) 
Heartbeat CPU 0 instructions: 133000002 cycles: 241313343 heartbeat IPC: 0.28654 cumulative IPC: 0.37742 (Simulation time: 1 hr 17 min 19 sec) 
Heartbeat CPU 0 instructions: 134000002 cycles: 244472070 heartbeat IPC: 0.316583 cumulative IPC: 0.376558 (Simulation time: 1 hr 17 min 46 sec) 
Heartbeat CPU 0 instructions: 135000001 cycles: 247181967 heartbeat IPC: 0.369017 cumulative IPC: 0.376468 (Simulation time: 1 hr 18 min 7 sec) 
Heartbeat CPU 0 instructions: 136000000 cycles: 248894893 heartbeat IPC: 0.583796 cumulative IPC: 0.378029 (Simulation time: 1 hr 18 min 28 sec) 
Heartbeat CPU 0 instructions: 137000003 cycles: 252757880 heartbeat IPC: 0.258868 cumulative IPC: 0.376039 (Simulation time: 1 hr 18 min 57 sec) 
Heartbeat CPU 0 instructions: 138000000 cycles: 254510529 heartbeat IPC: 0.570563 cumulative IPC: 0.377502 (Simulation time: 1 hr 19 min 11 sec) 
Heartbeat CPU 0 instructions: 139000000 cycles: 255663439 heartbeat IPC: 0.86737 cumulative IPC: 0.379913 (Simulation time: 1 hr 19 min 25 sec) 
Heartbeat CPU 0 instructions: 140000000 cycles: 259143220 heartbeat IPC: 0.287374 cumulative IPC: 0.378558 (Simulation time: 1 hr 19 min 46 sec) 
Heartbeat CPU 0 instructions: 141000001 cycles: 262060864 heartbeat IPC: 0.342743 cumulative IPC: 0.378124 (Simulation time: 1 hr 20 min 11 sec) 
Heartbeat CPU 0 instructions: 142000002 cycles: 264855243 heartbeat IPC: 0.357862 cumulative IPC: 0.377891 (Simulation time: 1 hr 20 min 31 sec) 
Heartbeat CPU 0 instructions: 143000000 cycles: 266446595 heartbeat IPC: 0.628395 cumulative IPC: 0.379518 (Simulation time: 1 hr 20 min 50 sec) 
Heartbeat CPU 0 instructions: 144000000 cycles: 270365234 heartbeat IPC: 0.255191 cumulative IPC: 0.377561 (Simulation time: 1 hr 21 min 17 sec) 
Heartbeat CPU 0 instructions: 145000001 cycles: 272386202 heartbeat IPC: 0.494813 cumulative IPC: 0.378505 (Simulation time: 1 hr 21 min 32 sec) 
Heartbeat CPU 0 instructions: 146000000 cycles: 273554988 heartbeat IPC: 0.855588 cumulative IPC: 0.380717 (Simulation time: 1 hr 21 min 45 sec) 
Heartbeat CPU 0 instructions: 147000000 cycles: 276732825 heartbeat IPC: 0.314679 cumulative IPC: 0.379895 (Simulation time: 1 hr 22 min 3 sec) 
Heartbeat CPU 0 instructions: 148000000 cycles: 279555284 heartbeat IPC: 0.354301 cumulative IPC: 0.379615 (Simulation time: 1 hr 22 min 24 sec) 
Heartbeat CPU 0 instructions: 149000002 cycles: 282614505 heartbeat IPC: 0.326881 cumulative IPC: 0.378997 (Simulation time: 1 hr 22 min 44 sec) 
Heartbeat CPU 0 instructions: 150000000 cycles: 284040439 heartbeat IPC: 0.701293 cumulative IPC: 0.380747 (Simulation time: 1 hr 23 min 1 sec) 
Finished CPU 0 instructions: 100000001 cycles: 262641409 cummulative IPC: 0.380747 (Simulation time: 1 hr 23 min 1 sec) 

ChampSim completed all CPUs

Region of Interest Statistics

CPU 0 cummulative IPC: 0.380747 instructions: 100000001 cycles: 262641409
LLC TOTAL     ACCESS:    8586371  HIT:    4770746  MISS:    3815625
LLC LOAD      ACCESS:    2181217  HIT:    1056221  MISS:    1124996
LLC RFO       ACCESS:     808512  HIT:     247534  MISS:     560978
LLC PREFETCH  ACCESS:    3497776  HIT:    1616686  MISS:    1881090
LLC WRITEBACK ACCESS:    2098866  HIT:    1850305  MISS:     248561
OPTgen accesses: 65800
OPTgen hits: 49888
OPTgen hit rate: 75.8176


