
*** ChampSim Multicore Out-of-Order Simulator ***

Warmup Instructions: 50000000
Simulation Instructions: 100000000
Configuration: 2
Number of CPUs: 1
LLC sets: 2048
LLC ways: 16
Off-chip DRAM Channels: 1 Width: 64-bit Data Rate: 1600 MT/s

CPU 0 runs /datasets/cs240c-wi22-a00-public/data/Assignment2-gz/GemsFDTD_716B.trace.gz
CPU 0 L1D next line prefetcher
CPU 0 L2C IP-based stride prefetcher
Initialize Hawkeye state
Heartbeat CPU 0 instructions: 1000000 cycles: 415045 heartbeat IPC: 2.40938 cumulative IPC: 2.40938 (Simulation time: 0 hr 0 min 33 sec) 
Heartbeat CPU 0 instructions: 2000003 cycles: 829979 heartbeat IPC: 2.41003 cumulative IPC: 2.4097 (Simulation time: 0 hr 1 min 10 sec) 
Heartbeat CPU 0 instructions: 3000000 cycles: 1280233 heartbeat IPC: 2.22096 cumulative IPC: 2.34332 (Simulation time: 0 hr 1 min 42 sec) 
Heartbeat CPU 0 instructions: 4000000 cycles: 1737264 heartbeat IPC: 2.18804 cumulative IPC: 2.30247 (Simulation time: 0 hr 2 min 15 sec) 
Heartbeat CPU 0 instructions: 5000000 cycles: 2152245 heartbeat IPC: 2.40975 cumulative IPC: 2.32316 (Simulation time: 0 hr 2 min 53 sec) 
Heartbeat CPU 0 instructions: 6000000 cycles: 2567261 heartbeat IPC: 2.40955 cumulative IPC: 2.33712 (Simulation time: 0 hr 3 min 23 sec) 
Heartbeat CPU 0 instructions: 7000000 cycles: 2982264 heartbeat IPC: 2.40962 cumulative IPC: 2.34721 (Simulation time: 0 hr 3 min 59 sec) 
Heartbeat CPU 0 instructions: 8000000 cycles: 3395191 heartbeat IPC: 2.42174 cumulative IPC: 2.35627 (Simulation time: 0 hr 4 min 33 sec) 
Heartbeat CPU 0 instructions: 9000003 cycles: 3840223 heartbeat IPC: 2.24704 cumulative IPC: 2.34361 (Simulation time: 0 hr 5 min 16 sec) 
Heartbeat CPU 0 instructions: 10000002 cycles: 4354523 heartbeat IPC: 1.94439 cumulative IPC: 2.29646 (Simulation time: 0 hr 6 min 2 sec) 
Heartbeat CPU 0 instructions: 11000000 cycles: 4869364 heartbeat IPC: 1.94234 cumulative IPC: 2.25902 (Simulation time: 0 hr 6 min 44 sec) 
Heartbeat CPU 0 instructions: 12000000 cycles: 5383711 heartbeat IPC: 1.94421 cumulative IPC: 2.22895 (Simulation time: 0 hr 7 min 27 sec) 
Heartbeat CPU 0 instructions: 13000002 cycles: 5898405 heartbeat IPC: 1.94291 cumulative IPC: 2.20399 (Simulation time: 0 hr 8 min 12 sec) 
Heartbeat CPU 0 instructions: 14000000 cycles: 6414336 heartbeat IPC: 1.93824 cumulative IPC: 2.18261 (Simulation time: 0 hr 8 min 58 sec) 
Heartbeat CPU 0 instructions: 15000001 cycles: 6934503 heartbeat IPC: 1.92246 cumulative IPC: 2.1631 (Simulation time: 0 hr 9 min 43 sec) 
Heartbeat CPU 0 instructions: 16000000 cycles: 7454724 heartbeat IPC: 1.92226 cumulative IPC: 2.14629 (Simulation time: 0 hr 10 min 27 sec) 
Heartbeat CPU 0 instructions: 17000001 cycles: 7975432 heartbeat IPC: 1.92046 cumulative IPC: 2.13155 (Simulation time: 0 hr 11 min 10 sec) 
Heartbeat CPU 0 instructions: 18000000 cycles: 8496345 heartbeat IPC: 1.9197 cumulative IPC: 2.11856 (Simulation time: 0 hr 11 min 56 sec) 
Heartbeat CPU 0 instructions: 19000003 cycles: 9017475 heartbeat IPC: 1.91891 cumulative IPC: 2.10702 (Simulation time: 0 hr 12 min 39 sec) 
Heartbeat CPU 0 instructions: 20000000 cycles: 9556077 heartbeat IPC: 1.85665 cumulative IPC: 2.09291 (Simulation time: 0 hr 13 min 27 sec) 
Heartbeat CPU 0 instructions: 21000000 cycles: 10098175 heartbeat IPC: 1.84468 cumulative IPC: 2.07958 (Simulation time: 0 hr 14 min 9 sec) 
Heartbeat CPU 0 instructions: 22000001 cycles: 10639164 heartbeat IPC: 1.84847 cumulative IPC: 2.06783 (Simulation time: 0 hr 14 min 48 sec) 
Heartbeat CPU 0 instructions: 23000003 cycles: 11180642 heartbeat IPC: 1.8468 cumulative IPC: 2.05713 (Simulation time: 0 hr 15 min 33 sec) 
Heartbeat CPU 0 instructions: 24000000 cycles: 11722876 heartbeat IPC: 1.84422 cumulative IPC: 2.04728 (Simulation time: 0 hr 16 min 13 sec) 
Heartbeat CPU 0 instructions: 25000000 cycles: 12250673 heartbeat IPC: 1.89467 cumulative IPC: 2.0407 (Simulation time: 0 hr 16 min 54 sec) 
Heartbeat CPU 0 instructions: 26000000 cycles: 12769409 heartbeat IPC: 1.92776 cumulative IPC: 2.03612 (Simulation time: 0 hr 17 min 36 sec) 
Heartbeat CPU 0 instructions: 27000002 cycles: 13288112 heartbeat IPC: 1.92789 cumulative IPC: 2.03189 (Simulation time: 0 hr 18 min 20 sec) 
Heartbeat CPU 0 instructions: 28000000 cycles: 13806575 heartbeat IPC: 1.92877 cumulative IPC: 2.02802 (Simulation time: 0 hr 19 min 7 sec) 
Heartbeat CPU 0 instructions: 29000003 cycles: 14324745 heartbeat IPC: 1.92987 cumulative IPC: 2.02447 (Simulation time: 0 hr 19 min 59 sec) 
Heartbeat CPU 0 instructions: 30000001 cycles: 14858433 heartbeat IPC: 1.87375 cumulative IPC: 2.01906 (Simulation time: 0 hr 20 min 45 sec) 
Heartbeat CPU 0 instructions: 31000001 cycles: 15419670 heartbeat IPC: 1.78178 cumulative IPC: 2.01042 (Simulation time: 0 hr 21 min 28 sec) 
Heartbeat CPU 0 instructions: 32000000 cycles: 15980943 heartbeat IPC: 1.78166 cumulative IPC: 2.00238 (Simulation time: 0 hr 22 min 18 sec) 
Heartbeat CPU 0 instructions: 33000002 cycles: 16543190 heartbeat IPC: 1.77858 cumulative IPC: 1.99478 (Simulation time: 0 hr 23 min 1 sec) 
Heartbeat CPU 0 instructions: 34000001 cycles: 17104027 heartbeat IPC: 1.78305 cumulative IPC: 1.98784 (Simulation time: 0 hr 23 min 43 sec) 
Heartbeat CPU 0 instructions: 35000001 cycles: 17665314 heartbeat IPC: 1.78162 cumulative IPC: 1.98128 (Simulation time: 0 hr 24 min 26 sec) 
Heartbeat CPU 0 instructions: 36000000 cycles: 18227968 heartbeat IPC: 1.77729 cumulative IPC: 1.97499 (Simulation time: 0 hr 25 min 9 sec) 
Heartbeat CPU 0 instructions: 37000002 cycles: 18801894 heartbeat IPC: 1.74239 cumulative IPC: 1.96789 (Simulation time: 0 hr 25 min 50 sec) 
Heartbeat CPU 0 instructions: 38000002 cycles: 19375748 heartbeat IPC: 1.7426 cumulative IPC: 1.96121 (Simulation time: 0 hr 26 min 31 sec) 
Heartbeat CPU 0 instructions: 39000000 cycles: 19949443 heartbeat IPC: 1.74308 cumulative IPC: 1.95494 (Simulation time: 0 hr 27 min 12 sec) 
Heartbeat CPU 0 instructions: 40000000 cycles: 20523333 heartbeat IPC: 1.74249 cumulative IPC: 1.949 (Simulation time: 0 hr 27 min 59 sec) 
Heartbeat CPU 0 instructions: 41000002 cycles: 21096796 heartbeat IPC: 1.7438 cumulative IPC: 1.94342 (Simulation time: 0 hr 28 min 43 sec) 
Heartbeat CPU 0 instructions: 42000000 cycles: 21670560 heartbeat IPC: 1.74287 cumulative IPC: 1.93811 (Simulation time: 0 hr 29 min 25 sec) 
Heartbeat CPU 0 instructions: 43000002 cycles: 22218115 heartbeat IPC: 1.8263 cumulative IPC: 1.93536 (Simulation time: 0 hr 30 min 8 sec) 
Heartbeat CPU 0 instructions: 44000000 cycles: 22751711 heartbeat IPC: 1.87407 cumulative IPC: 1.93392 (Simulation time: 0 hr 30 min 53 sec) 
Heartbeat CPU 0 instructions: 45000001 cycles: 23285123 heartbeat IPC: 1.87473 cumulative IPC: 1.93256 (Simulation time: 0 hr 31 min 38 sec) 
Heartbeat CPU 0 instructions: 46000001 cycles: 23818662 heartbeat IPC: 1.87428 cumulative IPC: 1.93126 (Simulation time: 0 hr 32 min 29 sec) 
Heartbeat CPU 0 instructions: 47000003 cycles: 24352130 heartbeat IPC: 1.87453 cumulative IPC: 1.93002 (Simulation time: 0 hr 33 min 12 sec) 
Heartbeat CPU 0 instructions: 48000000 cycles: 24891886 heartbeat IPC: 1.85268 cumulative IPC: 1.92834 (Simulation time: 0 hr 33 min 58 sec) 
Heartbeat CPU 0 instructions: 49000003 cycles: 25438840 heartbeat IPC: 1.82831 cumulative IPC: 1.92619 (Simulation time: 0 hr 34 min 54 sec) 
Heartbeat CPU 0 instructions: 50000003 cycles: 25985969 heartbeat IPC: 1.82772 cumulative IPC: 1.92412 (Simulation time: 0 hr 35 min 41 sec) 

Warmup complete CPU 0 instructions: 50000003 cycles: 25985969 (Simulation time: 0 hr 35 min 41 sec) 

Heartbeat CPU 0 instructions: 51000003 cycles: 29571100 heartbeat IPC: 0.27893 cumulative IPC: 0.27893 (Simulation time: 0 hr 36 min 46 sec) 
Heartbeat CPU 0 instructions: 52000000 cycles: 33155551 heartbeat IPC: 0.278982 cumulative IPC: 0.278956 (Simulation time: 0 hr 37 min 47 sec) 
Heartbeat CPU 0 instructions: 53000002 cycles: 36888660 heartbeat IPC: 0.267874 cumulative IPC: 0.275161 (Simulation time: 0 hr 38 min 48 sec) 
Heartbeat CPU 0 instructions: 54000001 cycles: 39007309 heartbeat IPC: 0.471998 cumulative IPC: 0.307188 (Simulation time: 0 hr 39 min 44 sec) 
Heartbeat CPU 0 instructions: 55000002 cycles: 40813470 heartbeat IPC: 0.553661 cumulative IPC: 0.337211 (Simulation time: 0 hr 40 min 37 sec) 
Heartbeat CPU 0 instructions: 56000000 cycles: 42667451 heartbeat IPC: 0.539379 cumulative IPC: 0.35968 (Simulation time: 0 hr 41 min 30 sec) 
Heartbeat CPU 0 instructions: 57000002 cycles: 44507399 heartbeat IPC: 0.543495 cumulative IPC: 0.377941 (Simulation time: 0 hr 42 min 21 sec) 
Heartbeat CPU 0 instructions: 58000001 cycles: 46278792 heartbeat IPC: 0.564527 cumulative IPC: 0.394228 (Simulation time: 0 hr 43 min 20 sec) 
Heartbeat CPU 0 instructions: 59000002 cycles: 48408156 heartbeat IPC: 0.469624 cumulative IPC: 0.401388 (Simulation time: 0 hr 44 min 13 sec) 
Heartbeat CPU 0 instructions: 60000000 cycles: 49936344 heartbeat IPC: 0.654368 cumulative IPC: 0.41753 (Simulation time: 0 hr 45 min 0 sec) 
Heartbeat CPU 0 instructions: 61000002 cycles: 51465768 heartbeat IPC: 0.653842 cumulative IPC: 0.431715 (Simulation time: 0 hr 45 min 47 sec) 
Heartbeat CPU 0 instructions: 62000000 cycles: 53006027 heartbeat IPC: 0.64924 cumulative IPC: 0.444114 (Simulation time: 0 hr 46 min 41 sec) 
Heartbeat CPU 0 instructions: 63000000 cycles: 54564706 heartbeat IPC: 0.641569 cumulative IPC: 0.454884 (Simulation time: 0 hr 47 min 33 sec) 
Heartbeat CPU 0 instructions: 64000000 cycles: 56591184 heartbeat IPC: 0.493467 cumulative IPC: 0.457438 (Simulation time: 0 hr 48 min 28 sec) 
Heartbeat CPU 0 instructions: 65000001 cycles: 57965653 heartbeat IPC: 0.727554 cumulative IPC: 0.469048 (Simulation time: 0 hr 49 min 19 sec) 
Heartbeat CPU 0 instructions: 66000003 cycles: 59308492 heartbeat IPC: 0.744692 cumulative IPC: 0.480156 (Simulation time: 0 hr 50 min 7 sec) 
Heartbeat CPU 0 instructions: 67000003 cycles: 60651675 heartbeat IPC: 0.7445 cumulative IPC: 0.490398 (Simulation time: 0 hr 50 min 55 sec) 
Heartbeat CPU 0 instructions: 68000000 cycles: 61988439 heartbeat IPC: 0.748073 cumulative IPC: 0.499966 (Simulation time: 0 hr 51 min 43 sec) 
Heartbeat CPU 0 instructions: 69000000 cycles: 63323409 heartbeat IPC: 0.74908 cumulative IPC: 0.508873 (Simulation time: 0 hr 52 min 31 sec) 
Heartbeat CPU 0 instructions: 70000000 cycles: 65111137 heartbeat IPC: 0.559369 cumulative IPC: 0.51118 (Simulation time: 0 hr 53 min 20 sec) 
Heartbeat CPU 0 instructions: 71000000 cycles: 66658069 heartbeat IPC: 0.646441 cumulative IPC: 0.516324 (Simulation time: 0 hr 54 min 5 sec) 
Heartbeat CPU 0 instructions: 72000000 cycles: 68015797 heartbeat IPC: 0.736525 cumulative IPC: 0.523438 (Simulation time: 0 hr 54 min 51 sec) 
Heartbeat CPU 0 instructions: 73000002 cycles: 69376127 heartbeat IPC: 0.735117 cumulative IPC: 0.530074 (Simulation time: 0 hr 55 min 37 sec) 
Heartbeat CPU 0 instructions: 74000000 cycles: 70738286 heartbeat IPC: 0.734127 cumulative IPC: 0.536285 (Simulation time: 0 hr 56 min 31 sec) 
Heartbeat CPU 0 instructions: 75000000 cycles: 72105448 heartbeat IPC: 0.731442 cumulative IPC: 0.54207 (Simulation time: 0 hr 57 min 18 sec) 
Heartbeat CPU 0 instructions: 76000000 cycles: 73470527 heartbeat IPC: 0.732558 cumulative IPC: 0.547546 (Simulation time: 0 hr 58 min 6 sec) 
Heartbeat CPU 0 instructions: 77000001 cycles: 77033362 heartbeat IPC: 0.280676 cumulative IPC: 0.52892 (Simulation time: 0 hr 59 min 8 sec) 
Heartbeat CPU 0 instructions: 78000000 cycles: 80430487 heartbeat IPC: 0.294366 cumulative IPC: 0.514285 (Simulation time: 1 hr 0 min 7 sec) 
Heartbeat CPU 0 instructions: 79000002 cycles: 83816811 heartbeat IPC: 0.295306 cumulative IPC: 0.501463 (Simulation time: 1 hr 1 min 11 sec) 
Heartbeat CPU 0 instructions: 80000000 cycles: 87206413 heartbeat IPC: 0.295019 cumulative IPC: 0.490032 (Simulation time: 1 hr 2 min 16 sec) 
Heartbeat CPU 0 instructions: 81000000 cycles: 90595376 heartbeat IPC: 0.295076 cumulative IPC: 0.479806 (Simulation time: 1 hr 3 min 17 sec) 
Heartbeat CPU 0 instructions: 82000002 cycles: 94562790 heartbeat IPC: 0.252054 cumulative IPC: 0.46663 (Simulation time: 1 hr 4 min 20 sec) 
Heartbeat CPU 0 instructions: 83000002 cycles: 98179432 heartbeat IPC: 0.2765 cumulative IPC: 0.457105 (Simulation time: 1 hr 5 min 22 sec) 
Heartbeat CPU 0 instructions: 84000000 cycles: 101801982 heartbeat IPC: 0.276048 cumulative IPC: 0.448454 (Simulation time: 1 hr 6 min 18 sec) 
Heartbeat CPU 0 instructions: 85000000 cycles: 105421890 heartbeat IPC: 0.27625 cumulative IPC: 0.440607 (Simulation time: 1 hr 7 min 17 sec) 
Heartbeat CPU 0 instructions: 86000000 cycles: 109043282 heartbeat IPC: 0.276137 cumulative IPC: 0.433436 (Simulation time: 1 hr 8 min 15 sec) 
Heartbeat CPU 0 instructions: 87000000 cycles: 112733700 heartbeat IPC: 0.270972 cumulative IPC: 0.426524 (Simulation time: 1 hr 9 min 13 sec) 
Heartbeat CPU 0 instructions: 88000000 cycles: 114459947 heartbeat IPC: 0.579291 cumulative IPC: 0.429505 (Simulation time: 1 hr 10 min 5 sec) 
Heartbeat CPU 0 instructions: 89000001 cycles: 116067781 heartbeat IPC: 0.621955 cumulative IPC: 0.43294 (Simulation time: 1 hr 10 min 54 sec) 
Heartbeat CPU 0 instructions: 90000001 cycles: 117673686 heartbeat IPC: 0.622702 cumulative IPC: 0.436263 (Simulation time: 1 hr 11 min 40 sec) 
Heartbeat CPU 0 instructions: 91000001 cycles: 119283844 heartbeat IPC: 0.621057 cumulative IPC: 0.439453 (Simulation time: 1 hr 12 min 21 sec) 
Heartbeat CPU 0 instructions: 92000000 cycles: 120894025 heartbeat IPC: 0.621048 cumulative IPC: 0.442534 (Simulation time: 1 hr 13 min 4 sec) 
Heartbeat CPU 0 instructions: 93000002 cycles: 122974573 heartbeat IPC: 0.480644 cumulative IPC: 0.443351 (Simulation time: 1 hr 13 min 49 sec) 
Heartbeat CPU 0 instructions: 94000001 cycles: 124377407 heartbeat IPC: 0.712842 cumulative IPC: 0.447193 (Simulation time: 1 hr 14 min 27 sec) 
Heartbeat CPU 0 instructions: 95000000 cycles: 125773761 heartbeat IPC: 0.71615 cumulative IPC: 0.450957 (Simulation time: 1 hr 15 min 7 sec) 
Heartbeat CPU 0 instructions: 96000000 cycles: 127180242 heartbeat IPC: 0.710994 cumulative IPC: 0.454571 (Simulation time: 1 hr 15 min 40 sec) 
Heartbeat CPU 0 instructions: 97000001 cycles: 128581037 heartbeat IPC: 0.713881 cumulative IPC: 0.458112 (Simulation time: 1 hr 16 min 13 sec) 
Heartbeat CPU 0 instructions: 98000000 cycles: 130557378 heartbeat IPC: 0.505985 cumulative IPC: 0.459016 (Simulation time: 1 hr 16 min 46 sec) 
Heartbeat CPU 0 instructions: 99000001 cycles: 131920356 heartbeat IPC: 0.733688 cumulative IPC: 0.46255 (Simulation time: 1 hr 17 min 15 sec) 
Heartbeat CPU 0 instructions: 100000000 cycles: 133284773 heartbeat IPC: 0.732913 cumulative IPC: 0.465988 (Simulation time: 1 hr 17 min 45 sec) 
Heartbeat CPU 0 instructions: 101000002 cycles: 134644809 heartbeat IPC: 0.735276 cumulative IPC: 0.469359 (Simulation time: 1 hr 18 min 14 sec) 
Heartbeat CPU 0 instructions: 102000003 cycles: 136008234 heartbeat IPC: 0.733448 cumulative IPC: 0.472632 (Simulation time: 1 hr 18 min 42 sec) 
Heartbeat CPU 0 instructions: 103000000 cycles: 137368636 heartbeat IPC: 0.735075 cumulative IPC: 0.475837 (Simulation time: 1 hr 19 min 10 sec) 
Heartbeat CPU 0 instructions: 104000000 cycles: 139311714 heartbeat IPC: 0.514647 cumulative IPC: 0.476502 (Simulation time: 1 hr 19 min 40 sec) 
Heartbeat CPU 0 instructions: 105000003 cycles: 140788053 heartbeat IPC: 0.677353 cumulative IPC: 0.479085 (Simulation time: 1 hr 20 min 6 sec) 
Heartbeat CPU 0 instructions: 106000001 cycles: 142166125 heartbeat IPC: 0.72565 cumulative IPC: 0.48201 (Simulation time: 1 hr 20 min 31 sec) 
Heartbeat CPU 0 instructions: 107000001 cycles: 143554479 heartbeat IPC: 0.720277 cumulative IPC: 0.484824 (Simulation time: 1 hr 20 min 58 sec) 
Heartbeat CPU 0 instructions: 108000000 cycles: 144932493 heartbeat IPC: 0.725681 cumulative IPC: 0.487614 (Simulation time: 1 hr 21 min 28 sec) 
Heartbeat CPU 0 instructions: 109000000 cycles: 146311810 heartbeat IPC: 0.724997 cumulative IPC: 0.490335 (Simulation time: 1 hr 21 min 52 sec) 
Heartbeat CPU 0 instructions: 110000002 cycles: 148089456 heartbeat IPC: 0.562543 cumulative IPC: 0.491386 (Simulation time: 1 hr 22 min 17 sec) 
Heartbeat CPU 0 instructions: 111000002 cycles: 151597621 heartbeat IPC: 0.285049 cumulative IPC: 0.485624 (Simulation time: 1 hr 22 min 48 sec) 
Heartbeat CPU 0 instructions: 112000000 cycles: 154940869 heartbeat IPC: 0.29911 cumulative IPC: 0.480788 (Simulation time: 1 hr 23 min 18 sec) 
Heartbeat CPU 0 instructions: 113000001 cycles: 158278971 heartbeat IPC: 0.299572 cumulative IPC: 0.476216 (Simulation time: 1 hr 23 min 45 sec) 
Heartbeat CPU 0 instructions: 114000000 cycles: 161619788 heartbeat IPC: 0.299328 cumulative IPC: 0.471859 (Simulation time: 1 hr 24 min 12 sec) 
Heartbeat CPU 0 instructions: 115000002 cycles: 164953783 heartbeat IPC: 0.299941 cumulative IPC: 0.467734 (Simulation time: 1 hr 24 min 37 sec) 
Heartbeat CPU 0 instructions: 116000000 cycles: 168899230 heartbeat IPC: 0.253456 cumulative IPC: 0.461819 (Simulation time: 1 hr 25 min 2 sec) 
Heartbeat CPU 0 instructions: 117000000 cycles: 172502845 heartbeat IPC: 0.277499 cumulative IPC: 0.457285 (Simulation time: 1 hr 25 min 28 sec) 
Heartbeat CPU 0 instructions: 118000000 cycles: 176105570 heartbeat IPC: 0.277568 cumulative IPC: 0.452972 (Simulation time: 1 hr 25 min 53 sec) 
Heartbeat CPU 0 instructions: 119000003 cycles: 179711144 heartbeat IPC: 0.277349 cumulative IPC: 0.448853 (Simulation time: 1 hr 26 min 15 sec) 
Heartbeat CPU 0 instructions: 120000000 cycles: 183308494 heartbeat IPC: 0.277982 cumulative IPC: 0.444946 (Simulation time: 1 hr 26 min 36 sec) 
Heartbeat CPU 0 instructions: 121000001 cycles: 186710061 heartbeat IPC: 0.293982 cumulative IPC: 0.441751 (Simulation time: 1 hr 26 min 55 sec) 
Heartbeat CPU 0 instructions: 122000001 cycles: 188665911 heartbeat IPC: 0.511287 cumulative IPC: 0.442587 (Simulation time: 1 hr 27 min 8 sec) 
Heartbeat CPU 0 instructions: 123000000 cycles: 190601164 heartbeat IPC: 0.516728 cumulative IPC: 0.443458 (Simulation time: 1 hr 27 min 19 sec) 
Heartbeat CPU 0 instructions: 124000000 cycles: 192543625 heartbeat IPC: 0.514811 cumulative IPC: 0.444291 (Simulation time: 1 hr 27 min 32 sec) 
Heartbeat CPU 0 instructions: 125000001 cycles: 194485078 heartbeat IPC: 0.515079 cumulative IPC: 0.445106 (Simulation time: 1 hr 27 min 43 sec) 
Heartbeat CPU 0 instructions: 126000001 cycles: 196870516 heartbeat IPC: 0.41921 cumulative IPC: 0.444745 (Simulation time: 1 hr 27 min 53 sec) 
Heartbeat CPU 0 instructions: 127000000 cycles: 198922414 heartbeat IPC: 0.487353 cumulative IPC: 0.44525 (Simulation time: 1 hr 28 min 1 sec) 
Heartbeat CPU 0 instructions: 128000000 cycles: 200878759 heartbeat IPC: 0.511157 cumulative IPC: 0.445987 (Simulation time: 1 hr 28 min 9 sec) 
Heartbeat CPU 0 instructions: 129000000 cycles: 202769058 heartbeat IPC: 0.529017 cumulative IPC: 0.446875 (Simulation time: 1 hr 28 min 17 sec) 
Heartbeat CPU 0 instructions: 130000003 cycles: 204698690 heartbeat IPC: 0.518235 cumulative IPC: 0.447646 (Simulation time: 1 hr 28 min 25 sec) 
Heartbeat CPU 0 instructions: 131000001 cycles: 206665082 heartbeat IPC: 0.508545 cumulative IPC: 0.448309 (Simulation time: 1 hr 28 min 32 sec) 
Heartbeat CPU 0 instructions: 132000000 cycles: 208608978 heartbeat IPC: 0.51443 cumulative IPC: 0.449012 (Simulation time: 1 hr 28 min 40 sec) 
Heartbeat CPU 0 instructions: 133000000 cycles: 209955318 heartbeat IPC: 0.742754 cumulative IPC: 0.451162 (Simulation time: 1 hr 28 min 45 sec) 
Heartbeat CPU 0 instructions: 134000003 cycles: 211306046 heartbeat IPC: 0.740344 cumulative IPC: 0.45327 (Simulation time: 1 hr 28 min 51 sec) 
Heartbeat CPU 0 instructions: 135000001 cycles: 212658043 heartbeat IPC: 0.739645 cumulative IPC: 0.455344 (Simulation time: 1 hr 28 min 57 sec) 
Heartbeat CPU 0 instructions: 136000000 cycles: 214008669 heartbeat IPC: 0.740397 cumulative IPC: 0.457392 (Simulation time: 1 hr 29 min 2 sec) 
Heartbeat CPU 0 instructions: 137000001 cycles: 215358840 heartbeat IPC: 0.740648 cumulative IPC: 0.459411 (Simulation time: 1 hr 29 min 8 sec) 
Heartbeat CPU 0 instructions: 138000000 cycles: 217357390 heartbeat IPC: 0.500362 cumulative IPC: 0.459839 (Simulation time: 1 hr 29 min 14 sec) 
Heartbeat CPU 0 instructions: 139000001 cycles: 218740228 heartbeat IPC: 0.723151 cumulative IPC: 0.461728 (Simulation time: 1 hr 29 min 19 sec) 
Heartbeat CPU 0 instructions: 140000000 cycles: 220109557 heartbeat IPC: 0.730284 cumulative IPC: 0.463622 (Simulation time: 1 hr 29 min 25 sec) 
Heartbeat CPU 0 instructions: 141000000 cycles: 221483610 heartbeat IPC: 0.727774 cumulative IPC: 0.465479 (Simulation time: 1 hr 29 min 31 sec) 
Heartbeat CPU 0 instructions: 142000002 cycles: 222848966 heartbeat IPC: 0.732411 cumulative IPC: 0.46733 (Simulation time: 1 hr 29 min 36 sec) 
Heartbeat CPU 0 instructions: 143000000 cycles: 224214010 heartbeat IPC: 0.732576 cumulative IPC: 0.469157 (Simulation time: 1 hr 29 min 42 sec) 
Heartbeat CPU 0 instructions: 144000000 cycles: 225617732 heartbeat IPC: 0.712392 cumulative IPC: 0.470867 (Simulation time: 1 hr 29 min 47 sec) 
Heartbeat CPU 0 instructions: 145000000 cycles: 227075084 heartbeat IPC: 0.686176 cumulative IPC: 0.472427 (Simulation time: 1 hr 29 min 52 sec) 
Heartbeat CPU 0 instructions: 146000001 cycles: 228554005 heartbeat IPC: 0.676169 cumulative IPC: 0.473915 (Simulation time: 1 hr 29 min 57 sec) 
Heartbeat CPU 0 instructions: 147000003 cycles: 230143361 heartbeat IPC: 0.629187 cumulative IPC: 0.475124 (Simulation time: 1 hr 30 min 2 sec) 
Heartbeat CPU 0 instructions: 148000000 cycles: 231749605 heartbeat IPC: 0.622569 cumulative IPC: 0.476275 (Simulation time: 1 hr 30 min 7 sec) 
Heartbeat CPU 0 instructions: 149000002 cycles: 233324447 heartbeat IPC: 0.634986 cumulative IPC: 0.47748 (Simulation time: 1 hr 30 min 12 sec) 
Heartbeat CPU 0 instructions: 150000003 cycles: 234929153 heartbeat IPC: 0.623168 cumulative IPC: 0.478599 (Simulation time: 1 hr 30 min 17 sec) 
Finished CPU 0 instructions: 100000000 cycles: 208943184 cummulative IPC: 0.478599 (Simulation time: 1 hr 30 min 17 sec) 

ChampSim completed all CPUs

Region of Interest Statistics

CPU 0 cummulative IPC: 0.478599 instructions: 100000000 cycles: 208943184
LLC TOTAL     ACCESS:   12337575  HIT:   10077969  MISS:    2259606
LLC LOAD      ACCESS:    4933136  HIT:    4184812  MISS:     748324
LLC RFO       ACCESS:         16  HIT:          0  MISS:         16
LLC PREFETCH  ACCESS:    6495363  HIT:    5049224  MISS:    1446139
LLC WRITEBACK ACCESS:     909060  HIT:     843933  MISS:      65127
OPTgen accesses: 111176
OPTgen hits: 174079
OPTgen hit rate: 156.58


