
*** ChampSim Multicore Out-of-Order Simulator ***

Warmup Instructions: 50000000
Simulation Instructions: 100000000
Configuration: 2
Number of CPUs: 1
LLC sets: 2048
LLC ways: 16
Off-chip DRAM Channels: 1 Width: 64-bit Data Rate: 1600 MT/s

CPU 0 runs /datasets/cs240c-wi22-a00-public/data/Assignment2-gz/leslie3d_94B.trace.gz
CPU 0 L1D next line prefetcher
CPU 0 L2C IP-based stride prefetcher
Initialize Hawkeye state
Heartbeat CPU 0 instructions: 1000003 cycles: 597056 heartbeat IPC: 1.67489 cumulative IPC: 1.67489 (Simulation time: 0 hr 0 min 38 sec) 
Heartbeat CPU 0 instructions: 2000002 cycles: 1215904 heartbeat IPC: 1.6159 cumulative IPC: 1.64487 (Simulation time: 0 hr 1 min 20 sec) 
Heartbeat CPU 0 instructions: 3000003 cycles: 1867668 heartbeat IPC: 1.5343 cumulative IPC: 1.60628 (Simulation time: 0 hr 2 min 1 sec) 
Heartbeat CPU 0 instructions: 4000000 cycles: 2518894 heartbeat IPC: 1.53556 cumulative IPC: 1.588 (Simulation time: 0 hr 2 min 46 sec) 
Heartbeat CPU 0 instructions: 5000002 cycles: 3083865 heartbeat IPC: 1.77001 cumulative IPC: 1.62134 (Simulation time: 0 hr 3 min 27 sec) 
Heartbeat CPU 0 instructions: 6000002 cycles: 3734525 heartbeat IPC: 1.5369 cumulative IPC: 1.60663 (Simulation time: 0 hr 4 min 9 sec) 
Heartbeat CPU 0 instructions: 7000000 cycles: 4385254 heartbeat IPC: 1.53673 cumulative IPC: 1.59626 (Simulation time: 0 hr 4 min 48 sec) 
Heartbeat CPU 0 instructions: 8000000 cycles: 4950263 heartbeat IPC: 1.76988 cumulative IPC: 1.61608 (Simulation time: 0 hr 5 min 25 sec) 
Heartbeat CPU 0 instructions: 9000000 cycles: 5601136 heartbeat IPC: 1.5364 cumulative IPC: 1.60682 (Simulation time: 0 hr 6 min 4 sec) 
Heartbeat CPU 0 instructions: 10000001 cycles: 6252372 heartbeat IPC: 1.53554 cumulative IPC: 1.59939 (Simulation time: 0 hr 6 min 43 sec) 
Heartbeat CPU 0 instructions: 11000000 cycles: 6878485 heartbeat IPC: 1.59715 cumulative IPC: 1.59919 (Simulation time: 0 hr 7 min 22 sec) 
Heartbeat CPU 0 instructions: 12000000 cycles: 7380910 heartbeat IPC: 1.99035 cumulative IPC: 1.62582 (Simulation time: 0 hr 7 min 57 sec) 
Heartbeat CPU 0 instructions: 13000000 cycles: 7881209 heartbeat IPC: 1.9988 cumulative IPC: 1.64949 (Simulation time: 0 hr 8 min 36 sec) 
Heartbeat CPU 0 instructions: 14000001 cycles: 8381650 heartbeat IPC: 1.99824 cumulative IPC: 1.67032 (Simulation time: 0 hr 9 min 14 sec) 
Heartbeat CPU 0 instructions: 15000001 cycles: 8881981 heartbeat IPC: 1.99868 cumulative IPC: 1.68881 (Simulation time: 0 hr 9 min 48 sec) 
Heartbeat CPU 0 instructions: 16000000 cycles: 9382275 heartbeat IPC: 1.99882 cumulative IPC: 1.70534 (Simulation time: 0 hr 10 min 28 sec) 
Heartbeat CPU 0 instructions: 17000001 cycles: 9882717 heartbeat IPC: 1.99824 cumulative IPC: 1.72017 (Simulation time: 0 hr 11 min 6 sec) 
Heartbeat CPU 0 instructions: 18000002 cycles: 10382838 heartbeat IPC: 1.99952 cumulative IPC: 1.73363 (Simulation time: 0 hr 11 min 46 sec) 
Heartbeat CPU 0 instructions: 19000000 cycles: 10883302 heartbeat IPC: 1.99814 cumulative IPC: 1.74579 (Simulation time: 0 hr 12 min 22 sec) 
Heartbeat CPU 0 instructions: 20000000 cycles: 11383240 heartbeat IPC: 2.00025 cumulative IPC: 1.75697 (Simulation time: 0 hr 12 min 57 sec) 
Heartbeat CPU 0 instructions: 21000002 cycles: 11883772 heartbeat IPC: 1.99788 cumulative IPC: 1.76712 (Simulation time: 0 hr 13 min 33 sec) 
Heartbeat CPU 0 instructions: 22000000 cycles: 12371555 heartbeat IPC: 2.05009 cumulative IPC: 1.77827 (Simulation time: 0 hr 14 min 4 sec) 
Heartbeat CPU 0 instructions: 23000000 cycles: 12858509 heartbeat IPC: 2.05358 cumulative IPC: 1.7887 (Simulation time: 0 hr 14 min 39 sec) 
Heartbeat CPU 0 instructions: 24000000 cycles: 13344859 heartbeat IPC: 2.05613 cumulative IPC: 1.79845 (Simulation time: 0 hr 15 min 13 sec) 
Heartbeat CPU 0 instructions: 25000000 cycles: 13852145 heartbeat IPC: 1.97127 cumulative IPC: 1.80477 (Simulation time: 0 hr 15 min 49 sec) 
Heartbeat CPU 0 instructions: 26000000 cycles: 14433294 heartbeat IPC: 1.72073 cumulative IPC: 1.80139 (Simulation time: 0 hr 16 min 30 sec) 
Heartbeat CPU 0 instructions: 27000000 cycles: 15014745 heartbeat IPC: 1.71984 cumulative IPC: 1.79823 (Simulation time: 0 hr 17 min 11 sec) 
Heartbeat CPU 0 instructions: 28000000 cycles: 15596140 heartbeat IPC: 1.72 cumulative IPC: 1.79532 (Simulation time: 0 hr 17 min 54 sec) 
Heartbeat CPU 0 instructions: 29000000 cycles: 16177433 heartbeat IPC: 1.7203 cumulative IPC: 1.79262 (Simulation time: 0 hr 18 min 35 sec) 
Heartbeat CPU 0 instructions: 30000002 cycles: 16807760 heartbeat IPC: 1.58648 cumulative IPC: 1.78489 (Simulation time: 0 hr 19 min 14 sec) 
Heartbeat CPU 0 instructions: 31000000 cycles: 17438972 heartbeat IPC: 1.58425 cumulative IPC: 1.77763 (Simulation time: 0 hr 19 min 56 sec) 
Heartbeat CPU 0 instructions: 32000000 cycles: 18060691 heartbeat IPC: 1.60844 cumulative IPC: 1.7718 (Simulation time: 0 hr 20 min 38 sec) 
Heartbeat CPU 0 instructions: 33000001 cycles: 18693224 heartbeat IPC: 1.58095 cumulative IPC: 1.76535 (Simulation time: 0 hr 21 min 18 sec) 
Heartbeat CPU 0 instructions: 34000003 cycles: 19314887 heartbeat IPC: 1.60859 cumulative IPC: 1.7603 (Simulation time: 0 hr 21 min 54 sec) 
Heartbeat CPU 0 instructions: 35000001 cycles: 19946424 heartbeat IPC: 1.58344 cumulative IPC: 1.7547 (Simulation time: 0 hr 22 min 36 sec) 
Heartbeat CPU 0 instructions: 36000000 cycles: 20567626 heartbeat IPC: 1.60978 cumulative IPC: 1.75032 (Simulation time: 0 hr 23 min 17 sec) 
Heartbeat CPU 0 instructions: 37000003 cycles: 21199506 heartbeat IPC: 1.58258 cumulative IPC: 1.74532 (Simulation time: 0 hr 23 min 55 sec) 
Heartbeat CPU 0 instructions: 38000002 cycles: 21830541 heartbeat IPC: 1.5847 cumulative IPC: 1.74068 (Simulation time: 0 hr 24 min 36 sec) 
Heartbeat CPU 0 instructions: 39000002 cycles: 22453077 heartbeat IPC: 1.60633 cumulative IPC: 1.73696 (Simulation time: 0 hr 25 min 13 sec) 
Heartbeat CPU 0 instructions: 40000000 cycles: 23085541 heartbeat IPC: 1.58111 cumulative IPC: 1.73269 (Simulation time: 0 hr 25 min 53 sec) 
Heartbeat CPU 0 instructions: 41000000 cycles: 23707110 heartbeat IPC: 1.60883 cumulative IPC: 1.72944 (Simulation time: 0 hr 26 min 34 sec) 
Heartbeat CPU 0 instructions: 42000002 cycles: 24338513 heartbeat IPC: 1.58378 cumulative IPC: 1.72566 (Simulation time: 0 hr 27 min 11 sec) 
Heartbeat CPU 0 instructions: 43000002 cycles: 24960245 heartbeat IPC: 1.60841 cumulative IPC: 1.72274 (Simulation time: 0 hr 27 min 51 sec) 
Heartbeat CPU 0 instructions: 44000000 cycles: 25592398 heartbeat IPC: 1.58189 cumulative IPC: 1.71926 (Simulation time: 0 hr 28 min 28 sec) 
Heartbeat CPU 0 instructions: 45000002 cycles: 26222715 heartbeat IPC: 1.58651 cumulative IPC: 1.71607 (Simulation time: 0 hr 29 min 8 sec) 
Heartbeat CPU 0 instructions: 46000001 cycles: 26846225 heartbeat IPC: 1.60382 cumulative IPC: 1.71346 (Simulation time: 0 hr 29 min 50 sec) 
Heartbeat CPU 0 instructions: 47000001 cycles: 27477825 heartbeat IPC: 1.58328 cumulative IPC: 1.71047 (Simulation time: 0 hr 30 min 27 sec) 
Heartbeat CPU 0 instructions: 48000000 cycles: 28099415 heartbeat IPC: 1.60878 cumulative IPC: 1.70822 (Simulation time: 0 hr 31 min 5 sec) 
Heartbeat CPU 0 instructions: 49000000 cycles: 28731178 heartbeat IPC: 1.58287 cumulative IPC: 1.70546 (Simulation time: 0 hr 31 min 44 sec) 
Heartbeat CPU 0 instructions: 50000003 cycles: 29352948 heartbeat IPC: 1.60832 cumulative IPC: 1.70341 (Simulation time: 0 hr 32 min 23 sec) 

Warmup complete CPU 0 instructions: 50000003 cycles: 29352948 (Simulation time: 0 hr 32 min 23 sec) 

Heartbeat CPU 0 instructions: 51000003 cycles: 30626799 heartbeat IPC: 0.785021 cumulative IPC: 0.785021 (Simulation time: 0 hr 32 min 59 sec) 
Heartbeat CPU 0 instructions: 52000000 cycles: 31893893 heartbeat IPC: 0.789205 cumulative IPC: 0.787108 (Simulation time: 0 hr 33 min 40 sec) 
Heartbeat CPU 0 instructions: 53000002 cycles: 33209341 heartbeat IPC: 0.760199 cumulative IPC: 0.777929 (Simulation time: 0 hr 34 min 27 sec) 
Heartbeat CPU 0 instructions: 54000001 cycles: 34471683 heartbeat IPC: 0.792178 cumulative IPC: 0.781443 (Simulation time: 0 hr 35 min 8 sec) 
Heartbeat CPU 0 instructions: 55000000 cycles: 35772748 heartbeat IPC: 0.7686 cumulative IPC: 0.77884 (Simulation time: 0 hr 35 min 48 sec) 
Heartbeat CPU 0 instructions: 56000000 cycles: 37047791 heartbeat IPC: 0.784287 cumulative IPC: 0.779743 (Simulation time: 0 hr 36 min 27 sec) 
Heartbeat CPU 0 instructions: 57000000 cycles: 38342682 heartbeat IPC: 0.772266 cumulative IPC: 0.778666 (Simulation time: 0 hr 37 min 5 sec) 
Heartbeat CPU 0 instructions: 58000001 cycles: 39603873 heartbeat IPC: 0.792902 cumulative IPC: 0.780417 (Simulation time: 0 hr 37 min 47 sec) 
Heartbeat CPU 0 instructions: 59000000 cycles: 40858300 heartbeat IPC: 0.797176 cumulative IPC: 0.782244 (Simulation time: 0 hr 38 min 33 sec) 
Heartbeat CPU 0 instructions: 60000000 cycles: 42135246 heartbeat IPC: 0.783118 cumulative IPC: 0.782332 (Simulation time: 0 hr 39 min 13 sec) 
Heartbeat CPU 0 instructions: 61000001 cycles: 43400478 heartbeat IPC: 0.79037 cumulative IPC: 0.783056 (Simulation time: 0 hr 39 min 51 sec) 
Heartbeat CPU 0 instructions: 62000000 cycles: 44688890 heartbeat IPC: 0.776148 cumulative IPC: 0.782475 (Simulation time: 0 hr 40 min 33 sec) 
Heartbeat CPU 0 instructions: 63000000 cycles: 45952344 heartbeat IPC: 0.791481 cumulative IPC: 0.783161 (Simulation time: 0 hr 41 min 13 sec) 
Heartbeat CPU 0 instructions: 64000000 cycles: 47246362 heartbeat IPC: 0.772787 cumulative IPC: 0.782411 (Simulation time: 0 hr 41 min 51 sec) 
Heartbeat CPU 0 instructions: 65000000 cycles: 48515515 heartbeat IPC: 0.787927 cumulative IPC: 0.782776 (Simulation time: 0 hr 42 min 33 sec) 
Heartbeat CPU 0 instructions: 66000000 cycles: 49787846 heartbeat IPC: 0.785959 cumulative IPC: 0.782974 (Simulation time: 0 hr 43 min 17 sec) 
Heartbeat CPU 0 instructions: 67000003 cycles: 51052401 heartbeat IPC: 0.790794 cumulative IPC: 0.78343 (Simulation time: 0 hr 43 min 58 sec) 
Heartbeat CPU 0 instructions: 68000000 cycles: 52313471 heartbeat IPC: 0.792975 cumulative IPC: 0.783954 (Simulation time: 0 hr 44 min 41 sec) 
Heartbeat CPU 0 instructions: 69000000 cycles: 53598153 heartbeat IPC: 0.778403 cumulative IPC: 0.78366 (Simulation time: 0 hr 45 min 25 sec) 
Heartbeat CPU 0 instructions: 70000001 cycles: 54849788 heartbeat IPC: 0.798956 cumulative IPC: 0.784411 (Simulation time: 0 hr 46 min 7 sec) 
Heartbeat CPU 0 instructions: 71000002 cycles: 56145146 heartbeat IPC: 0.771988 cumulative IPC: 0.78381 (Simulation time: 0 hr 46 min 46 sec) 
Heartbeat CPU 0 instructions: 72000000 cycles: 57387888 heartbeat IPC: 0.804671 cumulative IPC: 0.784735 (Simulation time: 0 hr 47 min 27 sec) 
Heartbeat CPU 0 instructions: 73000000 cycles: 58663558 heartbeat IPC: 0.783902 cumulative IPC: 0.784699 (Simulation time: 0 hr 48 min 9 sec) 
Heartbeat CPU 0 instructions: 74000000 cycles: 59924481 heartbeat IPC: 0.79307 cumulative IPC: 0.785044 (Simulation time: 0 hr 48 min 51 sec) 
Heartbeat CPU 0 instructions: 75000002 cycles: 61178002 heartbeat IPC: 0.797754 cumulative IPC: 0.785545 (Simulation time: 0 hr 49 min 37 sec) 
Heartbeat CPU 0 instructions: 76000000 cycles: 62476558 heartbeat IPC: 0.770085 cumulative IPC: 0.784939 (Simulation time: 0 hr 50 min 25 sec) 
Heartbeat CPU 0 instructions: 77000000 cycles: 63729180 heartbeat IPC: 0.798325 cumulative IPC: 0.785426 (Simulation time: 0 hr 51 min 7 sec) 
Heartbeat CPU 0 instructions: 78000003 cycles: 65049525 heartbeat IPC: 0.75738 cumulative IPC: 0.784389 (Simulation time: 0 hr 51 min 49 sec) 
Heartbeat CPU 0 instructions: 79000000 cycles: 66560265 heartbeat IPC: 0.661925 cumulative IPC: 0.779417 (Simulation time: 0 hr 52 min 27 sec) 
Heartbeat CPU 0 instructions: 80000000 cycles: 68206707 heartbeat IPC: 0.60737 cumulative IPC: 0.772126 (Simulation time: 0 hr 53 min 5 sec) 
Heartbeat CPU 0 instructions: 81000002 cycles: 69799911 heartbeat IPC: 0.627667 cumulative IPC: 0.766436 (Simulation time: 0 hr 53 min 41 sec) 
Heartbeat CPU 0 instructions: 82000003 cycles: 71455850 heartbeat IPC: 0.603888 cumulative IPC: 0.760043 (Simulation time: 0 hr 54 min 19 sec) 
Heartbeat CPU 0 instructions: 83000003 cycles: 73116235 heartbeat IPC: 0.60227 cumulative IPC: 0.754057 (Simulation time: 0 hr 54 min 57 sec) 
Heartbeat CPU 0 instructions: 84000000 cycles: 74723912 heartbeat IPC: 0.622014 cumulative IPC: 0.749378 (Simulation time: 0 hr 55 min 36 sec) 
Heartbeat CPU 0 instructions: 85000001 cycles: 76363199 heartbeat IPC: 0.610022 cumulative IPC: 0.744518 (Simulation time: 0 hr 56 min 18 sec) 
Heartbeat CPU 0 instructions: 86000002 cycles: 77981501 heartbeat IPC: 0.617932 cumulative IPC: 0.740306 (Simulation time: 0 hr 56 min 57 sec) 
Heartbeat CPU 0 instructions: 87000000 cycles: 79619484 heartbeat IPC: 0.610506 cumulative IPC: 0.736076 (Simulation time: 0 hr 57 min 35 sec) 
Heartbeat CPU 0 instructions: 88000000 cycles: 81288769 heartbeat IPC: 0.599059 cumulative IPC: 0.731672 (Simulation time: 0 hr 58 min 15 sec) 
Heartbeat CPU 0 instructions: 89000002 cycles: 82920336 heartbeat IPC: 0.612909 cumulative IPC: 0.728055 (Simulation time: 0 hr 58 min 54 sec) 
Heartbeat CPU 0 instructions: 90000001 cycles: 84564952 heartbeat IPC: 0.608044 cumulative IPC: 0.72448 (Simulation time: 0 hr 59 min 31 sec) 
Heartbeat CPU 0 instructions: 91000003 cycles: 86207792 heartbeat IPC: 0.608703 cumulative IPC: 0.721135 (Simulation time: 1 hr 0 min 11 sec) 
Heartbeat CPU 0 instructions: 92000000 cycles: 87865419 heartbeat IPC: 0.60327 cumulative IPC: 0.717796 (Simulation time: 1 hr 0 min 50 sec) 
Heartbeat CPU 0 instructions: 93000001 cycles: 89543255 heartbeat IPC: 0.596006 cumulative IPC: 0.714401 (Simulation time: 1 hr 1 min 31 sec) 
Heartbeat CPU 0 instructions: 94000003 cycles: 91207457 heartbeat IPC: 0.60089 cumulative IPC: 0.711347 (Simulation time: 1 hr 2 min 20 sec) 
Heartbeat CPU 0 instructions: 95000002 cycles: 92918807 heartbeat IPC: 0.584333 cumulative IPC: 0.707927 (Simulation time: 1 hr 3 min 5 sec) 
Heartbeat CPU 0 instructions: 96000000 cycles: 94570971 heartbeat IPC: 0.605266 cumulative IPC: 0.705326 (Simulation time: 1 hr 3 min 44 sec) 
Heartbeat CPU 0 instructions: 97000003 cycles: 96658928 heartbeat IPC: 0.478938 cumulative IPC: 0.698303 (Simulation time: 1 hr 4 min 31 sec) 
Heartbeat CPU 0 instructions: 98000002 cycles: 102245064 heartbeat IPC: 0.179014 cumulative IPC: 0.658507 (Simulation time: 1 hr 5 min 54 sec) 
Heartbeat CPU 0 instructions: 99000000 cycles: 105211512 heartbeat IPC: 0.337103 cumulative IPC: 0.645939 (Simulation time: 1 hr 7 min 2 sec) 
Heartbeat CPU 0 instructions: 100000000 cycles: 106896783 heartbeat IPC: 0.593376 cumulative IPC: 0.644797 (Simulation time: 1 hr 7 min 40 sec) 
Heartbeat CPU 0 instructions: 101000002 cycles: 108159648 heartbeat IPC: 0.791852 cumulative IPC: 0.647153 (Simulation time: 1 hr 8 min 10 sec) 
Heartbeat CPU 0 instructions: 102000003 cycles: 109476420 heartbeat IPC: 0.759434 cumulative IPC: 0.648998 (Simulation time: 1 hr 8 min 46 sec) 
Heartbeat CPU 0 instructions: 103000002 cycles: 110813731 heartbeat IPC: 0.747768 cumulative IPC: 0.65062 (Simulation time: 1 hr 9 min 22 sec) 
Heartbeat CPU 0 instructions: 104000000 cycles: 112298906 heartbeat IPC: 0.67332 cumulative IPC: 0.651026 (Simulation time: 1 hr 9 min 56 sec) 
Heartbeat CPU 0 instructions: 105000001 cycles: 113827519 heartbeat IPC: 0.654188 cumulative IPC: 0.651083 (Simulation time: 1 hr 10 min 28 sec) 
Heartbeat CPU 0 instructions: 106000001 cycles: 115373365 heartbeat IPC: 0.646895 cumulative IPC: 0.651008 (Simulation time: 1 hr 11 min 0 sec) 
Heartbeat CPU 0 instructions: 107000001 cycles: 116914891 heartbeat IPC: 0.648708 cumulative IPC: 0.650968 (Simulation time: 1 hr 11 min 34 sec) 
Heartbeat CPU 0 instructions: 108000000 cycles: 118460935 heartbeat IPC: 0.646811 cumulative IPC: 0.650896 (Simulation time: 1 hr 12 min 7 sec) 
Heartbeat CPU 0 instructions: 109000001 cycles: 119985048 heartbeat IPC: 0.65612 cumulative IPC: 0.650983 (Simulation time: 1 hr 12 min 38 sec) 
Heartbeat CPU 0 instructions: 110000001 cycles: 121527712 heartbeat IPC: 0.648229 cumulative IPC: 0.650937 (Simulation time: 1 hr 13 min 7 sec) 
Heartbeat CPU 0 instructions: 111000003 cycles: 123064993 heartbeat IPC: 0.6505 cumulative IPC: 0.65093 (Simulation time: 1 hr 13 min 38 sec) 
Heartbeat CPU 0 instructions: 112000000 cycles: 124610485 heartbeat IPC: 0.647041 cumulative IPC: 0.650867 (Simulation time: 1 hr 14 min 5 sec) 
Heartbeat CPU 0 instructions: 113000002 cycles: 126239744 heartbeat IPC: 0.613777 cumulative IPC: 0.650243 (Simulation time: 1 hr 14 min 33 sec) 
Heartbeat CPU 0 instructions: 114000002 cycles: 128628391 heartbeat IPC: 0.418647 cumulative IPC: 0.644671 (Simulation time: 1 hr 15 min 5 sec) 
Heartbeat CPU 0 instructions: 115000003 cycles: 131053784 heartbeat IPC: 0.412305 cumulative IPC: 0.639129 (Simulation time: 1 hr 15 min 34 sec) 
Heartbeat CPU 0 instructions: 116000000 cycles: 133533313 heartbeat IPC: 0.403301 cumulative IPC: 0.633517 (Simulation time: 1 hr 16 min 3 sec) 
Heartbeat CPU 0 instructions: 117000001 cycles: 135969211 heartbeat IPC: 0.410527 cumulative IPC: 0.628422 (Simulation time: 1 hr 16 min 34 sec) 
Heartbeat CPU 0 instructions: 118000000 cycles: 138415387 heartbeat IPC: 0.408801 cumulative IPC: 0.623496 (Simulation time: 1 hr 17 min 5 sec) 
Heartbeat CPU 0 instructions: 119000000 cycles: 140778529 heartbeat IPC: 0.423165 cumulative IPC: 0.619247 (Simulation time: 1 hr 17 min 35 sec) 
Heartbeat CPU 0 instructions: 120000000 cycles: 143219641 heartbeat IPC: 0.409649 cumulative IPC: 0.614754 (Simulation time: 1 hr 18 min 5 sec) 
Heartbeat CPU 0 instructions: 121000001 cycles: 145621372 heartbeat IPC: 0.416367 cumulative IPC: 0.610656 (Simulation time: 1 hr 18 min 36 sec) 
Heartbeat CPU 0 instructions: 122000000 cycles: 148009843 heartbeat IPC: 0.418677 cumulative IPC: 0.606791 (Simulation time: 1 hr 19 min 6 sec) 
Heartbeat CPU 0 instructions: 123000003 cycles: 149394299 heartbeat IPC: 0.722308 cumulative IPC: 0.608124 (Simulation time: 1 hr 19 min 29 sec) 
Heartbeat CPU 0 instructions: 124000000 cycles: 150527935 heartbeat IPC: 0.882115 cumulative IPC: 0.610687 (Simulation time: 1 hr 19 min 50 sec) 
Heartbeat CPU 0 instructions: 125000000 cycles: 151625141 heartbeat IPC: 0.911406 cumulative IPC: 0.613386 (Simulation time: 1 hr 20 min 9 sec) 
Heartbeat CPU 0 instructions: 126000001 cycles: 152720254 heartbeat IPC: 0.913149 cumulative IPC: 0.616046 (Simulation time: 1 hr 20 min 29 sec) 
Heartbeat CPU 0 instructions: 127000002 cycles: 153751300 heartbeat IPC: 0.96989 cumulative IPC: 0.618979 (Simulation time: 1 hr 20 min 48 sec) 
Heartbeat CPU 0 instructions: 128000000 cycles: 154784959 heartbeat IPC: 0.967435 cumulative IPC: 0.621851 (Simulation time: 1 hr 21 min 8 sec) 
Heartbeat CPU 0 instructions: 129000002 cycles: 155867660 heartbeat IPC: 0.923618 cumulative IPC: 0.624433 (Simulation time: 1 hr 21 min 27 sec) 
Heartbeat CPU 0 instructions: 130000001 cycles: 156956378 heartbeat IPC: 0.918511 cumulative IPC: 0.626942 (Simulation time: 1 hr 21 min 46 sec) 
Heartbeat CPU 0 instructions: 131000000 cycles: 158034904 heartbeat IPC: 0.92719 cumulative IPC: 0.629459 (Simulation time: 1 hr 22 min 9 sec) 
Heartbeat CPU 0 instructions: 132000000 cycles: 159095734 heartbeat IPC: 0.942658 cumulative IPC: 0.63202 (Simulation time: 1 hr 22 min 28 sec) 
Heartbeat CPU 0 instructions: 133000001 cycles: 160171224 heartbeat IPC: 0.92981 cumulative IPC: 0.634468 (Simulation time: 1 hr 22 min 45 sec) 
Heartbeat CPU 0 instructions: 134000000 cycles: 161254455 heartbeat IPC: 0.923163 cumulative IPC: 0.636839 (Simulation time: 1 hr 23 min 3 sec) 
Heartbeat CPU 0 instructions: 135000002 cycles: 162313823 heartbeat IPC: 0.943961 cumulative IPC: 0.639286 (Simulation time: 1 hr 23 min 21 sec) 
Heartbeat CPU 0 instructions: 136000000 cycles: 163376668 heartbeat IPC: 0.940869 cumulative IPC: 0.641677 (Simulation time: 1 hr 23 min 37 sec) 
Heartbeat CPU 0 instructions: 137000001 cycles: 164444772 heartbeat IPC: 0.936239 cumulative IPC: 0.644006 (Simulation time: 1 hr 23 min 54 sec) 
Heartbeat CPU 0 instructions: 138000002 cycles: 165506132 heartbeat IPC: 0.942188 cumulative IPC: 0.646331 (Simulation time: 1 hr 24 min 10 sec) 
Heartbeat CPU 0 instructions: 139000001 cycles: 166582958 heartbeat IPC: 0.928654 cumulative IPC: 0.648546 (Simulation time: 1 hr 24 min 25 sec) 
Heartbeat CPU 0 instructions: 140000000 cycles: 167663061 heartbeat IPC: 0.925837 cumulative IPC: 0.650712 (Simulation time: 1 hr 24 min 40 sec) 
Heartbeat CPU 0 instructions: 141000001 cycles: 168732943 heartbeat IPC: 0.934683 cumulative IPC: 0.652891 (Simulation time: 1 hr 24 min 56 sec) 
Heartbeat CPU 0 instructions: 142000003 cycles: 169804729 heartbeat IPC: 0.933024 cumulative IPC: 0.655029 (Simulation time: 1 hr 25 min 11 sec) 
Heartbeat CPU 0 instructions: 143000003 cycles: 170856877 heartbeat IPC: 0.950437 cumulative IPC: 0.657226 (Simulation time: 1 hr 25 min 26 sec) 
Heartbeat CPU 0 instructions: 144000000 cycles: 171921115 heartbeat IPC: 0.939637 cumulative IPC: 0.659334 (Simulation time: 1 hr 25 min 40 sec) 
Heartbeat CPU 0 instructions: 145000000 cycles: 172976652 heartbeat IPC: 0.947385 cumulative IPC: 0.661451 (Simulation time: 1 hr 25 min 55 sec) 
Heartbeat CPU 0 instructions: 146000003 cycles: 174053566 heartbeat IPC: 0.928582 cumulative IPC: 0.663439 (Simulation time: 1 hr 26 min 10 sec) 
Heartbeat CPU 0 instructions: 147000001 cycles: 175123462 heartbeat IPC: 0.934668 cumulative IPC: 0.665429 (Simulation time: 1 hr 26 min 26 sec) 
Heartbeat CPU 0 instructions: 148000000 cycles: 176184170 heartbeat IPC: 0.942766 cumulative IPC: 0.667433 (Simulation time: 1 hr 26 min 39 sec) 
Heartbeat CPU 0 instructions: 149000000 cycles: 177247437 heartbeat IPC: 0.940498 cumulative IPC: 0.669396 (Simulation time: 1 hr 26 min 51 sec) 
Heartbeat CPU 0 instructions: 150000003 cycles: 178319612 heartbeat IPC: 0.932686 cumulative IPC: 0.671291 (Simulation time: 1 hr 27 min 2 sec) 
Finished CPU 0 instructions: 100000000 cycles: 148966664 cummulative IPC: 0.671291 (Simulation time: 1 hr 27 min 2 sec) 

ChampSim completed all CPUs

Region of Interest Statistics

CPU 0 cummulative IPC: 0.671291 instructions: 100000000 cycles: 148966664
LLC TOTAL     ACCESS:    4046176  HIT:     784854  MISS:    3261322
LLC LOAD      ACCESS:     356444  HIT:      70644  MISS:     285800
LLC RFO       ACCESS:     704047  HIT:      55012  MISS:     649035
LLC PREFETCH  ACCESS:    2008939  HIT:     298092  MISS:    1710847
LLC WRITEBACK ACCESS:     976746  HIT:     361106  MISS:     615640
OPTgen accesses: 23678
OPTgen hits: 9845
OPTgen hit rate: 41.5787


