
*** ChampSim Multicore Out-of-Order Simulator ***

Warmup Instructions: 50000000
Simulation Instructions: 100000000
Configuration: 2
Number of CPUs: 1
LLC sets: 2048
LLC ways: 16
Off-chip DRAM Channels: 1 Width: 64-bit Data Rate: 1600 MT/s

CPU 0 runs /datasets/cs240c-wi22-a00-public/data/Assignment2-gz/cactusADM_1495B.trace.gz
CPU 0 L1D next line prefetcher
CPU 0 L2C IP-based stride prefetcher
Initialize Hawkeye state
Heartbeat CPU 0 instructions: 1000003 cycles: 593383 heartbeat IPC: 1.68526 cumulative IPC: 1.68526 (Simulation time: 0 hr 0 min 42 sec) 
Heartbeat CPU 0 instructions: 2000000 cycles: 1186345 heartbeat IPC: 1.68644 cumulative IPC: 1.68585 (Simulation time: 0 hr 1 min 23 sec) 
Heartbeat CPU 0 instructions: 3000003 cycles: 1779703 heartbeat IPC: 1.68533 cumulative IPC: 1.68568 (Simulation time: 0 hr 2 min 1 sec) 
Heartbeat CPU 0 instructions: 4000000 cycles: 2372522 heartbeat IPC: 1.68685 cumulative IPC: 1.68597 (Simulation time: 0 hr 2 min 40 sec) 
Heartbeat CPU 0 instructions: 5000000 cycles: 2965579 heartbeat IPC: 1.68618 cumulative IPC: 1.68601 (Simulation time: 0 hr 3 min 17 sec) 
Heartbeat CPU 0 instructions: 6000001 cycles: 3558796 heartbeat IPC: 1.68573 cumulative IPC: 1.68596 (Simulation time: 0 hr 3 min 56 sec) 
Heartbeat CPU 0 instructions: 7000000 cycles: 4151738 heartbeat IPC: 1.6865 cumulative IPC: 1.68604 (Simulation time: 0 hr 4 min 33 sec) 
Heartbeat CPU 0 instructions: 8000000 cycles: 4906754 heartbeat IPC: 1.32448 cumulative IPC: 1.63041 (Simulation time: 0 hr 5 min 16 sec) 
Heartbeat CPU 0 instructions: 9000002 cycles: 5499951 heartbeat IPC: 1.68578 cumulative IPC: 1.63638 (Simulation time: 0 hr 5 min 55 sec) 
Heartbeat CPU 0 instructions: 10000002 cycles: 6092875 heartbeat IPC: 1.68656 cumulative IPC: 1.64126 (Simulation time: 0 hr 6 min 32 sec) 
Heartbeat CPU 0 instructions: 11000001 cycles: 6686005 heartbeat IPC: 1.68597 cumulative IPC: 1.64523 (Simulation time: 0 hr 7 min 10 sec) 
Heartbeat CPU 0 instructions: 12000000 cycles: 7279162 heartbeat IPC: 1.68589 cumulative IPC: 1.64854 (Simulation time: 0 hr 7 min 46 sec) 
Heartbeat CPU 0 instructions: 13000001 cycles: 7872065 heartbeat IPC: 1.68662 cumulative IPC: 1.65141 (Simulation time: 0 hr 8 min 24 sec) 
Heartbeat CPU 0 instructions: 14000003 cycles: 8465332 heartbeat IPC: 1.68559 cumulative IPC: 1.6538 (Simulation time: 0 hr 8 min 59 sec) 
Heartbeat CPU 0 instructions: 15000001 cycles: 9058422 heartbeat IPC: 1.68608 cumulative IPC: 1.65592 (Simulation time: 0 hr 9 min 37 sec) 
Heartbeat CPU 0 instructions: 16000000 cycles: 9651690 heartbeat IPC: 1.68558 cumulative IPC: 1.65774 (Simulation time: 0 hr 10 min 16 sec) 
Heartbeat CPU 0 instructions: 17000002 cycles: 10244677 heartbeat IPC: 1.68638 cumulative IPC: 1.6594 (Simulation time: 0 hr 10 min 52 sec) 
Heartbeat CPU 0 instructions: 18000000 cycles: 10837658 heartbeat IPC: 1.68639 cumulative IPC: 1.66088 (Simulation time: 0 hr 11 min 30 sec) 
Heartbeat CPU 0 instructions: 19000002 cycles: 11430670 heartbeat IPC: 1.68631 cumulative IPC: 1.66219 (Simulation time: 0 hr 12 min 8 sec) 
Heartbeat CPU 0 instructions: 20000000 cycles: 12024035 heartbeat IPC: 1.6853 cumulative IPC: 1.66334 (Simulation time: 0 hr 12 min 44 sec) 
Heartbeat CPU 0 instructions: 21000002 cycles: 12765395 heartbeat IPC: 1.34888 cumulative IPC: 1.64507 (Simulation time: 0 hr 13 min 25 sec) 
Heartbeat CPU 0 instructions: 22000003 cycles: 13370378 heartbeat IPC: 1.65294 cumulative IPC: 1.64543 (Simulation time: 0 hr 14 min 1 sec) 
Heartbeat CPU 0 instructions: 23000000 cycles: 13963075 heartbeat IPC: 1.6872 cumulative IPC: 1.6472 (Simulation time: 0 hr 14 min 36 sec) 
Heartbeat CPU 0 instructions: 24000000 cycles: 14556763 heartbeat IPC: 1.68439 cumulative IPC: 1.64872 (Simulation time: 0 hr 15 min 12 sec) 
Heartbeat CPU 0 instructions: 25000002 cycles: 15149915 heartbeat IPC: 1.68591 cumulative IPC: 1.65017 (Simulation time: 0 hr 15 min 50 sec) 
Heartbeat CPU 0 instructions: 26000003 cycles: 15742484 heartbeat IPC: 1.68757 cumulative IPC: 1.65158 (Simulation time: 0 hr 16 min 29 sec) 
Heartbeat CPU 0 instructions: 27000001 cycles: 16335574 heartbeat IPC: 1.68608 cumulative IPC: 1.65283 (Simulation time: 0 hr 17 min 6 sec) 
Heartbeat CPU 0 instructions: 28000000 cycles: 16928661 heartbeat IPC: 1.68609 cumulative IPC: 1.654 (Simulation time: 0 hr 17 min 43 sec) 
Heartbeat CPU 0 instructions: 29000002 cycles: 17521819 heartbeat IPC: 1.68589 cumulative IPC: 1.65508 (Simulation time: 0 hr 18 min 20 sec) 
Heartbeat CPU 0 instructions: 30000002 cycles: 18114932 heartbeat IPC: 1.68602 cumulative IPC: 1.65609 (Simulation time: 0 hr 18 min 57 sec) 
Heartbeat CPU 0 instructions: 31000002 cycles: 18708199 heartbeat IPC: 1.68558 cumulative IPC: 1.65703 (Simulation time: 0 hr 19 min 39 sec) 
Heartbeat CPU 0 instructions: 32000000 cycles: 19301575 heartbeat IPC: 1.68527 cumulative IPC: 1.6579 (Simulation time: 0 hr 20 min 22 sec) 
Heartbeat CPU 0 instructions: 33000001 cycles: 19894296 heartbeat IPC: 1.68714 cumulative IPC: 1.65877 (Simulation time: 0 hr 21 min 1 sec) 
Heartbeat CPU 0 instructions: 34000002 cycles: 20606304 heartbeat IPC: 1.40448 cumulative IPC: 1.64998 (Simulation time: 0 hr 21 min 41 sec) 
Heartbeat CPU 0 instructions: 35000001 cycles: 21242259 heartbeat IPC: 1.57244 cumulative IPC: 1.64766 (Simulation time: 0 hr 22 min 26 sec) 
Heartbeat CPU 0 instructions: 36000000 cycles: 21835333 heartbeat IPC: 1.68613 cumulative IPC: 1.6487 (Simulation time: 0 hr 23 min 5 sec) 
Heartbeat CPU 0 instructions: 37000000 cycles: 22428136 heartbeat IPC: 1.6869 cumulative IPC: 1.64971 (Simulation time: 0 hr 23 min 45 sec) 
Heartbeat CPU 0 instructions: 38000003 cycles: 23021085 heartbeat IPC: 1.68649 cumulative IPC: 1.65066 (Simulation time: 0 hr 24 min 25 sec) 
Heartbeat CPU 0 instructions: 39000002 cycles: 23614391 heartbeat IPC: 1.68547 cumulative IPC: 1.65154 (Simulation time: 0 hr 25 min 4 sec) 
Heartbeat CPU 0 instructions: 40000000 cycles: 24207284 heartbeat IPC: 1.68664 cumulative IPC: 1.6524 (Simulation time: 0 hr 25 min 46 sec) 
Heartbeat CPU 0 instructions: 41000002 cycles: 24800184 heartbeat IPC: 1.68663 cumulative IPC: 1.65321 (Simulation time: 0 hr 26 min 27 sec) 
Heartbeat CPU 0 instructions: 42000000 cycles: 25393112 heartbeat IPC: 1.68654 cumulative IPC: 1.65399 (Simulation time: 0 hr 27 min 5 sec) 
Heartbeat CPU 0 instructions: 43000000 cycles: 25986113 heartbeat IPC: 1.68634 cumulative IPC: 1.65473 (Simulation time: 0 hr 27 min 42 sec) 
Heartbeat CPU 0 instructions: 44000000 cycles: 26578957 heartbeat IPC: 1.68678 cumulative IPC: 1.65544 (Simulation time: 0 hr 28 min 21 sec) 
Heartbeat CPU 0 instructions: 45000003 cycles: 27171937 heartbeat IPC: 1.6864 cumulative IPC: 1.65612 (Simulation time: 0 hr 29 min 1 sec) 
Heartbeat CPU 0 instructions: 46000001 cycles: 27765063 heartbeat IPC: 1.68598 cumulative IPC: 1.65676 (Simulation time: 0 hr 29 min 37 sec) 
Heartbeat CPU 0 instructions: 47000001 cycles: 28445146 heartbeat IPC: 1.47041 cumulative IPC: 1.6523 (Simulation time: 0 hr 30 min 19 sec) 
Heartbeat CPU 0 instructions: 48000000 cycles: 29112092 heartbeat IPC: 1.49937 cumulative IPC: 1.6488 (Simulation time: 0 hr 30 min 58 sec) 
Heartbeat CPU 0 instructions: 49000001 cycles: 29705043 heartbeat IPC: 1.68648 cumulative IPC: 1.64955 (Simulation time: 0 hr 31 min 36 sec) 
Heartbeat CPU 0 instructions: 50000003 cycles: 30297970 heartbeat IPC: 1.68655 cumulative IPC: 1.65028 (Simulation time: 0 hr 32 min 13 sec) 

Warmup complete CPU 0 instructions: 50000003 cycles: 30297970 (Simulation time: 0 hr 32 min 13 sec) 

Heartbeat CPU 0 instructions: 51000000 cycles: 31985510 heartbeat IPC: 0.592577 cumulative IPC: 0.592577 (Simulation time: 0 hr 32 min 53 sec) 
Heartbeat CPU 0 instructions: 52000000 cycles: 33665720 heartbeat IPC: 0.595164 cumulative IPC: 0.593867 (Simulation time: 0 hr 33 min 35 sec) 
Heartbeat CPU 0 instructions: 53000003 cycles: 35404324 heartbeat IPC: 0.575176 cumulative IPC: 0.587503 (Simulation time: 0 hr 34 min 19 sec) 
Heartbeat CPU 0 instructions: 54000001 cycles: 37144274 heartbeat IPC: 0.574728 cumulative IPC: 0.584257 (Simulation time: 0 hr 35 min 0 sec) 
Heartbeat CPU 0 instructions: 55000000 cycles: 38880709 heartbeat IPC: 0.575892 cumulative IPC: 0.582564 (Simulation time: 0 hr 35 min 40 sec) 
Heartbeat CPU 0 instructions: 56000000 cycles: 40539291 heartbeat IPC: 0.602925 cumulative IPC: 0.585862 (Simulation time: 0 hr 36 min 18 sec) 
Heartbeat CPU 0 instructions: 57000000 cycles: 42251405 heartbeat IPC: 0.584073 cumulative IPC: 0.585606 (Simulation time: 0 hr 37 min 0 sec) 
Heartbeat CPU 0 instructions: 58000002 cycles: 43991860 heartbeat IPC: 0.574564 cumulative IPC: 0.584202 (Simulation time: 0 hr 37 min 41 sec) 
Heartbeat CPU 0 instructions: 59000001 cycles: 45734040 heartbeat IPC: 0.573993 cumulative IPC: 0.58305 (Simulation time: 0 hr 38 min 19 sec) 
Heartbeat CPU 0 instructions: 60000000 cycles: 49094217 heartbeat IPC: 0.297603 cumulative IPC: 0.532021 (Simulation time: 0 hr 39 min 3 sec) 
Heartbeat CPU 0 instructions: 61000001 cycles: 54052546 heartbeat IPC: 0.201681 cumulative IPC: 0.463069 (Simulation time: 0 hr 39 min 46 sec) 
Heartbeat CPU 0 instructions: 62000000 cycles: 55788745 heartbeat IPC: 0.57597 cumulative IPC: 0.470758 (Simulation time: 0 hr 40 min 25 sec) 
Heartbeat CPU 0 instructions: 63000000 cycles: 57529623 heartbeat IPC: 0.574423 cumulative IPC: 0.477386 (Simulation time: 0 hr 41 min 3 sec) 
Heartbeat CPU 0 instructions: 64000000 cycles: 59264377 heartbeat IPC: 0.576451 cumulative IPC: 0.483318 (Simulation time: 0 hr 41 min 43 sec) 
Heartbeat CPU 0 instructions: 65000002 cycles: 60926526 heartbeat IPC: 0.601632 cumulative IPC: 0.489739 (Simulation time: 0 hr 42 min 23 sec) 
Heartbeat CPU 0 instructions: 66000003 cycles: 62633400 heartbeat IPC: 0.585867 cumulative IPC: 0.494813 (Simulation time: 0 hr 43 min 4 sec) 
Heartbeat CPU 0 instructions: 67000001 cycles: 64372475 heartbeat IPC: 0.575017 cumulative IPC: 0.498907 (Simulation time: 0 hr 43 min 44 sec) 
Heartbeat CPU 0 instructions: 68000000 cycles: 66113814 heartbeat IPC: 0.57427 cumulative IPC: 0.502571 (Simulation time: 0 hr 44 min 25 sec) 
Heartbeat CPU 0 instructions: 69000003 cycles: 67831970 heartbeat IPC: 0.582021 cumulative IPC: 0.506208 (Simulation time: 0 hr 45 min 7 sec) 
Heartbeat CPU 0 instructions: 70000000 cycles: 69486987 heartbeat IPC: 0.604222 cumulative IPC: 0.510347 (Simulation time: 0 hr 45 min 50 sec) 
Heartbeat CPU 0 instructions: 71000002 cycles: 71217780 heartbeat IPC: 0.577771 cumulative IPC: 0.513199 (Simulation time: 0 hr 46 min 29 sec) 
Heartbeat CPU 0 instructions: 72000000 cycles: 72959770 heartbeat IPC: 0.574055 cumulative IPC: 0.515684 (Simulation time: 0 hr 47 min 9 sec) 
Heartbeat CPU 0 instructions: 73000001 cycles: 75428561 heartbeat IPC: 0.405057 cumulative IPC: 0.509632 (Simulation time: 0 hr 47 min 49 sec) 
Heartbeat CPU 0 instructions: 74000002 cycles: 81337193 heartbeat IPC: 0.169244 cumulative IPC: 0.470227 (Simulation time: 0 hr 48 min 36 sec) 
Heartbeat CPU 0 instructions: 75000002 cycles: 83037465 heartbeat IPC: 0.588141 cumulative IPC: 0.474028 (Simulation time: 0 hr 49 min 24 sec) 
Heartbeat CPU 0 instructions: 76000000 cycles: 84777805 heartbeat IPC: 0.574599 cumulative IPC: 0.477241 (Simulation time: 0 hr 50 min 5 sec) 
Heartbeat CPU 0 instructions: 77000001 cycles: 86518517 heartbeat IPC: 0.574478 cumulative IPC: 0.480251 (Simulation time: 0 hr 50 min 47 sec) 
Heartbeat CPU 0 instructions: 78000000 cycles: 88242103 heartbeat IPC: 0.580185 cumulative IPC: 0.483224 (Simulation time: 0 hr 51 min 27 sec) 
Heartbeat CPU 0 instructions: 79000003 cycles: 89890770 heartbeat IPC: 0.606552 cumulative IPC: 0.486636 (Simulation time: 0 hr 52 min 8 sec) 
Heartbeat CPU 0 instructions: 80000000 cycles: 91623247 heartbeat IPC: 0.577206 cumulative IPC: 0.489195 (Simulation time: 0 hr 52 min 48 sec) 
Heartbeat CPU 0 instructions: 81000002 cycles: 93365118 heartbeat IPC: 0.574097 cumulative IPC: 0.49154 (Simulation time: 0 hr 53 min 28 sec) 
Heartbeat CPU 0 instructions: 82000000 cycles: 95105601 heartbeat IPC: 0.574552 cumulative IPC: 0.493769 (Simulation time: 0 hr 54 min 8 sec) 
Heartbeat CPU 0 instructions: 83000000 cycles: 96795405 heartbeat IPC: 0.591785 cumulative IPC: 0.49626 (Simulation time: 0 hr 54 min 50 sec) 
Heartbeat CPU 0 instructions: 84000000 cycles: 98473570 heartbeat IPC: 0.595889 cumulative IPC: 0.498712 (Simulation time: 0 hr 55 min 31 sec) 
Heartbeat CPU 0 instructions: 85000003 cycles: 100238894 heartbeat IPC: 0.56647 cumulative IPC: 0.500422 (Simulation time: 0 hr 56 min 10 sec) 
Heartbeat CPU 0 instructions: 86000000 cycles: 101982999 heartbeat IPC: 0.573358 cumulative IPC: 0.502197 (Simulation time: 0 hr 56 min 51 sec) 
Heartbeat CPU 0 instructions: 87000001 cycles: 108719592 heartbeat IPC: 0.148443 cumulative IPC: 0.471809 (Simulation time: 0 hr 57 min 40 sec) 
Heartbeat CPU 0 instructions: 88000000 cycles: 110366715 heartbeat IPC: 0.607119 cumulative IPC: 0.474592 (Simulation time: 0 hr 58 min 18 sec) 
Heartbeat CPU 0 instructions: 89000002 cycles: 112096121 heartbeat IPC: 0.578234 cumulative IPC: 0.476783 (Simulation time: 0 hr 59 min 0 sec) 
Heartbeat CPU 0 instructions: 90000001 cycles: 113862898 heartbeat IPC: 0.566002 cumulative IPC: 0.47867 (Simulation time: 0 hr 59 min 38 sec) 
Heartbeat CPU 0 instructions: 91000002 cycles: 115602583 heartbeat IPC: 0.574817 cumulative IPC: 0.480631 (Simulation time: 1 hr 0 min 17 sec) 
Heartbeat CPU 0 instructions: 92000000 cycles: 117299783 heartbeat IPC: 0.589205 cumulative IPC: 0.482749 (Simulation time: 1 hr 1 min 0 sec) 
Heartbeat CPU 0 instructions: 93000002 cycles: 118971248 heartbeat IPC: 0.598279 cumulative IPC: 0.484926 (Simulation time: 1 hr 1 min 42 sec) 
Heartbeat CPU 0 instructions: 94000002 cycles: 120708223 heartbeat IPC: 0.575714 cumulative IPC: 0.48667 (Simulation time: 1 hr 2 min 21 sec) 
Heartbeat CPU 0 instructions: 95000003 cycles: 122450027 heartbeat IPC: 0.574118 cumulative IPC: 0.488323 (Simulation time: 1 hr 3 min 3 sec) 
Heartbeat CPU 0 instructions: 96000000 cycles: 124187750 heartbeat IPC: 0.575464 cumulative IPC: 0.489936 (Simulation time: 1 hr 3 min 45 sec) 
Heartbeat CPU 0 instructions: 97000003 cycles: 125851419 heartbeat IPC: 0.601083 cumulative IPC: 0.491871 (Simulation time: 1 hr 4 min 25 sec) 
Heartbeat CPU 0 instructions: 98000003 cycles: 127555544 heartbeat IPC: 0.586811 cumulative IPC: 0.493535 (Simulation time: 1 hr 5 min 9 sec) 
Heartbeat CPU 0 instructions: 99000000 cycles: 129297130 heartbeat IPC: 0.574188 cumulative IPC: 0.494954 (Simulation time: 1 hr 5 min 47 sec) 
Heartbeat CPU 0 instructions: 100000000 cycles: 136041959 heartbeat IPC: 0.148262 cumulative IPC: 0.47284 (Simulation time: 1 hr 6 min 30 sec) 
Heartbeat CPU 0 instructions: 101000000 cycles: 137741106 heartbeat IPC: 0.588531 cumulative IPC: 0.47467 (Simulation time: 1 hr 7 min 8 sec) 
Heartbeat CPU 0 instructions: 102000003 cycles: 139409798 heartbeat IPC: 0.599274 cumulative IPC: 0.476575 (Simulation time: 1 hr 7 min 43 sec) 
Heartbeat CPU 0 instructions: 103000000 cycles: 141144561 heartbeat IPC: 0.576446 cumulative IPC: 0.478138 (Simulation time: 1 hr 8 min 19 sec) 
Heartbeat CPU 0 instructions: 104000000 cycles: 142885004 heartbeat IPC: 0.574566 cumulative IPC: 0.479629 (Simulation time: 1 hr 8 min 56 sec) 
Heartbeat CPU 0 instructions: 105000001 cycles: 144621769 heartbeat IPC: 0.575784 cumulative IPC: 0.48109 (Simulation time: 1 hr 9 min 35 sec) 
Heartbeat CPU 0 instructions: 106000000 cycles: 146290883 heartbeat IPC: 0.59912 cumulative IPC: 0.482788 (Simulation time: 1 hr 10 min 13 sec) 
Heartbeat CPU 0 instructions: 107000001 cycles: 147988356 heartbeat IPC: 0.589112 cumulative IPC: 0.484322 (Simulation time: 1 hr 10 min 51 sec) 
Heartbeat CPU 0 instructions: 108000000 cycles: 149729325 heartbeat IPC: 0.574392 cumulative IPC: 0.485635 (Simulation time: 1 hr 11 min 29 sec) 
Heartbeat CPU 0 instructions: 109000002 cycles: 151470503 heartbeat IPC: 0.574325 cumulative IPC: 0.486909 (Simulation time: 1 hr 12 min 2 sec) 
Heartbeat CPU 0 instructions: 110000001 cycles: 153196773 heartbeat IPC: 0.579283 cumulative IPC: 0.488207 (Simulation time: 1 hr 12 min 37 sec) 
Heartbeat CPU 0 instructions: 111000003 cycles: 154846504 heartbeat IPC: 0.606161 cumulative IPC: 0.489769 (Simulation time: 1 hr 13 min 13 sec) 
Heartbeat CPU 0 instructions: 112000000 cycles: 156575419 heartbeat IPC: 0.578396 cumulative IPC: 0.490982 (Simulation time: 1 hr 13 min 44 sec) 
Heartbeat CPU 0 instructions: 113000001 cycles: 163265571 heartbeat IPC: 0.149474 cumulative IPC: 0.4738 (Simulation time: 1 hr 14 min 19 sec) 
Heartbeat CPU 0 instructions: 114000003 cycles: 165003273 heartbeat IPC: 0.575474 cumulative IPC: 0.475111 (Simulation time: 1 hr 14 min 47 sec) 
Heartbeat CPU 0 instructions: 115000003 cycles: 166677740 heartbeat IPC: 0.597205 cumulative IPC: 0.47661 (Simulation time: 1 hr 15 min 14 sec) 
Heartbeat CPU 0 instructions: 116000000 cycles: 168372227 heartbeat IPC: 0.590147 cumulative IPC: 0.478004 (Simulation time: 1 hr 15 min 41 sec) 
Heartbeat CPU 0 instructions: 117000002 cycles: 170112135 heartbeat IPC: 0.574744 cumulative IPC: 0.479208 (Simulation time: 1 hr 16 min 8 sec) 
Heartbeat CPU 0 instructions: 118000001 cycles: 171853265 heartbeat IPC: 0.574339 cumulative IPC: 0.480378 (Simulation time: 1 hr 16 min 33 sec) 
Heartbeat CPU 0 instructions: 119000000 cycles: 173581468 heartbeat IPC: 0.578635 cumulative IPC: 0.481563 (Simulation time: 1 hr 16 min 57 sec) 
Heartbeat CPU 0 instructions: 120000000 cycles: 175230134 heartbeat IPC: 0.606551 cumulative IPC: 0.482985 (Simulation time: 1 hr 17 min 22 sec) 
Heartbeat CPU 0 instructions: 121000003 cycles: 176957507 heartbeat IPC: 0.578915 cumulative IPC: 0.484114 (Simulation time: 1 hr 17 min 46 sec) 
Heartbeat CPU 0 instructions: 122000003 cycles: 178699289 heartbeat IPC: 0.574125 cumulative IPC: 0.485171 (Simulation time: 1 hr 18 min 10 sec) 
Heartbeat CPU 0 instructions: 123000001 cycles: 180439784 heartbeat IPC: 0.574548 cumulative IPC: 0.486207 (Simulation time: 1 hr 18 min 34 sec) 
Heartbeat CPU 0 instructions: 124000000 cycles: 182140243 heartbeat IPC: 0.588076 cumulative IPC: 0.487348 (Simulation time: 1 hr 18 min 57 sec) 
Heartbeat CPU 0 instructions: 125000000 cycles: 183811145 heartbeat IPC: 0.598479 cumulative IPC: 0.488557 (Simulation time: 1 hr 19 min 20 sec) 
Heartbeat CPU 0 instructions: 126000002 cycles: 190250913 heartbeat IPC: 0.155285 cumulative IPC: 0.47514 (Simulation time: 1 hr 19 min 46 sec) 
Heartbeat CPU 0 instructions: 127000002 cycles: 192242609 heartbeat IPC: 0.502085 cumulative IPC: 0.475471 (Simulation time: 1 hr 20 min 8 sec) 
Heartbeat CPU 0 instructions: 128000000 cycles: 193972038 heartbeat IPC: 0.578224 cumulative IPC: 0.476557 (Simulation time: 1 hr 20 min 29 sec) 
Heartbeat CPU 0 instructions: 129000001 cycles: 195623455 heartbeat IPC: 0.605541 cumulative IPC: 0.477845 (Simulation time: 1 hr 20 min 50 sec) 
Heartbeat CPU 0 instructions: 130000001 cycles: 197346477 heartbeat IPC: 0.580376 cumulative IPC: 0.478903 (Simulation time: 1 hr 21 min 11 sec) 
Heartbeat CPU 0 instructions: 131000002 cycles: 199085895 heartbeat IPC: 0.574906 cumulative IPC: 0.479892 (Simulation time: 1 hr 21 min 32 sec) 
Heartbeat CPU 0 instructions: 132000000 cycles: 200824091 heartbeat IPC: 0.575308 cumulative IPC: 0.480865 (Simulation time: 1 hr 21 min 53 sec) 
Heartbeat CPU 0 instructions: 133000002 cycles: 202524390 heartbeat IPC: 0.588133 cumulative IPC: 0.481924 (Simulation time: 1 hr 22 min 13 sec) 
Heartbeat CPU 0 instructions: 134000000 cycles: 204188045 heartbeat IPC: 0.601085 cumulative IPC: 0.483064 (Simulation time: 1 hr 22 min 33 sec) 
Heartbeat CPU 0 instructions: 135000003 cycles: 205922889 heartbeat IPC: 0.576422 cumulative IPC: 0.483986 (Simulation time: 1 hr 22 min 52 sec) 
Heartbeat CPU 0 instructions: 136000000 cycles: 207660850 heartbeat IPC: 0.575385 cumulative IPC: 0.484882 (Simulation time: 1 hr 23 min 11 sec) 
Heartbeat CPU 0 instructions: 137000003 cycles: 209398162 heartbeat IPC: 0.575604 cumulative IPC: 0.485762 (Simulation time: 1 hr 23 min 30 sec) 
Heartbeat CPU 0 instructions: 138000003 cycles: 211072109 heartbeat IPC: 0.59739 cumulative IPC: 0.486795 (Simulation time: 1 hr 23 min 48 sec) 
Heartbeat CPU 0 instructions: 139000000 cycles: 216471788 heartbeat IPC: 0.185196 cumulative IPC: 0.478048 (Simulation time: 1 hr 24 min 9 sec) 
Heartbeat CPU 0 instructions: 140000000 cycles: 219436790 heartbeat IPC: 0.337268 cumulative IPC: 0.475841 (Simulation time: 1 hr 24 min 25 sec) 
Heartbeat CPU 0 instructions: 141000001 cycles: 221175330 heartbeat IPC: 0.575196 cumulative IPC: 0.476746 (Simulation time: 1 hr 24 min 42 sec) 
Heartbeat CPU 0 instructions: 142000000 cycles: 222882267 heartbeat IPC: 0.585844 cumulative IPC: 0.477713 (Simulation time: 1 hr 24 min 58 sec) 
Heartbeat CPU 0 instructions: 143000003 cycles: 224543208 heartbeat IPC: 0.60207 cumulative IPC: 0.478776 (Simulation time: 1 hr 25 min 14 sec) 
Heartbeat CPU 0 instructions: 144000000 cycles: 226275196 heartbeat IPC: 0.577369 cumulative IPC: 0.479648 (Simulation time: 1 hr 25 min 31 sec) 
Heartbeat CPU 0 instructions: 145000002 cycles: 228029949 heartbeat IPC: 0.569882 cumulative IPC: 0.480448 (Simulation time: 1 hr 25 min 47 sec) 
Heartbeat CPU 0 instructions: 146000001 cycles: 229766489 heartbeat IPC: 0.575857 cumulative IPC: 0.481279 (Simulation time: 1 hr 26 min 3 sec) 
Heartbeat CPU 0 instructions: 147000000 cycles: 231440977 heartbeat IPC: 0.597197 cumulative IPC: 0.482244 (Simulation time: 1 hr 26 min 19 sec) 
Heartbeat CPU 0 instructions: 148000000 cycles: 233129594 heartbeat IPC: 0.592201 cumulative IPC: 0.483159 (Simulation time: 1 hr 26 min 33 sec) 
Heartbeat CPU 0 instructions: 149000000 cycles: 234884262 heartbeat IPC: 0.569908 cumulative IPC: 0.483903 (Simulation time: 1 hr 26 min 46 sec) 
Heartbeat CPU 0 instructions: 150000002 cycles: 236642961 heartbeat IPC: 0.568603 cumulative IPC: 0.484625 (Simulation time: 1 hr 26 min 58 sec) 
Finished CPU 0 instructions: 100000003 cycles: 206344992 cummulative IPC: 0.484625 (Simulation time: 1 hr 26 min 58 sec) 

ChampSim completed all CPUs

Region of Interest Statistics

CPU 0 cummulative IPC: 0.484625 instructions: 100000003 cycles: 206344992
LLC TOTAL     ACCESS:    1106782  HIT:     324442  MISS:     782340
LLC LOAD      ACCESS:      21599  HIT:       2807  MISS:      18792
LLC RFO       ACCESS:     245174  HIT:      87493  MISS:     157681
LLC PREFETCH  ACCESS:     594446  HIT:     120546  MISS:     473900
LLC WRITEBACK ACCESS:     245563  HIT:     113596  MISS:     131967
OPTgen accesses: 6528
OPTgen hits: 2339
OPTgen hit rate: 35.8303


