
*** ChampSim Multicore Out-of-Order Simulator ***

Warmup Instructions: 50000000
Simulation Instructions: 100000000
Configuration: 2
Number of CPUs: 1
LLC sets: 2048
LLC ways: 16
Off-chip DRAM Channels: 1 Width: 64-bit Data Rate: 1600 MT/s

CPU 0 runs /datasets/cs240c-wi22-a00-public/data/Assignment2-gz/calculix_3812B.trace.gz
CPU 0 L1D next line prefetcher
CPU 0 L2C IP-based stride prefetcher
Initialize Hawkeye state
Heartbeat CPU 0 instructions: 1000001 cycles: 478689 heartbeat IPC: 2.08904 cumulative IPC: 2.08904 (Simulation time: 0 hr 0 min 35 sec) 
Heartbeat CPU 0 instructions: 2000002 cycles: 956483 heartbeat IPC: 2.09295 cumulative IPC: 2.091 (Simulation time: 0 hr 1 min 2 sec) 
Heartbeat CPU 0 instructions: 3000002 cycles: 1434999 heartbeat IPC: 2.08979 cumulative IPC: 2.0906 (Simulation time: 0 hr 1 min 31 sec) 
Heartbeat CPU 0 instructions: 4000000 cycles: 1907482 heartbeat IPC: 2.11647 cumulative IPC: 2.09701 (Simulation time: 0 hr 2 min 0 sec) 
Heartbeat CPU 0 instructions: 5000000 cycles: 2356307 heartbeat IPC: 2.22804 cumulative IPC: 2.12196 (Simulation time: 0 hr 2 min 26 sec) 
Heartbeat CPU 0 instructions: 6000003 cycles: 2761688 heartbeat IPC: 2.46682 cumulative IPC: 2.17259 (Simulation time: 0 hr 2 min 46 sec) 
Heartbeat CPU 0 instructions: 7000002 cycles: 3154798 heartbeat IPC: 2.54381 cumulative IPC: 2.21884 (Simulation time: 0 hr 3 min 7 sec) 
Heartbeat CPU 0 instructions: 8000000 cycles: 3547939 heartbeat IPC: 2.54361 cumulative IPC: 2.25483 (Simulation time: 0 hr 3 min 26 sec) 
Heartbeat CPU 0 instructions: 9000000 cycles: 3940928 heartbeat IPC: 2.5446 cumulative IPC: 2.28373 (Simulation time: 0 hr 3 min 47 sec) 
Heartbeat CPU 0 instructions: 10000003 cycles: 4334017 heartbeat IPC: 2.54396 cumulative IPC: 2.30733 (Simulation time: 0 hr 4 min 8 sec) 
Heartbeat CPU 0 instructions: 11000000 cycles: 4726964 heartbeat IPC: 2.54486 cumulative IPC: 2.32708 (Simulation time: 0 hr 4 min 31 sec) 
Heartbeat CPU 0 instructions: 12000000 cycles: 5120150 heartbeat IPC: 2.54333 cumulative IPC: 2.34368 (Simulation time: 0 hr 4 min 51 sec) 
Heartbeat CPU 0 instructions: 13000003 cycles: 5513237 heartbeat IPC: 2.54397 cumulative IPC: 2.35796 (Simulation time: 0 hr 5 min 12 sec) 
Heartbeat CPU 0 instructions: 14000001 cycles: 5942143 heartbeat IPC: 2.33151 cumulative IPC: 2.35605 (Simulation time: 0 hr 5 min 38 sec) 
Heartbeat CPU 0 instructions: 15000000 cycles: 6335382 heartbeat IPC: 2.54298 cumulative IPC: 2.36766 (Simulation time: 0 hr 5 min 59 sec) 
Heartbeat CPU 0 instructions: 16000000 cycles: 6728574 heartbeat IPC: 2.54329 cumulative IPC: 2.37792 (Simulation time: 0 hr 6 min 20 sec) 
Heartbeat CPU 0 instructions: 17000002 cycles: 7121750 heartbeat IPC: 2.5434 cumulative IPC: 2.38705 (Simulation time: 0 hr 6 min 39 sec) 
Heartbeat CPU 0 instructions: 18000001 cycles: 7515077 heartbeat IPC: 2.54241 cumulative IPC: 2.39519 (Simulation time: 0 hr 7 min 1 sec) 
Heartbeat CPU 0 instructions: 19000001 cycles: 7908294 heartbeat IPC: 2.54313 cumulative IPC: 2.40254 (Simulation time: 0 hr 7 min 22 sec) 
Heartbeat CPU 0 instructions: 20000000 cycles: 8301268 heartbeat IPC: 2.5447 cumulative IPC: 2.40927 (Simulation time: 0 hr 7 min 43 sec) 
Heartbeat CPU 0 instructions: 21000000 cycles: 8694479 heartbeat IPC: 2.54316 cumulative IPC: 2.41533 (Simulation time: 0 hr 8 min 2 sec) 
Heartbeat CPU 0 instructions: 22000003 cycles: 9087728 heartbeat IPC: 2.54293 cumulative IPC: 2.42085 (Simulation time: 0 hr 8 min 24 sec) 
Heartbeat CPU 0 instructions: 23000002 cycles: 9480995 heartbeat IPC: 2.5428 cumulative IPC: 2.42591 (Simulation time: 0 hr 8 min 43 sec) 
Heartbeat CPU 0 instructions: 24000000 cycles: 9874253 heartbeat IPC: 2.54285 cumulative IPC: 2.43056 (Simulation time: 0 hr 9 min 2 sec) 
Heartbeat CPU 0 instructions: 25000003 cycles: 10262723 heartbeat IPC: 2.57421 cumulative IPC: 2.436 (Simulation time: 0 hr 9 min 23 sec) 
Heartbeat CPU 0 instructions: 26000003 cycles: 10649332 heartbeat IPC: 2.58659 cumulative IPC: 2.44147 (Simulation time: 0 hr 9 min 46 sec) 
Heartbeat CPU 0 instructions: 27000000 cycles: 11035434 heartbeat IPC: 2.58998 cumulative IPC: 2.44666 (Simulation time: 0 hr 10 min 8 sec) 
Heartbeat CPU 0 instructions: 28000000 cycles: 11422756 heartbeat IPC: 2.58183 cumulative IPC: 2.45125 (Simulation time: 0 hr 10 min 30 sec) 
Heartbeat CPU 0 instructions: 29000003 cycles: 11815304 heartbeat IPC: 2.54747 cumulative IPC: 2.45444 (Simulation time: 0 hr 10 min 50 sec) 
Heartbeat CPU 0 instructions: 30000001 cycles: 12202094 heartbeat IPC: 2.58538 cumulative IPC: 2.45859 (Simulation time: 0 hr 11 min 13 sec) 
Heartbeat CPU 0 instructions: 31000001 cycles: 12567509 heartbeat IPC: 2.73661 cumulative IPC: 2.46668 (Simulation time: 0 hr 11 min 39 sec) 
Heartbeat CPU 0 instructions: 32000000 cycles: 13033830 heartbeat IPC: 2.14444 cumulative IPC: 2.45515 (Simulation time: 0 hr 12 min 9 sec) 
Heartbeat CPU 0 instructions: 33000003 cycles: 13513411 heartbeat IPC: 2.08516 cumulative IPC: 2.44202 (Simulation time: 0 hr 12 min 39 sec) 
Heartbeat CPU 0 instructions: 34000000 cycles: 13993161 heartbeat IPC: 2.08441 cumulative IPC: 2.42976 (Simulation time: 0 hr 13 min 6 sec) 
Heartbeat CPU 0 instructions: 35000000 cycles: 14471852 heartbeat IPC: 2.08903 cumulative IPC: 2.41849 (Simulation time: 0 hr 13 min 36 sec) 
Heartbeat CPU 0 instructions: 36000000 cycles: 14948720 heartbeat IPC: 2.09702 cumulative IPC: 2.40823 (Simulation time: 0 hr 14 min 5 sec) 
Heartbeat CPU 0 instructions: 37000003 cycles: 15427171 heartbeat IPC: 2.09008 cumulative IPC: 2.39837 (Simulation time: 0 hr 14 min 33 sec) 
Heartbeat CPU 0 instructions: 38000003 cycles: 15900976 heartbeat IPC: 2.11057 cumulative IPC: 2.38979 (Simulation time: 0 hr 15 min 1 sec) 
Heartbeat CPU 0 instructions: 39000001 cycles: 16324329 heartbeat IPC: 2.36209 cumulative IPC: 2.38907 (Simulation time: 0 hr 15 min 26 sec) 
Heartbeat CPU 0 instructions: 40000000 cycles: 16759420 heartbeat IPC: 2.29837 cumulative IPC: 2.38672 (Simulation time: 0 hr 15 min 56 sec) 
Heartbeat CPU 0 instructions: 41000002 cycles: 17202703 heartbeat IPC: 2.2559 cumulative IPC: 2.38335 (Simulation time: 0 hr 16 min 22 sec) 
Heartbeat CPU 0 instructions: 42000003 cycles: 17578923 heartbeat IPC: 2.65802 cumulative IPC: 2.38923 (Simulation time: 0 hr 16 min 47 sec) 
Heartbeat CPU 0 instructions: 43000000 cycles: 17974087 heartbeat IPC: 2.53059 cumulative IPC: 2.39233 (Simulation time: 0 hr 17 min 13 sec) 
Heartbeat CPU 0 instructions: 44000000 cycles: 18451874 heartbeat IPC: 2.09298 cumulative IPC: 2.38458 (Simulation time: 0 hr 17 min 43 sec) 
Heartbeat CPU 0 instructions: 45000002 cycles: 18927213 heartbeat IPC: 2.10377 cumulative IPC: 2.37753 (Simulation time: 0 hr 18 min 13 sec) 
Heartbeat CPU 0 instructions: 46000002 cycles: 19405117 heartbeat IPC: 2.09247 cumulative IPC: 2.37051 (Simulation time: 0 hr 18 min 44 sec) 
Heartbeat CPU 0 instructions: 47000002 cycles: 19841086 heartbeat IPC: 2.29374 cumulative IPC: 2.36882 (Simulation time: 0 hr 19 min 7 sec) 
Heartbeat CPU 0 instructions: 48000000 cycles: 20235000 heartbeat IPC: 2.53862 cumulative IPC: 2.37213 (Simulation time: 0 hr 19 min 27 sec) 
Heartbeat CPU 0 instructions: 49000001 cycles: 20628493 heartbeat IPC: 2.54134 cumulative IPC: 2.37536 (Simulation time: 0 hr 19 min 49 sec) 
Heartbeat CPU 0 instructions: 50000000 cycles: 21023589 heartbeat IPC: 2.53103 cumulative IPC: 2.37828 (Simulation time: 0 hr 20 min 11 sec) 

Warmup complete CPU 0 instructions: 50000004 cycles: 21023590 (Simulation time: 0 hr 20 min 11 sec) 

Heartbeat CPU 0 instructions: 51000000 cycles: 21625273 heartbeat IPC: 1.662 cumulative IPC: 1.662 (Simulation time: 0 hr 20 min 36 sec) 
Heartbeat CPU 0 instructions: 52000000 cycles: 22210364 heartbeat IPC: 1.70914 cumulative IPC: 1.68524 (Simulation time: 0 hr 21 min 5 sec) 
Heartbeat CPU 0 instructions: 53000000 cycles: 22670545 heartbeat IPC: 2.17306 cumulative IPC: 1.82154 (Simulation time: 0 hr 21 min 30 sec) 
Heartbeat CPU 0 instructions: 54000003 cycles: 23116760 heartbeat IPC: 2.24108 cumulative IPC: 1.91098 (Simulation time: 0 hr 21 min 55 sec) 
Heartbeat CPU 0 instructions: 55000001 cycles: 23556292 heartbeat IPC: 2.27514 cumulative IPC: 1.97417 (Simulation time: 0 hr 22 min 17 sec) 
Heartbeat CPU 0 instructions: 56000000 cycles: 23996152 heartbeat IPC: 2.27345 cumulative IPC: 2.01846 (Simulation time: 0 hr 22 min 41 sec) 
Heartbeat CPU 0 instructions: 57000003 cycles: 24436793 heartbeat IPC: 2.26943 cumulative IPC: 2.05086 (Simulation time: 0 hr 23 min 5 sec) 
Heartbeat CPU 0 instructions: 58000002 cycles: 24898553 heartbeat IPC: 2.16563 cumulative IPC: 2.06454 (Simulation time: 0 hr 23 min 30 sec) 
Heartbeat CPU 0 instructions: 59000001 cycles: 25481133 heartbeat IPC: 1.7165 cumulative IPC: 2.01905 (Simulation time: 0 hr 23 min 55 sec) 
Heartbeat CPU 0 instructions: 60000000 cycles: 25917556 heartbeat IPC: 2.29135 cumulative IPC: 2.04333 (Simulation time: 0 hr 24 min 19 sec) 
Heartbeat CPU 0 instructions: 61000003 cycles: 26355239 heartbeat IPC: 2.28477 cumulative IPC: 2.06315 (Simulation time: 0 hr 24 min 42 sec) 
Heartbeat CPU 0 instructions: 62000002 cycles: 26792291 heartbeat IPC: 2.28805 cumulative IPC: 2.08019 (Simulation time: 0 hr 25 min 6 sec) 
Heartbeat CPU 0 instructions: 63000003 cycles: 27230410 heartbeat IPC: 2.28249 cumulative IPC: 2.09447 (Simulation time: 0 hr 25 min 29 sec) 
Heartbeat CPU 0 instructions: 64000000 cycles: 27667917 heartbeat IPC: 2.28567 cumulative IPC: 2.10706 (Simulation time: 0 hr 25 min 55 sec) 
Heartbeat CPU 0 instructions: 65000000 cycles: 28297433 heartbeat IPC: 1.58852 cumulative IPC: 2.06218 (Simulation time: 0 hr 26 min 22 sec) 
Heartbeat CPU 0 instructions: 66000002 cycles: 28858584 heartbeat IPC: 1.78206 cumulative IPC: 2.04212 (Simulation time: 0 hr 26 min 48 sec) 
Heartbeat CPU 0 instructions: 67000002 cycles: 29296390 heartbeat IPC: 2.28412 cumulative IPC: 2.05493 (Simulation time: 0 hr 27 min 12 sec) 
Heartbeat CPU 0 instructions: 68000000 cycles: 29732794 heartbeat IPC: 2.29145 cumulative IPC: 2.06678 (Simulation time: 0 hr 27 min 35 sec) 
Heartbeat CPU 0 instructions: 69000001 cycles: 30285207 heartbeat IPC: 1.81024 cumulative IPC: 2.05148 (Simulation time: 0 hr 27 min 57 sec) 
Heartbeat CPU 0 instructions: 70000000 cycles: 30723736 heartbeat IPC: 2.28035 cumulative IPC: 2.06182 (Simulation time: 0 hr 28 min 21 sec) 
Heartbeat CPU 0 instructions: 71000000 cycles: 31164224 heartbeat IPC: 2.27021 cumulative IPC: 2.07088 (Simulation time: 0 hr 28 min 46 sec) 
Heartbeat CPU 0 instructions: 72000000 cycles: 31645967 heartbeat IPC: 2.0758 cumulative IPC: 2.0711 (Simulation time: 0 hr 29 min 12 sec) 
Heartbeat CPU 0 instructions: 73000001 cycles: 32208385 heartbeat IPC: 1.77804 cumulative IPC: 2.05636 (Simulation time: 0 hr 29 min 39 sec) 
Heartbeat CPU 0 instructions: 74000002 cycles: 32851522 heartbeat IPC: 1.55488 cumulative IPC: 2.02909 (Simulation time: 0 hr 30 min 6 sec) 
Heartbeat CPU 0 instructions: 75000000 cycles: 33400100 heartbeat IPC: 1.82289 cumulative IPC: 2.01996 (Simulation time: 0 hr 30 min 32 sec) 
Heartbeat CPU 0 instructions: 76000000 cycles: 34146494 heartbeat IPC: 1.33977 cumulative IPC: 1.98127 (Simulation time: 0 hr 31 min 3 sec) 
Heartbeat CPU 0 instructions: 77000000 cycles: 34867457 heartbeat IPC: 1.38703 cumulative IPC: 1.95032 (Simulation time: 0 hr 31 min 35 sec) 
Heartbeat CPU 0 instructions: 78000003 cycles: 35586233 heartbeat IPC: 1.39126 cumulative IPC: 1.92273 (Simulation time: 0 hr 32 min 6 sec) 
Heartbeat CPU 0 instructions: 79000000 cycles: 36297134 heartbeat IPC: 1.40666 cumulative IPC: 1.89871 (Simulation time: 0 hr 32 min 36 sec) 
Heartbeat CPU 0 instructions: 80000000 cycles: 36982216 heartbeat IPC: 1.45968 cumulative IPC: 1.87986 (Simulation time: 0 hr 33 min 5 sec) 
Heartbeat CPU 0 instructions: 81000001 cycles: 37646548 heartbeat IPC: 1.50527 cumulative IPC: 1.86489 (Simulation time: 0 hr 33 min 35 sec) 
Heartbeat CPU 0 instructions: 82000002 cycles: 38289506 heartbeat IPC: 1.55531 cumulative IPC: 1.85336 (Simulation time: 0 hr 34 min 4 sec) 
Heartbeat CPU 0 instructions: 83000002 cycles: 39147282 heartbeat IPC: 1.16581 cumulative IPC: 1.82082 (Simulation time: 0 hr 34 min 33 sec) 
Heartbeat CPU 0 instructions: 84000000 cycles: 39738670 heartbeat IPC: 1.69093 cumulative IPC: 1.81672 (Simulation time: 0 hr 34 min 58 sec) 
Heartbeat CPU 0 instructions: 85000000 cycles: 40194029 heartbeat IPC: 2.19607 cumulative IPC: 1.82573 (Simulation time: 0 hr 35 min 21 sec) 
Heartbeat CPU 0 instructions: 86000001 cycles: 40646625 heartbeat IPC: 2.20948 cumulative IPC: 1.83458 (Simulation time: 0 hr 35 min 46 sec) 
Heartbeat CPU 0 instructions: 87000002 cycles: 41102266 heartbeat IPC: 2.19471 cumulative IPC: 1.84275 (Simulation time: 0 hr 36 min 11 sec) 
Heartbeat CPU 0 instructions: 88000000 cycles: 41553663 heartbeat IPC: 2.21534 cumulative IPC: 1.85094 (Simulation time: 0 hr 36 min 36 sec) 
Heartbeat CPU 0 instructions: 89000003 cycles: 42003208 heartbeat IPC: 2.22448 cumulative IPC: 1.85895 (Simulation time: 0 hr 37 min 1 sec) 
Heartbeat CPU 0 instructions: 90000003 cycles: 42453181 heartbeat IPC: 2.22236 cumulative IPC: 1.86658 (Simulation time: 0 hr 37 min 27 sec) 
Heartbeat CPU 0 instructions: 91000003 cycles: 42919716 heartbeat IPC: 2.14346 cumulative IPC: 1.87248 (Simulation time: 0 hr 37 min 52 sec) 
Heartbeat CPU 0 instructions: 92000000 cycles: 43418060 heartbeat IPC: 2.00664 cumulative IPC: 1.87546 (Simulation time: 0 hr 38 min 17 sec) 
Heartbeat CPU 0 instructions: 93000000 cycles: 43863953 heartbeat IPC: 2.24269 cumulative IPC: 1.88263 (Simulation time: 0 hr 38 min 41 sec) 
Heartbeat CPU 0 instructions: 94000003 cycles: 44309093 heartbeat IPC: 2.24649 cumulative IPC: 1.88959 (Simulation time: 0 hr 39 min 6 sec) 
Heartbeat CPU 0 instructions: 95000001 cycles: 44939916 heartbeat IPC: 1.58523 cumulative IPC: 1.88156 (Simulation time: 0 hr 39 min 34 sec) 
Heartbeat CPU 0 instructions: 96000000 cycles: 45544532 heartbeat IPC: 1.65394 cumulative IPC: 1.87595 (Simulation time: 0 hr 39 min 59 sec) 
Heartbeat CPU 0 instructions: 97000000 cycles: 46013670 heartbeat IPC: 2.13157 cumulative IPC: 1.88075 (Simulation time: 0 hr 40 min 25 sec) 
Heartbeat CPU 0 instructions: 98000003 cycles: 46453910 heartbeat IPC: 2.2715 cumulative IPC: 1.88751 (Simulation time: 0 hr 40 min 50 sec) 
Heartbeat CPU 0 instructions: 99000000 cycles: 46893556 heartbeat IPC: 2.27455 cumulative IPC: 1.89409 (Simulation time: 0 hr 41 min 14 sec) 
Heartbeat CPU 0 instructions: 100000000 cycles: 47333821 heartbeat IPC: 2.27136 cumulative IPC: 1.9004 (Simulation time: 0 hr 41 min 38 sec) 
Heartbeat CPU 0 instructions: 101000003 cycles: 47773405 heartbeat IPC: 2.27488 cumulative IPC: 1.90656 (Simulation time: 0 hr 42 min 2 sec) 
Heartbeat CPU 0 instructions: 102000002 cycles: 48322152 heartbeat IPC: 1.82233 cumulative IPC: 1.90486 (Simulation time: 0 hr 42 min 27 sec) 
Heartbeat CPU 0 instructions: 103000000 cycles: 48765458 heartbeat IPC: 2.25577 cumulative IPC: 1.91047 (Simulation time: 0 hr 42 min 54 sec) 
Heartbeat CPU 0 instructions: 104000000 cycles: 49203225 heartbeat IPC: 2.28432 cumulative IPC: 1.91628 (Simulation time: 0 hr 43 min 20 sec) 
Heartbeat CPU 0 instructions: 105000000 cycles: 49640651 heartbeat IPC: 2.2861 cumulative IPC: 1.92193 (Simulation time: 0 hr 43 min 46 sec) 
Heartbeat CPU 0 instructions: 106000003 cycles: 50077737 heartbeat IPC: 2.28789 cumulative IPC: 1.92744 (Simulation time: 0 hr 44 min 11 sec) 
Heartbeat CPU 0 instructions: 107000003 cycles: 50515698 heartbeat IPC: 2.28331 cumulative IPC: 1.93272 (Simulation time: 0 hr 44 min 36 sec) 
Heartbeat CPU 0 instructions: 108000000 cycles: 51028581 heartbeat IPC: 1.94976 cumulative IPC: 1.93301 (Simulation time: 0 hr 45 min 2 sec) 
Heartbeat CPU 0 instructions: 109000002 cycles: 51674061 heartbeat IPC: 1.54924 cumulative IPC: 1.92493 (Simulation time: 0 hr 45 min 28 sec) 
Heartbeat CPU 0 instructions: 110000003 cycles: 52108772 heartbeat IPC: 2.30038 cumulative IPC: 1.93018 (Simulation time: 0 hr 45 min 51 sec) 
Heartbeat CPU 0 instructions: 111000001 cycles: 52544525 heartbeat IPC: 2.29487 cumulative IPC: 1.93522 (Simulation time: 0 hr 46 min 16 sec) 
Heartbeat CPU 0 instructions: 112000000 cycles: 53030197 heartbeat IPC: 2.059 cumulative IPC: 1.9371 (Simulation time: 0 hr 46 min 40 sec) 
Heartbeat CPU 0 instructions: 113000003 cycles: 53503247 heartbeat IPC: 2.11395 cumulative IPC: 1.93968 (Simulation time: 0 hr 47 min 5 sec) 
Heartbeat CPU 0 instructions: 114000003 cycles: 53940142 heartbeat IPC: 2.28888 cumulative IPC: 1.94431 (Simulation time: 0 hr 47 min 34 sec) 
Heartbeat CPU 0 instructions: 115000002 cycles: 54375529 heartbeat IPC: 2.2968 cumulative IPC: 1.94891 (Simulation time: 0 hr 47 min 58 sec) 
Heartbeat CPU 0 instructions: 116000000 cycles: 54877894 heartbeat IPC: 1.99058 cumulative IPC: 1.94953 (Simulation time: 0 hr 48 min 26 sec) 
Heartbeat CPU 0 instructions: 117000000 cycles: 55434219 heartbeat IPC: 1.79751 cumulative IPC: 1.94707 (Simulation time: 0 hr 48 min 53 sec) 
Heartbeat CPU 0 instructions: 118000001 cycles: 56059020 heartbeat IPC: 1.60051 cumulative IPC: 1.94089 (Simulation time: 0 hr 49 min 19 sec) 
Heartbeat CPU 0 instructions: 119000003 cycles: 56803156 heartbeat IPC: 1.34384 cumulative IPC: 1.92848 (Simulation time: 0 hr 49 min 50 sec) 
Heartbeat CPU 0 instructions: 120000000 cycles: 57520139 heartbeat IPC: 1.39473 cumulative IPC: 1.91799 (Simulation time: 0 hr 50 min 20 sec) 
Heartbeat CPU 0 instructions: 121000001 cycles: 58235124 heartbeat IPC: 1.39863 cumulative IPC: 1.90801 (Simulation time: 0 hr 50 min 50 sec) 
Heartbeat CPU 0 instructions: 122000002 cycles: 58940943 heartbeat IPC: 1.4168 cumulative IPC: 1.89887 (Simulation time: 0 hr 51 min 21 sec) 
Heartbeat CPU 0 instructions: 123000002 cycles: 59623389 heartbeat IPC: 1.46532 cumulative IPC: 1.8912 (Simulation time: 0 hr 51 min 51 sec) 
Heartbeat CPU 0 instructions: 124000000 cycles: 60286892 heartbeat IPC: 1.50715 cumulative IPC: 1.88471 (Simulation time: 0 hr 52 min 22 sec) 
Heartbeat CPU 0 instructions: 125000002 cycles: 60935050 heartbeat IPC: 1.54284 cumulative IPC: 1.87916 (Simulation time: 0 hr 52 min 50 sec) 
Heartbeat CPU 0 instructions: 126000001 cycles: 61865740 heartbeat IPC: 1.07447 cumulative IPC: 1.86082 (Simulation time: 0 hr 53 min 17 sec) 
Heartbeat CPU 0 instructions: 127000003 cycles: 62444782 heartbeat IPC: 1.72699 cumulative IPC: 1.85895 (Simulation time: 0 hr 53 min 40 sec) 
Heartbeat CPU 0 instructions: 128000000 cycles: 62906112 heartbeat IPC: 2.16764 cumulative IPC: 1.86235 (Simulation time: 0 hr 54 min 3 sec) 
Heartbeat CPU 0 instructions: 129000002 cycles: 63358924 heartbeat IPC: 2.20843 cumulative IPC: 1.86605 (Simulation time: 0 hr 54 min 26 sec) 
Heartbeat CPU 0 instructions: 130000001 cycles: 63807551 heartbeat IPC: 2.22902 cumulative IPC: 1.86986 (Simulation time: 0 hr 54 min 50 sec) 
Heartbeat CPU 0 instructions: 131000000 cycles: 64256002 heartbeat IPC: 2.2299 cumulative IPC: 1.87359 (Simulation time: 0 hr 55 min 13 sec) 
Heartbeat CPU 0 instructions: 132000000 cycles: 64709595 heartbeat IPC: 2.20462 cumulative IPC: 1.87703 (Simulation time: 0 hr 55 min 38 sec) 
Heartbeat CPU 0 instructions: 133000000 cycles: 65165130 heartbeat IPC: 2.19522 cumulative IPC: 1.88031 (Simulation time: 0 hr 56 min 1 sec) 
Heartbeat CPU 0 instructions: 134000000 cycles: 65697005 heartbeat IPC: 1.88014 cumulative IPC: 1.88031 (Simulation time: 0 hr 56 min 28 sec) 
Heartbeat CPU 0 instructions: 135000003 cycles: 66206102 heartbeat IPC: 1.96427 cumulative IPC: 1.88126 (Simulation time: 0 hr 56 min 52 sec) 
Heartbeat CPU 0 instructions: 136000000 cycles: 66659869 heartbeat IPC: 2.20377 cumulative IPC: 1.88447 (Simulation time: 0 hr 57 min 15 sec) 
Heartbeat CPU 0 instructions: 137000002 cycles: 67111563 heartbeat IPC: 2.21389 cumulative IPC: 1.88769 (Simulation time: 0 hr 57 min 37 sec) 
Heartbeat CPU 0 instructions: 138000002 cycles: 67564541 heartbeat IPC: 2.20761 cumulative IPC: 1.89081 (Simulation time: 0 hr 58 min 1 sec) 
Heartbeat CPU 0 instructions: 139000000 cycles: 68021052 heartbeat IPC: 2.19052 cumulative IPC: 1.89372 (Simulation time: 0 hr 58 min 26 sec) 
Heartbeat CPU 0 instructions: 140000000 cycles: 68472747 heartbeat IPC: 2.21388 cumulative IPC: 1.89677 (Simulation time: 0 hr 58 min 51 sec) 
Heartbeat CPU 0 instructions: 141000000 cycles: 68925691 heartbeat IPC: 2.20778 cumulative IPC: 1.89971 (Simulation time: 0 hr 59 min 15 sec) 
Heartbeat CPU 0 instructions: 142000003 cycles: 69439621 heartbeat IPC: 1.9458 cumulative IPC: 1.9002 (Simulation time: 0 hr 59 min 39 sec) 
Heartbeat CPU 0 instructions: 143000002 cycles: 69883285 heartbeat IPC: 2.25396 cumulative IPC: 1.90341 (Simulation time: 1 hr 0 min 4 sec) 
Heartbeat CPU 0 instructions: 144000000 cycles: 70334380 heartbeat IPC: 2.21682 cumulative IPC: 1.90628 (Simulation time: 1 hr 0 min 30 sec) 
Heartbeat CPU 0 instructions: 145000001 cycles: 70991588 heartbeat IPC: 1.52159 cumulative IPC: 1.90122 (Simulation time: 1 hr 0 min 58 sec) 
Heartbeat CPU 0 instructions: 146000003 cycles: 71604282 heartbeat IPC: 1.63214 cumulative IPC: 1.89796 (Simulation time: 1 hr 1 min 26 sec) 
Heartbeat CPU 0 instructions: 147000002 cycles: 72054991 heartbeat IPC: 2.21872 cumulative IPC: 1.90079 (Simulation time: 1 hr 1 min 50 sec) 
Heartbeat CPU 0 instructions: 148000000 cycles: 72492636 heartbeat IPC: 2.28495 cumulative IPC: 1.90406 (Simulation time: 1 hr 2 min 15 sec) 
Heartbeat CPU 0 instructions: 149000002 cycles: 72932183 heartbeat IPC: 2.27507 cumulative IPC: 1.9072 (Simulation time: 1 hr 2 min 43 sec) 
Heartbeat CPU 0 instructions: 150000003 cycles: 73371303 heartbeat IPC: 2.27728 cumulative IPC: 1.9103 (Simulation time: 1 hr 3 min 8 sec) 
Finished CPU 0 instructions: 100000003 cycles: 52347714 cummulative IPC: 1.9103 (Simulation time: 1 hr 3 min 8 sec) 

ChampSim completed all CPUs

Region of Interest Statistics

CPU 0 cummulative IPC: 1.9103 instructions: 100000003 cycles: 52347714
LLC TOTAL     ACCESS:    1256063  HIT:    1164054  MISS:      92009
LLC LOAD      ACCESS:     149562  HIT:     140208  MISS:       9354
LLC RFO       ACCESS:      37523  HIT:      12807  MISS:      24716
LLC PREFETCH  ACCESS:     776636  HIT:     725331  MISS:      51305
LLC WRITEBACK ACCESS:     292342  HIT:     285708  MISS:       6634
OPTgen accesses: 4734
OPTgen hits: 12854
OPTgen hit rate: 271.525


