
*** ChampSim Multicore Out-of-Order Simulator ***

Warmup Instructions: 50000000
Simulation Instructions: 100000000
Configuration: 2
Number of CPUs: 1
LLC sets: 2048
LLC ways: 16
Off-chip DRAM Channels: 1 Width: 64-bit Data Rate: 1600 MT/s

CPU 0 runs /datasets/cs240c-wi22-a00-public/data/Assignment2-gz/omnetpp_17B.trace.gz
CPU 0 L1D next line prefetcher
CPU 0 L2C IP-based stride prefetcher
Initialize Hawkeye state
Heartbeat CPU 0 instructions: 1000000 cycles: 559560 heartbeat IPC: 1.78712 cumulative IPC: 1.78712 (Simulation time: 0 hr 0 min 31 sec) 
Heartbeat CPU 0 instructions: 2000002 cycles: 1133716 heartbeat IPC: 1.74169 cumulative IPC: 1.76411 (Simulation time: 0 hr 1 min 4 sec) 
Heartbeat CPU 0 instructions: 3000001 cycles: 1769023 heartbeat IPC: 1.57404 cumulative IPC: 1.69585 (Simulation time: 0 hr 1 min 30 sec) 
Heartbeat CPU 0 instructions: 4000000 cycles: 2333917 heartbeat IPC: 1.77024 cumulative IPC: 1.71386 (Simulation time: 0 hr 2 min 2 sec) 
Heartbeat CPU 0 instructions: 5000002 cycles: 2892922 heartbeat IPC: 1.7889 cumulative IPC: 1.72836 (Simulation time: 0 hr 2 min 32 sec) 
Heartbeat CPU 0 instructions: 6000000 cycles: 3471607 heartbeat IPC: 1.72805 cumulative IPC: 1.72831 (Simulation time: 0 hr 3 min 0 sec) 
Heartbeat CPU 0 instructions: 7000000 cycles: 4036093 heartbeat IPC: 1.77152 cumulative IPC: 1.73435 (Simulation time: 0 hr 3 min 30 sec) 
Heartbeat CPU 0 instructions: 8000000 cycles: 4697827 heartbeat IPC: 1.51118 cumulative IPC: 1.70291 (Simulation time: 0 hr 3 min 59 sec) 
Heartbeat CPU 0 instructions: 9000000 cycles: 5359632 heartbeat IPC: 1.51102 cumulative IPC: 1.67922 (Simulation time: 0 hr 4 min 28 sec) 
Heartbeat CPU 0 instructions: 10000001 cycles: 6021201 heartbeat IPC: 1.51156 cumulative IPC: 1.6608 (Simulation time: 0 hr 4 min 59 sec) 
Heartbeat CPU 0 instructions: 11000001 cycles: 6682591 heartbeat IPC: 1.51197 cumulative IPC: 1.64607 (Simulation time: 0 hr 5 min 27 sec) 
Heartbeat CPU 0 instructions: 12000000 cycles: 7343367 heartbeat IPC: 1.51337 cumulative IPC: 1.63413 (Simulation time: 0 hr 5 min 55 sec) 
Heartbeat CPU 0 instructions: 13000001 cycles: 8002067 heartbeat IPC: 1.51814 cumulative IPC: 1.62458 (Simulation time: 0 hr 6 min 24 sec) 
Heartbeat CPU 0 instructions: 14000000 cycles: 8663356 heartbeat IPC: 1.5122 cumulative IPC: 1.616 (Simulation time: 0 hr 6 min 49 sec) 
Heartbeat CPU 0 instructions: 15000000 cycles: 9325071 heartbeat IPC: 1.51122 cumulative IPC: 1.60857 (Simulation time: 0 hr 7 min 15 sec) 
Heartbeat CPU 0 instructions: 16000000 cycles: 9986982 heartbeat IPC: 1.51078 cumulative IPC: 1.60209 (Simulation time: 0 hr 7 min 41 sec) 
Heartbeat CPU 0 instructions: 17000000 cycles: 10652708 heartbeat IPC: 1.50212 cumulative IPC: 1.59584 (Simulation time: 0 hr 8 min 8 sec) 
Heartbeat CPU 0 instructions: 18000001 cycles: 11319265 heartbeat IPC: 1.50025 cumulative IPC: 1.59021 (Simulation time: 0 hr 8 min 35 sec) 
Heartbeat CPU 0 instructions: 19000002 cycles: 11988072 heartbeat IPC: 1.4952 cumulative IPC: 1.58491 (Simulation time: 0 hr 9 min 2 sec) 
Heartbeat CPU 0 instructions: 20000000 cycles: 12559854 heartbeat IPC: 1.74891 cumulative IPC: 1.59238 (Simulation time: 0 hr 9 min 32 sec) 
Heartbeat CPU 0 instructions: 21000000 cycles: 13148913 heartbeat IPC: 1.69762 cumulative IPC: 1.59709 (Simulation time: 0 hr 9 min 59 sec) 
Heartbeat CPU 0 instructions: 22000001 cycles: 13760828 heartbeat IPC: 1.63422 cumulative IPC: 1.59874 (Simulation time: 0 hr 10 min 25 sec) 
Heartbeat CPU 0 instructions: 23000000 cycles: 14318715 heartbeat IPC: 1.79248 cumulative IPC: 1.60629 (Simulation time: 0 hr 10 min 54 sec) 
Heartbeat CPU 0 instructions: 24000000 cycles: 14878369 heartbeat IPC: 1.78682 cumulative IPC: 1.61308 (Simulation time: 0 hr 11 min 22 sec) 
Heartbeat CPU 0 instructions: 25000001 cycles: 15461910 heartbeat IPC: 1.71368 cumulative IPC: 1.61688 (Simulation time: 0 hr 11 min 52 sec) 
Heartbeat CPU 0 instructions: 26000001 cycles: 16078780 heartbeat IPC: 1.62109 cumulative IPC: 1.61704 (Simulation time: 0 hr 12 min 21 sec) 
Heartbeat CPU 0 instructions: 27000000 cycles: 16638411 heartbeat IPC: 1.78689 cumulative IPC: 1.62275 (Simulation time: 0 hr 12 min 52 sec) 
Heartbeat CPU 0 instructions: 28000000 cycles: 17196712 heartbeat IPC: 1.79115 cumulative IPC: 1.62822 (Simulation time: 0 hr 13 min 22 sec) 
Heartbeat CPU 0 instructions: 29000000 cycles: 17775405 heartbeat IPC: 1.72803 cumulative IPC: 1.63147 (Simulation time: 0 hr 13 min 48 sec) 
Heartbeat CPU 0 instructions: 30000000 cycles: 18397956 heartbeat IPC: 1.60629 cumulative IPC: 1.63062 (Simulation time: 0 hr 14 min 14 sec) 
Heartbeat CPU 0 instructions: 31000000 cycles: 18959387 heartbeat IPC: 1.78116 cumulative IPC: 1.63507 (Simulation time: 0 hr 14 min 43 sec) 
Heartbeat CPU 0 instructions: 32000000 cycles: 19516681 heartbeat IPC: 1.79438 cumulative IPC: 1.63962 (Simulation time: 0 hr 15 min 12 sec) 
Heartbeat CPU 0 instructions: 33000001 cycles: 20088526 heartbeat IPC: 1.74873 cumulative IPC: 1.64273 (Simulation time: 0 hr 15 min 40 sec) 
Heartbeat CPU 0 instructions: 34000001 cycles: 20724229 heartbeat IPC: 1.57306 cumulative IPC: 1.64059 (Simulation time: 0 hr 16 min 6 sec) 
Heartbeat CPU 0 instructions: 35000002 cycles: 21289458 heartbeat IPC: 1.7692 cumulative IPC: 1.64401 (Simulation time: 0 hr 16 min 35 sec) 
Heartbeat CPU 0 instructions: 36000000 cycles: 21849185 heartbeat IPC: 1.78658 cumulative IPC: 1.64766 (Simulation time: 0 hr 17 min 4 sec) 
Heartbeat CPU 0 instructions: 37000001 cycles: 22427357 heartbeat IPC: 1.72959 cumulative IPC: 1.64977 (Simulation time: 0 hr 17 min 32 sec) 
Heartbeat CPU 0 instructions: 38000002 cycles: 23056400 heartbeat IPC: 1.58972 cumulative IPC: 1.64813 (Simulation time: 0 hr 17 min 59 sec) 
Heartbeat CPU 0 instructions: 39000000 cycles: 23619105 heartbeat IPC: 1.77713 cumulative IPC: 1.65121 (Simulation time: 0 hr 18 min 30 sec) 
Heartbeat CPU 0 instructions: 40000000 cycles: 24179211 heartbeat IPC: 1.78538 cumulative IPC: 1.65431 (Simulation time: 0 hr 18 min 59 sec) 
Heartbeat CPU 0 instructions: 41000002 cycles: 24762295 heartbeat IPC: 1.71502 cumulative IPC: 1.65574 (Simulation time: 0 hr 19 min 32 sec) 
Heartbeat CPU 0 instructions: 42000000 cycles: 25389275 heartbeat IPC: 1.59494 cumulative IPC: 1.65424 (Simulation time: 0 hr 20 min 3 sec) 
Heartbeat CPU 0 instructions: 43000001 cycles: 25876638 heartbeat IPC: 2.05186 cumulative IPC: 1.66173 (Simulation time: 0 hr 20 min 37 sec) 
Heartbeat CPU 0 instructions: 44000000 cycles: 26537335 heartbeat IPC: 1.51355 cumulative IPC: 1.65804 (Simulation time: 0 hr 21 min 3 sec) 
Heartbeat CPU 0 instructions: 45000003 cycles: 27198978 heartbeat IPC: 1.51139 cumulative IPC: 1.65447 (Simulation time: 0 hr 21 min 29 sec) 
Heartbeat CPU 0 instructions: 46000000 cycles: 27861353 heartbeat IPC: 1.50971 cumulative IPC: 1.65103 (Simulation time: 0 hr 21 min 54 sec) 
Heartbeat CPU 0 instructions: 47000001 cycles: 28524367 heartbeat IPC: 1.50827 cumulative IPC: 1.64771 (Simulation time: 0 hr 22 min 21 sec) 
Heartbeat CPU 0 instructions: 48000000 cycles: 29187118 heartbeat IPC: 1.50886 cumulative IPC: 1.64456 (Simulation time: 0 hr 22 min 50 sec) 
Heartbeat CPU 0 instructions: 49000000 cycles: 29848616 heartbeat IPC: 1.51172 cumulative IPC: 1.64162 (Simulation time: 0 hr 23 min 16 sec) 
Heartbeat CPU 0 instructions: 50000000 cycles: 30510807 heartbeat IPC: 1.51014 cumulative IPC: 1.63876 (Simulation time: 0 hr 23 min 41 sec) 

Warmup complete CPU 0 instructions: 50000002 cycles: 30510808 (Simulation time: 0 hr 23 min 41 sec) 

Heartbeat CPU 0 instructions: 51000002 cycles: 31554160 heartbeat IPC: 0.95845 cumulative IPC: 0.958449 (Simulation time: 0 hr 24 min 7 sec) 
Heartbeat CPU 0 instructions: 52000000 cycles: 32598399 heartbeat IPC: 0.957633 cumulative IPC: 0.958041 (Simulation time: 0 hr 24 min 33 sec) 
Heartbeat CPU 0 instructions: 53000001 cycles: 33640891 heartbeat IPC: 0.959241 cumulative IPC: 0.958441 (Simulation time: 0 hr 25 min 2 sec) 
Heartbeat CPU 0 instructions: 54000002 cycles: 34709036 heartbeat IPC: 0.936203 cumulative IPC: 0.952783 (Simulation time: 0 hr 25 min 30 sec) 
Heartbeat CPU 0 instructions: 55000003 cycles: 35749256 heartbeat IPC: 0.961336 cumulative IPC: 0.954481 (Simulation time: 0 hr 25 min 59 sec) 
Heartbeat CPU 0 instructions: 56000000 cycles: 38047917 heartbeat IPC: 0.435035 cumulative IPC: 0.796061 (Simulation time: 0 hr 26 min 29 sec) 
Heartbeat CPU 0 instructions: 57000003 cycles: 40112509 heartbeat IPC: 0.484359 cumulative IPC: 0.729038 (Simulation time: 0 hr 26 min 58 sec) 
Heartbeat CPU 0 instructions: 58000000 cycles: 43469166 heartbeat IPC: 0.297915 cumulative IPC: 0.617362 (Simulation time: 0 hr 27 min 31 sec) 
Heartbeat CPU 0 instructions: 59000003 cycles: 46825140 heartbeat IPC: 0.297977 cumulative IPC: 0.551662 (Simulation time: 0 hr 28 min 10 sec) 
Heartbeat CPU 0 instructions: 60000000 cycles: 49294660 heartbeat IPC: 0.404936 cumulative IPC: 0.532372 (Simulation time: 0 hr 28 min 41 sec) 
Heartbeat CPU 0 instructions: 61000001 cycles: 51190994 heartbeat IPC: 0.527334 cumulative IPC: 0.53191 (Simulation time: 0 hr 29 min 11 sec) 
Heartbeat CPU 0 instructions: 62000001 cycles: 54535075 heartbeat IPC: 0.299036 cumulative IPC: 0.499495 (Simulation time: 0 hr 29 min 49 sec) 
Heartbeat CPU 0 instructions: 63000000 cycles: 57882873 heartbeat IPC: 0.298703 cumulative IPC: 0.474937 (Simulation time: 0 hr 30 min 25 sec) 
Heartbeat CPU 0 instructions: 64000000 cycles: 60514563 heartbeat IPC: 0.379984 cumulative IPC: 0.466608 (Simulation time: 0 hr 30 min 57 sec) 
Heartbeat CPU 0 instructions: 65000000 cycles: 62238798 heartbeat IPC: 0.579967 cumulative IPC: 0.472769 (Simulation time: 0 hr 31 min 26 sec) 
Heartbeat CPU 0 instructions: 66000000 cycles: 65570730 heartbeat IPC: 0.300126 cumulative IPC: 0.456361 (Simulation time: 0 hr 32 min 5 sec) 
Heartbeat CPU 0 instructions: 67000001 cycles: 68910472 heartbeat IPC: 0.299425 cumulative IPC: 0.442712 (Simulation time: 0 hr 32 min 42 sec) 
Heartbeat CPU 0 instructions: 68000000 cycles: 71730599 heartbeat IPC: 0.354594 cumulative IPC: 0.436683 (Simulation time: 0 hr 33 min 16 sec) 
Heartbeat CPU 0 instructions: 69000001 cycles: 73273617 heartbeat IPC: 0.648081 cumulative IPC: 0.444311 (Simulation time: 0 hr 33 min 45 sec) 
Heartbeat CPU 0 instructions: 70000001 cycles: 76604725 heartbeat IPC: 0.3002 cumulative IPC: 0.433897 (Simulation time: 0 hr 34 min 22 sec) 
Heartbeat CPU 0 instructions: 71000001 cycles: 79942152 heartbeat IPC: 0.299632 cumulative IPC: 0.424832 (Simulation time: 0 hr 34 min 59 sec) 
Heartbeat CPU 0 instructions: 72000000 cycles: 82786441 heartbeat IPC: 0.351581 cumulative IPC: 0.420846 (Simulation time: 0 hr 35 min 35 sec) 
Heartbeat CPU 0 instructions: 73000000 cycles: 84337481 heartbeat IPC: 0.644729 cumulative IPC: 0.427297 (Simulation time: 0 hr 36 min 2 sec) 
Heartbeat CPU 0 instructions: 74000003 cycles: 87697318 heartbeat IPC: 0.297634 cumulative IPC: 0.419679 (Simulation time: 0 hr 36 min 37 sec) 
Heartbeat CPU 0 instructions: 75000001 cycles: 91049204 heartbeat IPC: 0.298339 cumulative IPC: 0.412961 (Simulation time: 0 hr 37 min 11 sec) 
Heartbeat CPU 0 instructions: 76000000 cycles: 93772179 heartbeat IPC: 0.367245 cumulative IPC: 0.410993 (Simulation time: 0 hr 37 min 43 sec) 
Heartbeat CPU 0 instructions: 77000001 cycles: 95416688 heartbeat IPC: 0.608085 cumulative IPC: 0.415987 (Simulation time: 0 hr 38 min 12 sec) 
Heartbeat CPU 0 instructions: 78000000 cycles: 98755676 heartbeat IPC: 0.299492 cumulative IPC: 0.410287 (Simulation time: 0 hr 38 min 45 sec) 
Heartbeat CPU 0 instructions: 79000000 cycles: 102274151 heartbeat IPC: 0.284214 cumulative IPC: 0.404106 (Simulation time: 0 hr 39 min 18 sec) 
Heartbeat CPU 0 instructions: 80000000 cycles: 104174260 heartbeat IPC: 0.526286 cumulative IPC: 0.407258 (Simulation time: 0 hr 39 min 45 sec) 
Heartbeat CPU 0 instructions: 81000001 cycles: 106653654 heartbeat IPC: 0.403325 cumulative IPC: 0.407129 (Simulation time: 0 hr 40 min 13 sec) 
Heartbeat CPU 0 instructions: 82000000 cycles: 110014048 heartbeat IPC: 0.297584 cumulative IPC: 0.402499 (Simulation time: 0 hr 40 min 46 sec) 
Heartbeat CPU 0 instructions: 83000000 cycles: 113347155 heartbeat IPC: 0.30002 cumulative IPC: 0.398376 (Simulation time: 0 hr 41 min 21 sec) 
Heartbeat CPU 0 instructions: 84000000 cycles: 115199873 heartbeat IPC: 0.539748 cumulative IPC: 0.401469 (Simulation time: 0 hr 41 min 51 sec) 
Heartbeat CPU 0 instructions: 85000003 cycles: 117704713 heartbeat IPC: 0.399228 cumulative IPC: 0.401404 (Simulation time: 0 hr 42 min 22 sec) 
Heartbeat CPU 0 instructions: 86000001 cycles: 121054536 heartbeat IPC: 0.298523 cumulative IPC: 0.397598 (Simulation time: 0 hr 42 min 58 sec) 
Heartbeat CPU 0 instructions: 87000000 cycles: 124407139 heartbeat IPC: 0.298275 cumulative IPC: 0.394052 (Simulation time: 0 hr 43 min 38 sec) 
Heartbeat CPU 0 instructions: 88000000 cycles: 126153381 heartbeat IPC: 0.572658 cumulative IPC: 0.397313 (Simulation time: 0 hr 44 min 6 sec) 
Heartbeat CPU 0 instructions: 89000000 cycles: 130992780 heartbeat IPC: 0.206637 cumulative IPC: 0.388129 (Simulation time: 0 hr 44 min 45 sec) 
Heartbeat CPU 0 instructions: 90000002 cycles: 132036409 heartbeat IPC: 0.958197 cumulative IPC: 0.393989 (Simulation time: 0 hr 45 min 15 sec) 
Heartbeat CPU 0 instructions: 91000001 cycles: 133080963 heartbeat IPC: 0.957345 cumulative IPC: 0.399726 (Simulation time: 0 hr 45 min 43 sec) 
Heartbeat CPU 0 instructions: 92000000 cycles: 134124609 heartbeat IPC: 0.958178 cumulative IPC: 0.405351 (Simulation time: 0 hr 46 min 13 sec) 
Heartbeat CPU 0 instructions: 93000002 cycles: 135168949 heartbeat IPC: 0.957545 cumulative IPC: 0.410861 (Simulation time: 0 hr 46 min 40 sec) 
Heartbeat CPU 0 instructions: 94000001 cycles: 136212796 heartbeat IPC: 0.957994 cumulative IPC: 0.416265 (Simulation time: 0 hr 47 min 5 sec) 
Heartbeat CPU 0 instructions: 95000000 cycles: 137257184 heartbeat IPC: 0.957498 cumulative IPC: 0.42156 (Simulation time: 0 hr 47 min 32 sec) 
Heartbeat CPU 0 instructions: 96000000 cycles: 138302274 heartbeat IPC: 0.956855 cumulative IPC: 0.42675 (Simulation time: 0 hr 48 min 1 sec) 
Heartbeat CPU 0 instructions: 97000002 cycles: 139373276 heartbeat IPC: 0.933707 cumulative IPC: 0.431737 (Simulation time: 0 hr 48 min 28 sec) 
Heartbeat CPU 0 instructions: 98000000 cycles: 140418921 heartbeat IPC: 0.956346 cumulative IPC: 0.436728 (Simulation time: 0 hr 48 min 58 sec) 
Heartbeat CPU 0 instructions: 99000003 cycles: 141457479 heartbeat IPC: 0.962876 cumulative IPC: 0.441654 (Simulation time: 0 hr 49 min 28 sec) 
Heartbeat CPU 0 instructions: 100000000 cycles: 142494173 heartbeat IPC: 0.964602 cumulative IPC: 0.446495 (Simulation time: 0 hr 49 min 58 sec) 
Heartbeat CPU 0 instructions: 101000001 cycles: 143535558 heartbeat IPC: 0.960261 cumulative IPC: 0.451229 (Simulation time: 0 hr 50 min 25 sec) 
Heartbeat CPU 0 instructions: 102000001 cycles: 146842472 heartbeat IPC: 0.302397 cumulative IPC: 0.446998 (Simulation time: 0 hr 51 min 0 sec) 
Heartbeat CPU 0 instructions: 103000001 cycles: 148271545 heartbeat IPC: 0.699754 cumulative IPC: 0.450065 (Simulation time: 0 hr 51 min 29 sec) 
Heartbeat CPU 0 instructions: 104000000 cycles: 151272909 heartbeat IPC: 0.333182 cumulative IPC: 0.44716 (Simulation time: 0 hr 52 min 4 sec) 
Heartbeat CPU 0 instructions: 105000000 cycles: 154620569 heartbeat IPC: 0.298716 cumulative IPC: 0.443156 (Simulation time: 0 hr 52 min 38 sec) 
Heartbeat CPU 0 instructions: 106000000 cycles: 157903959 heartbeat IPC: 0.304563 cumulative IPC: 0.439584 (Simulation time: 0 hr 53 min 13 sec) 
Heartbeat CPU 0 instructions: 107000001 cycles: 159488547 heartbeat IPC: 0.631079 cumulative IPC: 0.441937 (Simulation time: 0 hr 53 min 40 sec) 
Heartbeat CPU 0 instructions: 108000000 cycles: 162324442 heartbeat IPC: 0.352622 cumulative IPC: 0.440015 (Simulation time: 0 hr 54 min 12 sec) 
Heartbeat CPU 0 instructions: 109000000 cycles: 165666885 heartbeat IPC: 0.299182 cumulative IPC: 0.436532 (Simulation time: 0 hr 54 min 52 sec) 
Heartbeat CPU 0 instructions: 110000000 cycles: 168984539 heartbeat IPC: 0.301418 cumulative IPC: 0.433295 (Simulation time: 0 hr 55 min 30 sec) 
Heartbeat CPU 0 instructions: 111000000 cycles: 170715008 heartbeat IPC: 0.577878 cumulative IPC: 0.43508 (Simulation time: 0 hr 56 min 1 sec) 
Heartbeat CPU 0 instructions: 112000000 cycles: 173368465 heartbeat IPC: 0.376867 cumulative IPC: 0.433998 (Simulation time: 0 hr 56 min 39 sec) 
Heartbeat CPU 0 instructions: 113000001 cycles: 176715741 heartbeat IPC: 0.298751 cumulative IPC: 0.430902 (Simulation time: 0 hr 57 min 13 sec) 
Heartbeat CPU 0 instructions: 114000001 cycles: 180074047 heartbeat IPC: 0.297769 cumulative IPC: 0.427913 (Simulation time: 0 hr 57 min 47 sec) 
Heartbeat CPU 0 instructions: 115000002 cycles: 181991053 heartbeat IPC: 0.521647 cumulative IPC: 0.429099 (Simulation time: 0 hr 58 min 15 sec) 
Heartbeat CPU 0 instructions: 116000000 cycles: 184454756 heartbeat IPC: 0.405892 cumulative IPC: 0.428727 (Simulation time: 0 hr 58 min 46 sec) 
Heartbeat CPU 0 instructions: 117000000 cycles: 187794609 heartbeat IPC: 0.299414 cumulative IPC: 0.425982 (Simulation time: 0 hr 59 min 18 sec) 
Heartbeat CPU 0 instructions: 118000001 cycles: 191178967 heartbeat IPC: 0.295477 cumulative IPC: 0.423233 (Simulation time: 0 hr 59 min 53 sec) 
Heartbeat CPU 0 instructions: 119000002 cycles: 192990856 heartbeat IPC: 0.551911 cumulative IPC: 0.424668 (Simulation time: 1 hr 0 min 25 sec) 
Heartbeat CPU 0 instructions: 120000000 cycles: 195542264 heartbeat IPC: 0.39194 cumulative IPC: 0.424162 (Simulation time: 1 hr 1 min 0 sec) 
Heartbeat CPU 0 instructions: 121000000 cycles: 198886793 heartbeat IPC: 0.298996 cumulative IPC: 0.421675 (Simulation time: 1 hr 1 min 38 sec) 
Heartbeat CPU 0 instructions: 122000000 cycles: 202231537 heartbeat IPC: 0.298977 cumulative IPC: 0.419285 (Simulation time: 1 hr 2 min 11 sec) 
Heartbeat CPU 0 instructions: 123000002 cycles: 203940221 heartbeat IPC: 0.585247 cumulative IPC: 0.420921 (Simulation time: 1 hr 2 min 39 sec) 
Heartbeat CPU 0 instructions: 124000000 cycles: 206585455 heartbeat IPC: 0.378038 cumulative IPC: 0.420276 (Simulation time: 1 hr 3 min 13 sec) 
Heartbeat CPU 0 instructions: 125000000 cycles: 210082145 heartbeat IPC: 0.285985 cumulative IPC: 0.417661 (Simulation time: 1 hr 3 min 53 sec) 
Heartbeat CPU 0 instructions: 126000001 cycles: 213291826 heartbeat IPC: 0.311558 cumulative IPC: 0.415798 (Simulation time: 1 hr 4 min 30 sec) 
Heartbeat CPU 0 instructions: 127000002 cycles: 214457441 heartbeat IPC: 0.857917 cumulative IPC: 0.4186 (Simulation time: 1 hr 4 min 56 sec) 
Heartbeat CPU 0 instructions: 128000000 cycles: 217804484 heartbeat IPC: 0.298771 cumulative IPC: 0.416458 (Simulation time: 1 hr 5 min 31 sec) 
Heartbeat CPU 0 instructions: 129000000 cycles: 221134676 heartbeat IPC: 0.300283 cumulative IPC: 0.414429 (Simulation time: 1 hr 6 min 2 sec) 
Heartbeat CPU 0 instructions: 130000001 cycles: 224306189 heartbeat IPC: 0.315307 cumulative IPC: 0.412807 (Simulation time: 1 hr 6 min 33 sec) 
Heartbeat CPU 0 instructions: 131000002 cycles: 225511378 heartbeat IPC: 0.829746 cumulative IPC: 0.415383 (Simulation time: 1 hr 7 min 3 sec) 
Heartbeat CPU 0 instructions: 132000000 cycles: 228851661 heartbeat IPC: 0.299375 cumulative IPC: 0.41343 (Simulation time: 1 hr 7 min 31 sec) 
Heartbeat CPU 0 instructions: 133000000 cycles: 232190268 heartbeat IPC: 0.299526 cumulative IPC: 0.411544 (Simulation time: 1 hr 8 min 4 sec) 
Heartbeat CPU 0 instructions: 134000000 cycles: 235245574 heartbeat IPC: 0.327299 cumulative IPC: 0.410287 (Simulation time: 1 hr 8 min 39 sec) 
Heartbeat CPU 0 instructions: 135000001 cycles: 238732640 heartbeat IPC: 0.286774 cumulative IPC: 0.408218 (Simulation time: 1 hr 9 min 12 sec) 
Heartbeat CPU 0 instructions: 136000000 cycles: 239776811 heartbeat IPC: 0.957697 cumulative IPC: 0.41096 (Simulation time: 1 hr 9 min 38 sec) 
Heartbeat CPU 0 instructions: 137000001 cycles: 240821996 heartbeat IPC: 0.956769 cumulative IPC: 0.413673 (Simulation time: 1 hr 10 min 3 sec) 
Heartbeat CPU 0 instructions: 138000001 cycles: 241866700 heartbeat IPC: 0.957209 cumulative IPC: 0.416359 (Simulation time: 1 hr 10 min 27 sec) 
Heartbeat CPU 0 instructions: 139000001 cycles: 242912231 heartbeat IPC: 0.956452 cumulative IPC: 0.419018 (Simulation time: 1 hr 10 min 54 sec) 
Heartbeat CPU 0 instructions: 140000000 cycles: 243958755 heartbeat IPC: 0.955543 cumulative IPC: 0.421648 (Simulation time: 1 hr 11 min 17 sec) 
Heartbeat CPU 0 instructions: 141000001 cycles: 245029315 heartbeat IPC: 0.934092 cumulative IPC: 0.424206 (Simulation time: 1 hr 11 min 39 sec) 
Heartbeat CPU 0 instructions: 142000002 cycles: 246073189 heartbeat IPC: 0.957971 cumulative IPC: 0.426791 (Simulation time: 1 hr 12 min 0 sec) 
Heartbeat CPU 0 instructions: 143000001 cycles: 247118343 heartbeat IPC: 0.956796 cumulative IPC: 0.429348 (Simulation time: 1 hr 12 min 20 sec) 
Heartbeat CPU 0 instructions: 144000000 cycles: 248162145 heartbeat IPC: 0.958035 cumulative IPC: 0.431883 (Simulation time: 1 hr 12 min 41 sec) 
Heartbeat CPU 0 instructions: 145000003 cycles: 249204874 heartbeat IPC: 0.959025 cumulative IPC: 0.434397 (Simulation time: 1 hr 13 min 5 sec) 
Heartbeat CPU 0 instructions: 146000001 cycles: 250246200 heartbeat IPC: 0.960312 cumulative IPC: 0.436889 (Simulation time: 1 hr 13 min 25 sec) 
Heartbeat CPU 0 instructions: 147000000 cycles: 251288017 heartbeat IPC: 0.959861 cumulative IPC: 0.439357 (Simulation time: 1 hr 13 min 46 sec) 
Heartbeat CPU 0 instructions: 148000000 cycles: 254643389 heartbeat IPC: 0.29803 cumulative IPC: 0.437241 (Simulation time: 1 hr 14 min 16 sec) 
Heartbeat CPU 0 instructions: 149000000 cycles: 257323974 heartbeat IPC: 0.373053 cumulative IPC: 0.436483 (Simulation time: 1 hr 14 min 39 sec) 
Heartbeat CPU 0 instructions: 150000000 cycles: 259004438 heartbeat IPC: 0.595074 cumulative IPC: 0.437649 (Simulation time: 1 hr 14 min 59 sec) 
Finished CPU 0 instructions: 100000002 cycles: 228493636 cummulative IPC: 0.437649 (Simulation time: 1 hr 14 min 59 sec) 

ChampSim completed all CPUs

Region of Interest Statistics

CPU 0 cummulative IPC: 0.437649 instructions: 100000002 cycles: 228493636
LLC TOTAL     ACCESS:    3408758  HIT:    1162980  MISS:    2245778
LLC LOAD      ACCESS:    1622558  HIT:    1085667  MISS:     536891
LLC RFO       ACCESS:       5352  HIT:       2368  MISS:       2984
LLC PREFETCH  ACCESS:    1763447  HIT:      63672  MISS:    1699775
LLC WRITEBACK ACCESS:      17401  HIT:      11273  MISS:       6128
OPTgen accesses: 38921
OPTgen hits: 32302
OPTgen hit rate: 82.9938


