
*** ChampSim Multicore Out-of-Order Simulator ***

Warmup Instructions: 50000000
Simulation Instructions: 100000000
Configuration: 2
Number of CPUs: 1
LLC sets: 2048
LLC ways: 16
Off-chip DRAM Channels: 1 Width: 64-bit Data Rate: 1600 MT/s

CPU 0 runs /datasets/cs240c-wi22-a00-public/data/Assignment2-gz/mcf_158B.trace.gz
CPU 0 L1D next line prefetcher
CPU 0 L2C IP-based stride prefetcher
Initialize Hawkeye state
Heartbeat CPU 0 instructions: 1000002 cycles: 512879 heartbeat IPC: 1.94978 cumulative IPC: 1.94978 (Simulation time: 0 hr 0 min 46 sec) 
Heartbeat CPU 0 instructions: 2000002 cycles: 1025222 heartbeat IPC: 1.95182 cumulative IPC: 1.9508 (Simulation time: 0 hr 1 min 31 sec) 
Heartbeat CPU 0 instructions: 3000000 cycles: 1539253 heartbeat IPC: 1.9454 cumulative IPC: 1.949 (Simulation time: 0 hr 2 min 17 sec) 
Heartbeat CPU 0 instructions: 4000000 cycles: 2051775 heartbeat IPC: 1.95114 cumulative IPC: 1.94953 (Simulation time: 0 hr 3 min 5 sec) 
Heartbeat CPU 0 instructions: 5000002 cycles: 2560655 heartbeat IPC: 1.9651 cumulative IPC: 1.95263 (Simulation time: 0 hr 3 min 52 sec) 
Heartbeat CPU 0 instructions: 6000001 cycles: 3074700 heartbeat IPC: 1.94535 cumulative IPC: 1.95141 (Simulation time: 0 hr 4 min 36 sec) 
Heartbeat CPU 0 instructions: 7000001 cycles: 3584934 heartbeat IPC: 1.95989 cumulative IPC: 1.95262 (Simulation time: 0 hr 5 min 19 sec) 
Heartbeat CPU 0 instructions: 8000000 cycles: 4097234 heartbeat IPC: 1.95198 cumulative IPC: 1.95254 (Simulation time: 0 hr 6 min 3 sec) 
Heartbeat CPU 0 instructions: 9000000 cycles: 4616753 heartbeat IPC: 1.92486 cumulative IPC: 1.94942 (Simulation time: 0 hr 6 min 46 sec) 
Heartbeat CPU 0 instructions: 10000001 cycles: 5149285 heartbeat IPC: 1.87782 cumulative IPC: 1.94202 (Simulation time: 0 hr 7 min 30 sec) 
Heartbeat CPU 0 instructions: 11000001 cycles: 5658467 heartbeat IPC: 1.96393 cumulative IPC: 1.94399 (Simulation time: 0 hr 8 min 13 sec) 
Heartbeat CPU 0 instructions: 12000000 cycles: 6168317 heartbeat IPC: 1.96136 cumulative IPC: 1.94543 (Simulation time: 0 hr 8 min 58 sec) 
Heartbeat CPU 0 instructions: 13000003 cycles: 6677627 heartbeat IPC: 1.96345 cumulative IPC: 1.9468 (Simulation time: 0 hr 9 min 41 sec) 
Heartbeat CPU 0 instructions: 14000001 cycles: 7183832 heartbeat IPC: 1.97548 cumulative IPC: 1.94882 (Simulation time: 0 hr 10 min 23 sec) 
Heartbeat CPU 0 instructions: 15000000 cycles: 7689073 heartbeat IPC: 1.97925 cumulative IPC: 1.95082 (Simulation time: 0 hr 11 min 8 sec) 
Heartbeat CPU 0 instructions: 16000000 cycles: 8233583 heartbeat IPC: 1.83651 cumulative IPC: 1.94326 (Simulation time: 0 hr 11 min 50 sec) 
Heartbeat CPU 0 instructions: 17000001 cycles: 8745526 heartbeat IPC: 1.95334 cumulative IPC: 1.94385 (Simulation time: 0 hr 12 min 31 sec) 
Heartbeat CPU 0 instructions: 18000001 cycles: 9252401 heartbeat IPC: 1.97287 cumulative IPC: 1.94544 (Simulation time: 0 hr 13 min 15 sec) 
Heartbeat CPU 0 instructions: 19000001 cycles: 9764564 heartbeat IPC: 1.9525 cumulative IPC: 1.94581 (Simulation time: 0 hr 14 min 2 sec) 
Heartbeat CPU 0 instructions: 20000000 cycles: 10275769 heartbeat IPC: 1.95616 cumulative IPC: 1.94633 (Simulation time: 0 hr 14 min 45 sec) 
Heartbeat CPU 0 instructions: 21000000 cycles: 10786272 heartbeat IPC: 1.95885 cumulative IPC: 1.94692 (Simulation time: 0 hr 15 min 30 sec) 
Heartbeat CPU 0 instructions: 22000002 cycles: 11296006 heartbeat IPC: 1.96181 cumulative IPC: 1.94759 (Simulation time: 0 hr 16 min 13 sec) 
Heartbeat CPU 0 instructions: 23000003 cycles: 11814349 heartbeat IPC: 1.92923 cumulative IPC: 1.94679 (Simulation time: 0 hr 16 min 54 sec) 
Heartbeat CPU 0 instructions: 24000000 cycles: 12353248 heartbeat IPC: 1.85563 cumulative IPC: 1.94281 (Simulation time: 0 hr 17 min 36 sec) 
Heartbeat CPU 0 instructions: 25000001 cycles: 12859158 heartbeat IPC: 1.97664 cumulative IPC: 1.94414 (Simulation time: 0 hr 18 min 19 sec) 
Heartbeat CPU 0 instructions: 26000001 cycles: 13361175 heartbeat IPC: 1.99196 cumulative IPC: 1.94594 (Simulation time: 0 hr 19 min 3 sec) 
Heartbeat CPU 0 instructions: 27000002 cycles: 13866615 heartbeat IPC: 1.97848 cumulative IPC: 1.94712 (Simulation time: 0 hr 19 min 50 sec) 
Heartbeat CPU 0 instructions: 28000000 cycles: 14408878 heartbeat IPC: 1.84412 cumulative IPC: 1.94325 (Simulation time: 0 hr 20 min 34 sec) 
Heartbeat CPU 0 instructions: 29000003 cycles: 14916564 heartbeat IPC: 1.96973 cumulative IPC: 1.94415 (Simulation time: 0 hr 21 min 14 sec) 
Heartbeat CPU 0 instructions: 30000000 cycles: 15418428 heartbeat IPC: 1.99257 cumulative IPC: 1.94572 (Simulation time: 0 hr 21 min 57 sec) 
Heartbeat CPU 0 instructions: 31000003 cycles: 15929462 heartbeat IPC: 1.95682 cumulative IPC: 1.94608 (Simulation time: 0 hr 22 min 37 sec) 
Heartbeat CPU 0 instructions: 32000000 cycles: 16470037 heartbeat IPC: 1.84988 cumulative IPC: 1.94292 (Simulation time: 0 hr 23 min 17 sec) 
Heartbeat CPU 0 instructions: 33000000 cycles: 16975735 heartbeat IPC: 1.97746 cumulative IPC: 1.94395 (Simulation time: 0 hr 23 min 56 sec) 
Heartbeat CPU 0 instructions: 34000000 cycles: 17484170 heartbeat IPC: 1.96682 cumulative IPC: 1.94462 (Simulation time: 0 hr 24 min 39 sec) 
Heartbeat CPU 0 instructions: 35000001 cycles: 17992226 heartbeat IPC: 1.96829 cumulative IPC: 1.94528 (Simulation time: 0 hr 25 min 21 sec) 
Heartbeat CPU 0 instructions: 36000000 cycles: 18535632 heartbeat IPC: 1.84024 cumulative IPC: 1.94221 (Simulation time: 0 hr 26 min 2 sec) 
Heartbeat CPU 0 instructions: 37000001 cycles: 19040197 heartbeat IPC: 1.98191 cumulative IPC: 1.94326 (Simulation time: 0 hr 26 min 47 sec) 
Heartbeat CPU 0 instructions: 38000002 cycles: 19544293 heartbeat IPC: 1.98375 cumulative IPC: 1.9443 (Simulation time: 0 hr 27 min 31 sec) 
Heartbeat CPU 0 instructions: 39000000 cycles: 20045118 heartbeat IPC: 1.9967 cumulative IPC: 1.94561 (Simulation time: 0 hr 28 min 12 sec) 
Heartbeat CPU 0 instructions: 40000000 cycles: 20583899 heartbeat IPC: 1.85604 cumulative IPC: 1.94327 (Simulation time: 0 hr 28 min 55 sec) 
Heartbeat CPU 0 instructions: 41000003 cycles: 21088442 heartbeat IPC: 1.982 cumulative IPC: 1.94419 (Simulation time: 0 hr 29 min 33 sec) 
Heartbeat CPU 0 instructions: 42000000 cycles: 21588358 heartbeat IPC: 2.00033 cumulative IPC: 1.94549 (Simulation time: 0 hr 30 min 14 sec) 
Heartbeat CPU 0 instructions: 43000001 cycles: 22101448 heartbeat IPC: 1.94898 cumulative IPC: 1.94557 (Simulation time: 0 hr 30 min 53 sec) 
Heartbeat CPU 0 instructions: 44000000 cycles: 22619898 heartbeat IPC: 1.92882 cumulative IPC: 1.94519 (Simulation time: 0 hr 31 min 32 sec) 
Heartbeat CPU 0 instructions: 45000000 cycles: 23100473 heartbeat IPC: 2.08084 cumulative IPC: 1.94801 (Simulation time: 0 hr 32 min 14 sec) 
Heartbeat CPU 0 instructions: 46000002 cycles: 23609350 heartbeat IPC: 1.96512 cumulative IPC: 1.94838 (Simulation time: 0 hr 32 min 53 sec) 
Heartbeat CPU 0 instructions: 47000002 cycles: 24129600 heartbeat IPC: 1.92215 cumulative IPC: 1.94782 (Simulation time: 0 hr 33 min 35 sec) 
Heartbeat CPU 0 instructions: 48000000 cycles: 24611534 heartbeat IPC: 2.07497 cumulative IPC: 1.95031 (Simulation time: 0 hr 34 min 14 sec) 
Heartbeat CPU 0 instructions: 49000003 cycles: 25118663 heartbeat IPC: 1.97189 cumulative IPC: 1.95074 (Simulation time: 0 hr 34 min 55 sec) 
Heartbeat CPU 0 instructions: 50000000 cycles: 25642793 heartbeat IPC: 1.90792 cumulative IPC: 1.94987 (Simulation time: 0 hr 35 min 35 sec) 

Warmup complete CPU 0 instructions: 50000001 cycles: 25642794 (Simulation time: 0 hr 35 min 35 sec) 

Heartbeat CPU 0 instructions: 51000000 cycles: 31647537 heartbeat IPC: 0.166535 cumulative IPC: 0.166535 (Simulation time: 0 hr 36 min 24 sec) 
Heartbeat CPU 0 instructions: 52000000 cycles: 40791960 heartbeat IPC: 0.109356 cumulative IPC: 0.13202 (Simulation time: 0 hr 37 min 21 sec) 
Heartbeat CPU 0 instructions: 53000000 cycles: 54444117 heartbeat IPC: 0.0732485 cumulative IPC: 0.104162 (Simulation time: 0 hr 38 min 31 sec) 
Heartbeat CPU 0 instructions: 54000000 cycles: 60692962 heartbeat IPC: 0.16003 cumulative IPC: 0.114122 (Simulation time: 0 hr 39 min 23 sec) 
Heartbeat CPU 0 instructions: 55000000 cycles: 68708409 heartbeat IPC: 0.124759 cumulative IPC: 0.116102 (Simulation time: 0 hr 40 min 17 sec) 
Heartbeat CPU 0 instructions: 56000000 cycles: 83433672 heartbeat IPC: 0.0679105 cumulative IPC: 0.103823 (Simulation time: 0 hr 41 min 30 sec) 
Heartbeat CPU 0 instructions: 57000001 cycles: 89625898 heartbeat IPC: 0.161493 cumulative IPC: 0.109404 (Simulation time: 0 hr 42 min 20 sec) 
Heartbeat CPU 0 instructions: 58000001 cycles: 95679824 heartbeat IPC: 0.165182 cumulative IPC: 0.114225 (Simulation time: 0 hr 43 min 9 sec) 
Heartbeat CPU 0 instructions: 59000000 cycles: 111643013 heartbeat IPC: 0.0626441 cumulative IPC: 0.104651 (Simulation time: 0 hr 44 min 29 sec) 
Heartbeat CPU 0 instructions: 60000000 cycles: 118509318 heartbeat IPC: 0.145639 cumulative IPC: 0.107681 (Simulation time: 0 hr 45 min 25 sec) 
Heartbeat CPU 0 instructions: 61000000 cycles: 125319870 heartbeat IPC: 0.146831 cumulative IPC: 0.110356 (Simulation time: 0 hr 46 min 17 sec) 
Heartbeat CPU 0 instructions: 62000001 cycles: 137451572 heartbeat IPC: 0.0824287 cumulative IPC: 0.107326 (Simulation time: 0 hr 47 min 25 sec) 
Heartbeat CPU 0 instructions: 63000001 cycles: 147799643 heartbeat IPC: 0.0966364 cumulative IPC: 0.106421 (Simulation time: 0 hr 48 min 27 sec) 
Heartbeat CPU 0 instructions: 64000000 cycles: 153705967 heartbeat IPC: 0.16931 cumulative IPC: 0.109321 (Simulation time: 0 hr 49 min 22 sec) 
Heartbeat CPU 0 instructions: 65000000 cycles: 160810665 heartbeat IPC: 0.140752 cumulative IPC: 0.110973 (Simulation time: 0 hr 50 min 18 sec) 
Heartbeat CPU 0 instructions: 66000000 cycles: 175614128 heartbeat IPC: 0.0675518 cumulative IPC: 0.106687 (Simulation time: 0 hr 51 min 36 sec) 
Heartbeat CPU 0 instructions: 67000002 cycles: 181584366 heartbeat IPC: 0.167498 cumulative IPC: 0.109015 (Simulation time: 0 hr 52 min 24 sec) 
Heartbeat CPU 0 instructions: 68000000 cycles: 187331100 heartbeat IPC: 0.174012 cumulative IPC: 0.111325 (Simulation time: 0 hr 53 min 14 sec) 
Heartbeat CPU 0 instructions: 69000000 cycles: 200222308 heartbeat IPC: 0.0775722 cumulative IPC: 0.108833 (Simulation time: 0 hr 54 min 26 sec) 
Heartbeat CPU 0 instructions: 70000000 cycles: 209426460 heartbeat IPC: 0.108647 cumulative IPC: 0.108824 (Simulation time: 0 hr 55 min 27 sec) 
Heartbeat CPU 0 instructions: 71000002 cycles: 215176573 heartbeat IPC: 0.17391 cumulative IPC: 0.110798 (Simulation time: 0 hr 56 min 19 sec) 
Heartbeat CPU 0 instructions: 72000000 cycles: 222863019 heartbeat IPC: 0.130099 cumulative IPC: 0.11155 (Simulation time: 0 hr 57 min 12 sec) 
Heartbeat CPU 0 instructions: 73000000 cycles: 237086462 heartbeat IPC: 0.0703065 cumulative IPC: 0.108776 (Simulation time: 0 hr 58 min 22 sec) 
Heartbeat CPU 0 instructions: 74000000 cycles: 243217542 heartbeat IPC: 0.163103 cumulative IPC: 0.110307 (Simulation time: 0 hr 59 min 12 sec) 
Heartbeat CPU 0 instructions: 75000001 cycles: 249371146 heartbeat IPC: 0.162507 cumulative IPC: 0.111743 (Simulation time: 1 hr 0 min 4 sec) 
Heartbeat CPU 0 instructions: 76000000 cycles: 261348371 heartbeat IPC: 0.0834917 cumulative IPC: 0.110307 (Simulation time: 1 hr 1 min 12 sec) 
Heartbeat CPU 0 instructions: 77000000 cycles: 272055627 heartbeat IPC: 0.0933946 cumulative IPC: 0.109572 (Simulation time: 1 hr 2 min 15 sec) 
Heartbeat CPU 0 instructions: 78000000 cycles: 278790629 heartbeat IPC: 0.148478 cumulative IPC: 0.110607 (Simulation time: 1 hr 3 min 6 sec) 
Heartbeat CPU 0 instructions: 79000001 cycles: 285890588 heartbeat IPC: 0.140846 cumulative IPC: 0.111432 (Simulation time: 1 hr 3 min 58 sec) 
Heartbeat CPU 0 instructions: 80000000 cycles: 301083413 heartbeat IPC: 0.0658205 cumulative IPC: 0.108916 (Simulation time: 1 hr 5 min 14 sec) 
Heartbeat CPU 0 instructions: 81000001 cycles: 308272420 heartbeat IPC: 0.139101 cumulative IPC: 0.109684 (Simulation time: 1 hr 6 min 2 sec) 
Heartbeat CPU 0 instructions: 82000001 cycles: 315328222 heartbeat IPC: 0.141727 cumulative IPC: 0.110465 (Simulation time: 1 hr 6 min 48 sec) 
Heartbeat CPU 0 instructions: 83000001 cycles: 327922507 heartbeat IPC: 0.0794011 cumulative IPC: 0.10917 (Simulation time: 1 hr 7 min 47 sec) 
Heartbeat CPU 0 instructions: 84000000 cycles: 339127861 heartbeat IPC: 0.089243 cumulative IPC: 0.108458 (Simulation time: 1 hr 8 min 45 sec) 
Heartbeat CPU 0 instructions: 85000000 cycles: 345568460 heartbeat IPC: 0.155265 cumulative IPC: 0.1094 (Simulation time: 1 hr 9 min 33 sec) 
Heartbeat CPU 0 instructions: 86000002 cycles: 353141995 heartbeat IPC: 0.132039 cumulative IPC: 0.109924 (Simulation time: 1 hr 10 min 22 sec) 
Heartbeat CPU 0 instructions: 87000000 cycles: 368086982 heartbeat IPC: 0.0669119 cumulative IPC: 0.108047 (Simulation time: 1 hr 11 min 30 sec) 
Heartbeat CPU 0 instructions: 88000000 cycles: 374885658 heartbeat IPC: 0.147087 cumulative IPC: 0.108807 (Simulation time: 1 hr 12 min 14 sec) 
Heartbeat CPU 0 instructions: 89000000 cycles: 382253420 heartbeat IPC: 0.135726 cumulative IPC: 0.109363 (Simulation time: 1 hr 12 min 57 sec) 
Heartbeat CPU 0 instructions: 90000002 cycles: 395795680 heartbeat IPC: 0.0738431 cumulative IPC: 0.108063 (Simulation time: 1 hr 13 min 54 sec) 
Heartbeat CPU 0 instructions: 91000000 cycles: 405113054 heartbeat IPC: 0.107326 cumulative IPC: 0.108045 (Simulation time: 1 hr 14 min 39 sec) 
Heartbeat CPU 0 instructions: 92000000 cycles: 411591160 heartbeat IPC: 0.154366 cumulative IPC: 0.108823 (Simulation time: 1 hr 15 min 13 sec) 
Heartbeat CPU 0 instructions: 93000003 cycles: 422586098 heartbeat IPC: 0.0909512 cumulative IPC: 0.108328 (Simulation time: 1 hr 15 min 55 sec) 
Heartbeat CPU 0 instructions: 94000000 cycles: 434697728 heartbeat IPC: 0.082565 cumulative IPC: 0.107565 (Simulation time: 1 hr 16 min 39 sec) 
Heartbeat CPU 0 instructions: 95000000 cycles: 441456941 heartbeat IPC: 0.147946 cumulative IPC: 0.108221 (Simulation time: 1 hr 17 min 12 sec) 
Heartbeat CPU 0 instructions: 96000000 cycles: 449027758 heartbeat IPC: 0.132086 cumulative IPC: 0.108648 (Simulation time: 1 hr 17 min 44 sec) 
Heartbeat CPU 0 instructions: 97000003 cycles: 464651992 heartbeat IPC: 0.0640033 cumulative IPC: 0.107059 (Simulation time: 1 hr 18 min 30 sec) 
Heartbeat CPU 0 instructions: 98000002 cycles: 471864550 heartbeat IPC: 0.138647 cumulative IPC: 0.10757 (Simulation time: 1 hr 19 min 1 sec) 
Heartbeat CPU 0 instructions: 99000000 cycles: 478864826 heartbeat IPC: 0.142851 cumulative IPC: 0.108115 (Simulation time: 1 hr 19 min 30 sec) 
Heartbeat CPU 0 instructions: 100000000 cycles: 492258181 heartbeat IPC: 0.0746639 cumulative IPC: 0.107155 (Simulation time: 1 hr 20 min 7 sec) 
Heartbeat CPU 0 instructions: 101000000 cycles: 502519651 heartbeat IPC: 0.0974519 cumulative IPC: 0.106946 (Simulation time: 1 hr 20 min 40 sec) 
Heartbeat CPU 0 instructions: 102000000 cycles: 510066128 heartbeat IPC: 0.132512 cumulative IPC: 0.107344 (Simulation time: 1 hr 21 min 12 sec) 
Heartbeat CPU 0 instructions: 103000001 cycles: 517080049 heartbeat IPC: 0.142574 cumulative IPC: 0.107847 (Simulation time: 1 hr 21 min 41 sec) 
Heartbeat CPU 0 instructions: 104000000 cycles: 532724072 heartbeat IPC: 0.0639221 cumulative IPC: 0.106492 (Simulation time: 1 hr 22 min 21 sec) 
Heartbeat CPU 0 instructions: 105000000 cycles: 541066236 heartbeat IPC: 0.119873 cumulative IPC: 0.106708 (Simulation time: 1 hr 22 min 49 sec) 
Heartbeat CPU 0 instructions: 106000000 cycles: 548666040 heartbeat IPC: 0.131582 cumulative IPC: 0.10707 (Simulation time: 1 hr 23 min 14 sec) 
Heartbeat CPU 0 instructions: 107000000 cycles: 558657888 heartbeat IPC: 0.100082 cumulative IPC: 0.106939 (Simulation time: 1 hr 23 min 42 sec) 
Heartbeat CPU 0 instructions: 108000000 cycles: 572427117 heartbeat IPC: 0.0726257 cumulative IPC: 0.106075 (Simulation time: 1 hr 24 min 14 sec) 
Heartbeat CPU 0 instructions: 109000001 cycles: 579867635 heartbeat IPC: 0.134399 cumulative IPC: 0.106455 (Simulation time: 1 hr 24 min 35 sec) 
Heartbeat CPU 0 instructions: 110000000 cycles: 587756736 heartbeat IPC: 0.126757 cumulative IPC: 0.10674 (Simulation time: 1 hr 24 min 57 sec) 
Heartbeat CPU 0 instructions: 111000001 cycles: 600580483 heartbeat IPC: 0.0779804 cumulative IPC: 0.106098 (Simulation time: 1 hr 25 min 24 sec) 
Heartbeat CPU 0 instructions: 112000000 cycles: 612020946 heartbeat IPC: 0.087409 cumulative IPC: 0.105734 (Simulation time: 1 hr 25 min 50 sec) 
Heartbeat CPU 0 instructions: 113000000 cycles: 619509817 heartbeat IPC: 0.133531 cumulative IPC: 0.106084 (Simulation time: 1 hr 26 min 10 sec) 
Heartbeat CPU 0 instructions: 114000002 cycles: 627592580 heartbeat IPC: 0.12372 cumulative IPC: 0.106321 (Simulation time: 1 hr 26 min 31 sec) 
Heartbeat CPU 0 instructions: 115000000 cycles: 640890245 heartbeat IPC: 0.075201 cumulative IPC: 0.105649 (Simulation time: 1 hr 26 min 53 sec) 
Heartbeat CPU 0 instructions: 116000000 cycles: 652439051 heartbeat IPC: 0.086589 cumulative IPC: 0.105297 (Simulation time: 1 hr 27 min 10 sec) 
Heartbeat CPU 0 instructions: 117000003 cycles: 660854061 heartbeat IPC: 0.118836 cumulative IPC: 0.105477 (Simulation time: 1 hr 27 min 23 sec) 
Heartbeat CPU 0 instructions: 118000000 cycles: 669124302 heartbeat IPC: 0.120915 cumulative IPC: 0.105675 (Simulation time: 1 hr 27 min 35 sec) 
Heartbeat CPU 0 instructions: 119000001 cycles: 678434524 heartbeat IPC: 0.107409 cumulative IPC: 0.1057 (Simulation time: 1 hr 27 min 47 sec) 
Heartbeat CPU 0 instructions: 120000000 cycles: 692682780 heartbeat IPC: 0.070184 cumulative IPC: 0.104941 (Simulation time: 1 hr 28 min 0 sec) 
Heartbeat CPU 0 instructions: 121000000 cycles: 700593055 heartbeat IPC: 0.126418 cumulative IPC: 0.105193 (Simulation time: 1 hr 28 min 8 sec) 
Heartbeat CPU 0 instructions: 122000001 cycles: 709075007 heartbeat IPC: 0.117898 cumulative IPC: 0.105351 (Simulation time: 1 hr 28 min 16 sec) 
Heartbeat CPU 0 instructions: 123000002 cycles: 717930073 heartbeat IPC: 0.11293 cumulative IPC: 0.105448 (Simulation time: 1 hr 28 min 25 sec) 
Heartbeat CPU 0 instructions: 124000000 cycles: 733658618 heartbeat IPC: 0.0635785 cumulative IPC: 0.104517 (Simulation time: 1 hr 28 min 37 sec) 
Heartbeat CPU 0 instructions: 125000001 cycles: 742621232 heartbeat IPC: 0.111575 cumulative IPC: 0.104606 (Simulation time: 1 hr 28 min 44 sec) 
Heartbeat CPU 0 instructions: 126000000 cycles: 751161051 heartbeat IPC: 0.117098 cumulative IPC: 0.104753 (Simulation time: 1 hr 28 min 51 sec) 
Heartbeat CPU 0 instructions: 127000002 cycles: 759236930 heartbeat IPC: 0.123826 cumulative IPC: 0.104963 (Simulation time: 1 hr 28 min 57 sec) 
Heartbeat CPU 0 instructions: 128000000 cycles: 771318571 heartbeat IPC: 0.08277 cumulative IPC: 0.104603 (Simulation time: 1 hr 29 min 5 sec) 
Heartbeat CPU 0 instructions: 129000001 cycles: 784373571 heartbeat IPC: 0.0765991 cumulative IPC: 0.104121 (Simulation time: 1 hr 29 min 14 sec) 
Heartbeat CPU 0 instructions: 130000003 cycles: 792845768 heartbeat IPC: 0.118033 cumulative IPC: 0.104275 (Simulation time: 1 hr 29 min 20 sec) 
Heartbeat CPU 0 instructions: 131000000 cycles: 799947995 heartbeat IPC: 0.1408 cumulative IPC: 0.10461 (Simulation time: 1 hr 29 min 26 sec) 
Heartbeat CPU 0 instructions: 132000000 cycles: 811726862 heartbeat IPC: 0.0848978 cumulative IPC: 0.104315 (Simulation time: 1 hr 29 min 33 sec) 
Heartbeat CPU 0 instructions: 133000002 cycles: 823631299 heartbeat IPC: 0.0840025 cumulative IPC: 0.104012 (Simulation time: 1 hr 29 min 40 sec) 
Heartbeat CPU 0 instructions: 134000003 cycles: 830897111 heartbeat IPC: 0.137631 cumulative IPC: 0.104315 (Simulation time: 1 hr 29 min 46 sec) 
Heartbeat CPU 0 instructions: 135000000 cycles: 837404032 heartbeat IPC: 0.153682 cumulative IPC: 0.104711 (Simulation time: 1 hr 29 min 51 sec) 
Heartbeat CPU 0 instructions: 136000000 cycles: 849828281 heartbeat IPC: 0.0804878 cumulative IPC: 0.104345 (Simulation time: 1 hr 30 min 0 sec) 
Heartbeat CPU 0 instructions: 137000000 cycles: 861376409 heartbeat IPC: 0.0865941 cumulative IPC: 0.1041 (Simulation time: 1 hr 30 min 9 sec) 
Heartbeat CPU 0 instructions: 138000000 cycles: 869867280 heartbeat IPC: 0.117774 cumulative IPC: 0.104238 (Simulation time: 1 hr 30 min 16 sec) 
Heartbeat CPU 0 instructions: 139000001 cycles: 878239517 heartbeat IPC: 0.119443 cumulative IPC: 0.104387 (Simulation time: 1 hr 30 min 22 sec) 
Heartbeat CPU 0 instructions: 140000000 cycles: 887124391 heartbeat IPC: 0.112551 cumulative IPC: 0.104471 (Simulation time: 1 hr 30 min 30 sec) 
Heartbeat CPU 0 instructions: 141000000 cycles: 902816926 heartbeat IPC: 0.0637246 cumulative IPC: 0.103742 (Simulation time: 1 hr 30 min 40 sec) 
Heartbeat CPU 0 instructions: 142000000 cycles: 910525716 heartbeat IPC: 0.129722 cumulative IPC: 0.103969 (Simulation time: 1 hr 30 min 47 sec) 
Heartbeat CPU 0 instructions: 143000000 cycles: 918430961 heartbeat IPC: 0.126498 cumulative IPC: 0.104168 (Simulation time: 1 hr 30 min 54 sec) 
Heartbeat CPU 0 instructions: 144000000 cycles: 926449388 heartbeat IPC: 0.124713 cumulative IPC: 0.104351 (Simulation time: 1 hr 31 min 1 sec) 
Heartbeat CPU 0 instructions: 145000003 cycles: 941684166 heartbeat IPC: 0.0656395 cumulative IPC: 0.103707 (Simulation time: 1 hr 31 min 11 sec) 
Heartbeat CPU 0 instructions: 146000000 cycles: 950379824 heartbeat IPC: 0.115 cumulative IPC: 0.103813 (Simulation time: 1 hr 31 min 18 sec) 
Heartbeat CPU 0 instructions: 147000000 cycles: 958503589 heartbeat IPC: 0.123096 cumulative IPC: 0.103981 (Simulation time: 1 hr 31 min 25 sec) 
Heartbeat CPU 0 instructions: 148000000 cycles: 966926952 heartbeat IPC: 0.118717 cumulative IPC: 0.104113 (Simulation time: 1 hr 31 min 32 sec) 
Heartbeat CPU 0 instructions: 149000001 cycles: 980221919 heartbeat IPC: 0.0752165 cumulative IPC: 0.103711 (Simulation time: 1 hr 31 min 41 sec) 
Heartbeat CPU 0 instructions: 150000000 cycles: 991796183 heartbeat IPC: 0.0863985 cumulative IPC: 0.103503 (Simulation time: 1 hr 31 min 49 sec) 
Finished CPU 0 instructions: 100000000 cycles: 966153391 cummulative IPC: 0.103503 (Simulation time: 1 hr 31 min 49 sec) 

ChampSim completed all CPUs

Region of Interest Statistics

CPU 0 cummulative IPC: 0.103503 instructions: 100000000 cycles: 966153391
LLC TOTAL     ACCESS:   21110970  HIT:   10245354  MISS:   10865616
LLC LOAD      ACCESS:    9532707  HIT:    5449826  MISS:    4082881
LLC RFO       ACCESS:     168953  HIT:      43942  MISS:     125011
LLC PREFETCH  ACCESS:    9550919  HIT:    3424072  MISS:    6126847
LLC WRITEBACK ACCESS:    1858391  HIT:    1327514  MISS:     530877
OPTgen accesses: 242094
OPTgen hits: 203343
OPTgen hit rate: 83.9934


