
*** ChampSim Multicore Out-of-Order Simulator ***

Warmup Instructions: 50000000
Simulation Instructions: 100000000
Configuration: 2
Number of CPUs: 1
LLC sets: 2048
LLC ways: 16
Off-chip DRAM Channels: 1 Width: 64-bit Data Rate: 1600 MT/s

CPU 0 runs /datasets/cs240c-wi22-a00-public/data/Assignment2-gz/sphinx3_883B.trace.gz
CPU 0 L1D next line prefetcher
CPU 0 L2C IP-based stride prefetcher
Initialize Hawkeye state
Heartbeat CPU 0 instructions: 1000003 cycles: 414365 heartbeat IPC: 2.41334 cumulative IPC: 2.41334 (Simulation time: 0 hr 0 min 29 sec) 
Heartbeat CPU 0 instructions: 2000000 cycles: 823887 heartbeat IPC: 2.44186 cumulative IPC: 2.42752 (Simulation time: 0 hr 0 min 58 sec) 
Heartbeat CPU 0 instructions: 3000003 cycles: 1298677 heartbeat IPC: 2.1062 cumulative IPC: 2.31005 (Simulation time: 0 hr 1 min 24 sec) 
Heartbeat CPU 0 instructions: 4000000 cycles: 1637567 heartbeat IPC: 2.9508 cumulative IPC: 2.44265 (Simulation time: 0 hr 1 min 48 sec) 
Heartbeat CPU 0 instructions: 5000000 cycles: 1992234 heartbeat IPC: 2.81955 cumulative IPC: 2.50975 (Simulation time: 0 hr 2 min 13 sec) 
Heartbeat CPU 0 instructions: 6000003 cycles: 2406675 heartbeat IPC: 2.4129 cumulative IPC: 2.49307 (Simulation time: 0 hr 2 min 43 sec) 
Heartbeat CPU 0 instructions: 7000002 cycles: 2815449 heartbeat IPC: 2.44634 cumulative IPC: 2.48628 (Simulation time: 0 hr 3 min 13 sec) 
Heartbeat CPU 0 instructions: 8000000 cycles: 3291287 heartbeat IPC: 2.10155 cumulative IPC: 2.43066 (Simulation time: 0 hr 3 min 39 sec) 
Heartbeat CPU 0 instructions: 9000001 cycles: 3630286 heartbeat IPC: 2.94986 cumulative IPC: 2.47914 (Simulation time: 0 hr 4 min 5 sec) 
Heartbeat CPU 0 instructions: 10000000 cycles: 3984377 heartbeat IPC: 2.82413 cumulative IPC: 2.5098 (Simulation time: 0 hr 4 min 28 sec) 
Heartbeat CPU 0 instructions: 11000000 cycles: 4398826 heartbeat IPC: 2.41284 cumulative IPC: 2.50067 (Simulation time: 0 hr 4 min 56 sec) 
Heartbeat CPU 0 instructions: 12000000 cycles: 4811682 heartbeat IPC: 2.42215 cumulative IPC: 2.49393 (Simulation time: 0 hr 5 min 22 sec) 
Heartbeat CPU 0 instructions: 13000001 cycles: 5277002 heartbeat IPC: 2.14906 cumulative IPC: 2.46352 (Simulation time: 0 hr 5 min 48 sec) 
Heartbeat CPU 0 instructions: 14000001 cycles: 5630827 heartbeat IPC: 2.82626 cumulative IPC: 2.48631 (Simulation time: 0 hr 6 min 13 sec) 
Heartbeat CPU 0 instructions: 15000000 cycles: 5977457 heartbeat IPC: 2.88492 cumulative IPC: 2.50943 (Simulation time: 0 hr 6 min 39 sec) 
Heartbeat CPU 0 instructions: 16000000 cycles: 6390921 heartbeat IPC: 2.41859 cumulative IPC: 2.50355 (Simulation time: 0 hr 7 min 6 sec) 
Heartbeat CPU 0 instructions: 17000000 cycles: 6803010 heartbeat IPC: 2.42666 cumulative IPC: 2.49889 (Simulation time: 0 hr 7 min 31 sec) 
Heartbeat CPU 0 instructions: 18000000 cycles: 7219341 heartbeat IPC: 2.40194 cumulative IPC: 2.4933 (Simulation time: 0 hr 7 min 56 sec) 
Heartbeat CPU 0 instructions: 19000003 cycles: 7633891 heartbeat IPC: 2.41226 cumulative IPC: 2.4889 (Simulation time: 0 hr 8 min 18 sec) 
Heartbeat CPU 0 instructions: 20000000 cycles: 7972841 heartbeat IPC: 2.95028 cumulative IPC: 2.50852 (Simulation time: 0 hr 8 min 41 sec) 
Heartbeat CPU 0 instructions: 21000000 cycles: 8382497 heartbeat IPC: 2.44107 cumulative IPC: 2.50522 (Simulation time: 0 hr 9 min 11 sec) 
Heartbeat CPU 0 instructions: 22000003 cycles: 8795978 heartbeat IPC: 2.4185 cumulative IPC: 2.50114 (Simulation time: 0 hr 9 min 38 sec) 
Heartbeat CPU 0 instructions: 23000003 cycles: 9206129 heartbeat IPC: 2.43813 cumulative IPC: 2.49834 (Simulation time: 0 hr 10 min 6 sec) 
Heartbeat CPU 0 instructions: 24000000 cycles: 9656816 heartbeat IPC: 2.21883 cumulative IPC: 2.48529 (Simulation time: 0 hr 10 min 30 sec) 
Heartbeat CPU 0 instructions: 25000000 cycles: 9995854 heartbeat IPC: 2.94952 cumulative IPC: 2.50104 (Simulation time: 0 hr 10 min 53 sec) 
Heartbeat CPU 0 instructions: 26000001 cycles: 10373032 heartbeat IPC: 2.65127 cumulative IPC: 2.5065 (Simulation time: 0 hr 11 min 18 sec) 
Heartbeat CPU 0 instructions: 27000001 cycles: 10788076 heartbeat IPC: 2.40938 cumulative IPC: 2.50276 (Simulation time: 0 hr 11 min 46 sec) 
Heartbeat CPU 0 instructions: 28000000 cycles: 11202906 heartbeat IPC: 2.41062 cumulative IPC: 2.49935 (Simulation time: 0 hr 12 min 13 sec) 
Heartbeat CPU 0 instructions: 29000003 cycles: 11666215 heartbeat IPC: 2.15839 cumulative IPC: 2.48581 (Simulation time: 0 hr 12 min 40 sec) 
Heartbeat CPU 0 instructions: 30000000 cycles: 12005134 heartbeat IPC: 2.95055 cumulative IPC: 2.49893 (Simulation time: 0 hr 13 min 4 sec) 
Heartbeat CPU 0 instructions: 31000003 cycles: 12368448 heartbeat IPC: 2.75245 cumulative IPC: 2.50638 (Simulation time: 0 hr 13 min 32 sec) 
Heartbeat CPU 0 instructions: 32000000 cycles: 12783504 heartbeat IPC: 2.40931 cumulative IPC: 2.50323 (Simulation time: 0 hr 13 min 59 sec) 
Heartbeat CPU 0 instructions: 33000001 cycles: 13193107 heartbeat IPC: 2.44139 cumulative IPC: 2.50131 (Simulation time: 0 hr 14 min 24 sec) 
Heartbeat CPU 0 instructions: 34000000 cycles: 13667298 heartbeat IPC: 2.10885 cumulative IPC: 2.48769 (Simulation time: 0 hr 14 min 49 sec) 
Heartbeat CPU 0 instructions: 35000000 cycles: 14006262 heartbeat IPC: 2.95017 cumulative IPC: 2.49888 (Simulation time: 0 hr 15 min 12 sec) 
Heartbeat CPU 0 instructions: 36000000 cycles: 14364551 heartbeat IPC: 2.79104 cumulative IPC: 2.50617 (Simulation time: 0 hr 15 min 37 sec) 
Heartbeat CPU 0 instructions: 37000001 cycles: 14780582 heartbeat IPC: 2.40367 cumulative IPC: 2.50328 (Simulation time: 0 hr 16 min 8 sec) 
Heartbeat CPU 0 instructions: 38000000 cycles: 15190178 heartbeat IPC: 2.44143 cumulative IPC: 2.50162 (Simulation time: 0 hr 16 min 36 sec) 
Heartbeat CPU 0 instructions: 39000002 cycles: 15665218 heartbeat IPC: 2.10509 cumulative IPC: 2.48959 (Simulation time: 0 hr 17 min 2 sec) 
Heartbeat CPU 0 instructions: 40000000 cycles: 16004198 heartbeat IPC: 2.95002 cumulative IPC: 2.49934 (Simulation time: 0 hr 17 min 26 sec) 
Heartbeat CPU 0 instructions: 41000003 cycles: 16361509 heartbeat IPC: 2.79869 cumulative IPC: 2.50588 (Simulation time: 0 hr 17 min 52 sec) 
Heartbeat CPU 0 instructions: 42000000 cycles: 16777600 heartbeat IPC: 2.40331 cumulative IPC: 2.50334 (Simulation time: 0 hr 18 min 20 sec) 
Heartbeat CPU 0 instructions: 43000001 cycles: 17188996 heartbeat IPC: 2.43075 cumulative IPC: 2.5016 (Simulation time: 0 hr 18 min 47 sec) 
Heartbeat CPU 0 instructions: 44000000 cycles: 17659733 heartbeat IPC: 2.12433 cumulative IPC: 2.49154 (Simulation time: 0 hr 19 min 13 sec) 
Heartbeat CPU 0 instructions: 45000001 cycles: 17998725 heartbeat IPC: 2.94993 cumulative IPC: 2.50018 (Simulation time: 0 hr 19 min 36 sec) 
Heartbeat CPU 0 instructions: 46000001 cycles: 18359065 heartbeat IPC: 2.77516 cumulative IPC: 2.50557 (Simulation time: 0 hr 20 min 1 sec) 
Heartbeat CPU 0 instructions: 47000003 cycles: 18773649 heartbeat IPC: 2.41206 cumulative IPC: 2.50351 (Simulation time: 0 hr 20 min 28 sec) 
Heartbeat CPU 0 instructions: 48000000 cycles: 19189436 heartbeat IPC: 2.40507 cumulative IPC: 2.50138 (Simulation time: 0 hr 20 min 54 sec) 
Heartbeat CPU 0 instructions: 49000001 cycles: 19647528 heartbeat IPC: 2.18297 cumulative IPC: 2.49395 (Simulation time: 0 hr 21 min 20 sec) 
Heartbeat CPU 0 instructions: 50000003 cycles: 19986481 heartbeat IPC: 2.95027 cumulative IPC: 2.50169 (Simulation time: 0 hr 21 min 42 sec) 

Warmup complete CPU 0 instructions: 50000003 cycles: 19986481 (Simulation time: 0 hr 21 min 42 sec) 

Heartbeat CPU 0 instructions: 51000003 cycles: 21104664 heartbeat IPC: 0.894308 cumulative IPC: 0.894308 (Simulation time: 0 hr 22 min 13 sec) 
Heartbeat CPU 0 instructions: 52000000 cycles: 22715851 heartbeat IPC: 0.620659 cumulative IPC: 0.732769 (Simulation time: 0 hr 22 min 44 sec) 
Heartbeat CPU 0 instructions: 53000000 cycles: 24613824 heartbeat IPC: 0.526878 cumulative IPC: 0.64832 (Simulation time: 0 hr 23 min 18 sec) 
Heartbeat CPU 0 instructions: 54000003 cycles: 25889352 heartbeat IPC: 0.783991 cumulative IPC: 0.677636 (Simulation time: 0 hr 23 min 49 sec) 
Heartbeat CPU 0 instructions: 55000003 cycles: 26829502 heartbeat IPC: 1.06366 cumulative IPC: 0.730671 (Simulation time: 0 hr 24 min 17 sec) 
Heartbeat CPU 0 instructions: 56000000 cycles: 27737585 heartbeat IPC: 1.10122 cumulative IPC: 0.774083 (Simulation time: 0 hr 24 min 48 sec) 
Heartbeat CPU 0 instructions: 57000002 cycles: 28956267 heartbeat IPC: 0.82056 cumulative IPC: 0.780398 (Simulation time: 0 hr 25 min 19 sec) 
Heartbeat CPU 0 instructions: 58000001 cycles: 29989304 heartbeat IPC: 0.968019 cumulative IPC: 0.799774 (Simulation time: 0 hr 25 min 47 sec) 
Heartbeat CPU 0 instructions: 59000003 cycles: 30882190 heartbeat IPC: 1.11997 cumulative IPC: 0.826013 (Simulation time: 0 hr 26 min 16 sec) 
Heartbeat CPU 0 instructions: 60000000 cycles: 31792060 heartbeat IPC: 1.09905 cumulative IPC: 0.847057 (Simulation time: 0 hr 26 min 43 sec) 
Heartbeat CPU 0 instructions: 61000001 cycles: 32995293 heartbeat IPC: 0.831095 cumulative IPC: 0.845581 (Simulation time: 0 hr 27 min 11 sec) 
Heartbeat CPU 0 instructions: 62000001 cycles: 33872391 heartbeat IPC: 1.14012 cumulative IPC: 0.864185 (Simulation time: 0 hr 27 min 38 sec) 
Heartbeat CPU 0 instructions: 63000003 cycles: 34733460 heartbeat IPC: 1.16135 cumulative IPC: 0.881536 (Simulation time: 0 hr 28 min 6 sec) 
Heartbeat CPU 0 instructions: 64000000 cycles: 36027775 heartbeat IPC: 0.772607 cumulative IPC: 0.872747 (Simulation time: 0 hr 28 min 35 sec) 
Heartbeat CPU 0 instructions: 65000003 cycles: 36911290 heartbeat IPC: 1.13185 cumulative IPC: 0.886273 (Simulation time: 0 hr 29 min 4 sec) 
Heartbeat CPU 0 instructions: 66000002 cycles: 37778477 heartbeat IPC: 1.15315 cumulative IPC: 0.899281 (Simulation time: 0 hr 29 min 33 sec) 
Heartbeat CPU 0 instructions: 67000000 cycles: 39071427 heartbeat IPC: 0.773424 cumulative IPC: 0.890754 (Simulation time: 0 hr 30 min 2 sec) 
Heartbeat CPU 0 instructions: 68000000 cycles: 40729229 heartbeat IPC: 0.603208 cumulative IPC: 0.867773 (Simulation time: 0 hr 30 min 31 sec) 
Heartbeat CPU 0 instructions: 69000003 cycles: 41599513 heartbeat IPC: 1.14905 cumulative IPC: 0.879099 (Simulation time: 0 hr 30 min 59 sec) 
Heartbeat CPU 0 instructions: 70000000 cycles: 42473615 heartbeat IPC: 1.14403 cumulative IPC: 0.889397 (Simulation time: 0 hr 31 min 25 sec) 
Heartbeat CPU 0 instructions: 71000000 cycles: 43604673 heartbeat IPC: 0.884128 cumulative IPC: 0.889145 (Simulation time: 0 hr 31 min 52 sec) 
Heartbeat CPU 0 instructions: 72000000 cycles: 45027897 heartbeat IPC: 0.70263 cumulative IPC: 0.878544 (Simulation time: 0 hr 32 min 23 sec) 
Heartbeat CPU 0 instructions: 73000000 cycles: 45897131 heartbeat IPC: 1.15044 cumulative IPC: 0.887666 (Simulation time: 0 hr 32 min 50 sec) 
Heartbeat CPU 0 instructions: 74000000 cycles: 46804715 heartbeat IPC: 1.10183 cumulative IPC: 0.894913 (Simulation time: 0 hr 33 min 17 sec) 
Heartbeat CPU 0 instructions: 75000000 cycles: 48037052 heartbeat IPC: 0.811466 cumulative IPC: 0.891247 (Simulation time: 0 hr 33 min 48 sec) 
Heartbeat CPU 0 instructions: 76000000 cycles: 49339928 heartbeat IPC: 0.767533 cumulative IPC: 0.885756 (Simulation time: 0 hr 34 min 17 sec) 
Heartbeat CPU 0 instructions: 77000003 cycles: 50258842 heartbeat IPC: 1.08824 cumulative IPC: 0.891903 (Simulation time: 0 hr 34 min 46 sec) 
Heartbeat CPU 0 instructions: 78000003 cycles: 50989035 heartbeat IPC: 1.3695 cumulative IPC: 0.903151 (Simulation time: 0 hr 35 min 15 sec) 
Heartbeat CPU 0 instructions: 79000001 cycles: 52309090 heartbeat IPC: 0.757543 cumulative IPC: 0.897205 (Simulation time: 0 hr 35 min 46 sec) 
Heartbeat CPU 0 instructions: 80000000 cycles: 53458201 heartbeat IPC: 0.870237 cumulative IPC: 0.896279 (Simulation time: 0 hr 36 min 12 sec) 
Heartbeat CPU 0 instructions: 81000000 cycles: 54333474 heartbeat IPC: 1.1425 cumulative IPC: 0.902553 (Simulation time: 0 hr 36 min 40 sec) 
Heartbeat CPU 0 instructions: 82000000 cycles: 55123788 heartbeat IPC: 1.26532 cumulative IPC: 0.910713 (Simulation time: 0 hr 37 min 7 sec) 
Heartbeat CPU 0 instructions: 83000000 cycles: 56553435 heartbeat IPC: 0.699473 cumulative IPC: 0.902454 (Simulation time: 0 hr 37 min 37 sec) 
Heartbeat CPU 0 instructions: 84000000 cycles: 57470409 heartbeat IPC: 1.09054 cumulative IPC: 0.907055 (Simulation time: 0 hr 38 min 6 sec) 
Heartbeat CPU 0 instructions: 85000001 cycles: 58295635 heartbeat IPC: 1.21179 cumulative IPC: 0.91362 (Simulation time: 0 hr 38 min 35 sec) 
Heartbeat CPU 0 instructions: 86000001 cycles: 59279762 heartbeat IPC: 1.01613 cumulative IPC: 0.916187 (Simulation time: 0 hr 39 min 0 sec) 
Heartbeat CPU 0 instructions: 87000000 cycles: 60444456 heartbeat IPC: 0.858594 cumulative IPC: 0.914529 (Simulation time: 0 hr 39 min 29 sec) 
Heartbeat CPU 0 instructions: 88000000 cycles: 61313654 heartbeat IPC: 1.15049 cumulative IPC: 0.919492 (Simulation time: 0 hr 39 min 58 sec) 
Heartbeat CPU 0 instructions: 89000000 cycles: 62144108 heartbeat IPC: 1.20416 cumulative IPC: 0.925099 (Simulation time: 0 hr 40 min 25 sec) 
Heartbeat CPU 0 instructions: 90000000 cycles: 63502778 heartbeat IPC: 0.736014 cumulative IPC: 0.919196 (Simulation time: 0 hr 40 min 53 sec) 
Heartbeat CPU 0 instructions: 91000003 cycles: 64756563 heartbeat IPC: 0.797587 cumulative IPC: 0.91579 (Simulation time: 0 hr 41 min 22 sec) 
Heartbeat CPU 0 instructions: 92000000 cycles: 65723053 heartbeat IPC: 1.03467 cumulative IPC: 0.918302 (Simulation time: 0 hr 41 min 49 sec) 
Heartbeat CPU 0 instructions: 93000000 cycles: 66529250 heartbeat IPC: 1.24039 cumulative IPC: 0.923881 (Simulation time: 0 hr 42 min 14 sec) 
Heartbeat CPU 0 instructions: 94000002 cycles: 67270822 heartbeat IPC: 1.34849 cumulative IPC: 0.930541 (Simulation time: 0 hr 42 min 39 sec) 
Heartbeat CPU 0 instructions: 95000001 cycles: 68667662 heartbeat IPC: 0.715901 cumulative IPC: 0.924382 (Simulation time: 0 hr 43 min 9 sec) 
Heartbeat CPU 0 instructions: 96000000 cycles: 69530328 heartbeat IPC: 1.1592 cumulative IPC: 0.92847 (Simulation time: 0 hr 43 min 37 sec) 
Heartbeat CPU 0 instructions: 97000000 cycles: 70308721 heartbeat IPC: 1.2847 cumulative IPC: 0.933981 (Simulation time: 0 hr 44 min 3 sec) 
Heartbeat CPU 0 instructions: 98000003 cycles: 71477176 heartbeat IPC: 0.855834 cumulative IPC: 0.932207 (Simulation time: 0 hr 44 min 33 sec) 
Heartbeat CPU 0 instructions: 99000000 cycles: 72557842 heartbeat IPC: 0.925353 cumulative IPC: 0.932066 (Simulation time: 0 hr 45 min 2 sec) 
Heartbeat CPU 0 instructions: 100000000 cycles: 73404654 heartbeat IPC: 1.1809 cumulative IPC: 0.936011 (Simulation time: 0 hr 45 min 29 sec) 
Heartbeat CPU 0 instructions: 101000000 cycles: 74136334 heartbeat IPC: 1.36672 cumulative IPC: 0.941831 (Simulation time: 0 hr 45 min 59 sec) 
Heartbeat CPU 0 instructions: 102000003 cycles: 75590396 heartbeat IPC: 0.687731 cumulative IPC: 0.935186 (Simulation time: 0 hr 46 min 28 sec) 
Heartbeat CPU 0 instructions: 103000001 cycles: 76539411 heartbeat IPC: 1.05372 cumulative IPC: 0.937175 (Simulation time: 0 hr 46 min 53 sec) 
Heartbeat CPU 0 instructions: 104000000 cycles: 77367272 heartbeat IPC: 1.20793 cumulative IPC: 0.941081 (Simulation time: 0 hr 47 min 24 sec) 
Heartbeat CPU 0 instructions: 105000002 cycles: 78449188 heartbeat IPC: 0.924288 cumulative IPC: 0.940771 (Simulation time: 0 hr 47 min 54 sec) 
Heartbeat CPU 0 instructions: 106000003 cycles: 79972704 heartbeat IPC: 0.656377 cumulative IPC: 0.933548 (Simulation time: 0 hr 48 min 25 sec) 
Heartbeat CPU 0 instructions: 107000001 cycles: 80863921 heartbeat IPC: 1.12206 cumulative IPC: 0.936307 (Simulation time: 0 hr 48 min 53 sec) 
Heartbeat CPU 0 instructions: 108000000 cycles: 81637415 heartbeat IPC: 1.29283 cumulative IPC: 0.940781 (Simulation time: 0 hr 49 min 20 sec) 
Heartbeat CPU 0 instructions: 109000001 cycles: 82737548 heartbeat IPC: 0.908982 cumulative IPC: 0.940223 (Simulation time: 0 hr 49 min 48 sec) 
Heartbeat CPU 0 instructions: 110000000 cycles: 84118225 heartbeat IPC: 0.724282 cumulative IPC: 0.935574 (Simulation time: 0 hr 50 min 16 sec) 
Heartbeat CPU 0 instructions: 111000003 cycles: 84986297 heartbeat IPC: 1.15198 cumulative IPC: 0.938464 (Simulation time: 0 hr 50 min 42 sec) 
Heartbeat CPU 0 instructions: 112000000 cycles: 85772066 heartbeat IPC: 1.27263 cumulative IPC: 0.942456 (Simulation time: 0 hr 51 min 11 sec) 
Heartbeat CPU 0 instructions: 113000002 cycles: 86974745 heartbeat IPC: 0.831479 cumulative IPC: 0.940463 (Simulation time: 0 hr 51 min 43 sec) 
Heartbeat CPU 0 instructions: 114000001 cycles: 88183052 heartbeat IPC: 0.827603 cumulative IPC: 0.938464 (Simulation time: 0 hr 52 min 10 sec) 
Heartbeat CPU 0 instructions: 115000002 cycles: 89050108 heartbeat IPC: 1.15333 cumulative IPC: 0.941161 (Simulation time: 0 hr 52 min 38 sec) 
Heartbeat CPU 0 instructions: 116000000 cycles: 89833522 heartbeat IPC: 1.27646 cumulative IPC: 0.944922 (Simulation time: 0 hr 53 min 7 sec) 
Heartbeat CPU 0 instructions: 117000002 cycles: 91190867 heartbeat IPC: 0.736734 cumulative IPC: 0.940953 (Simulation time: 0 hr 53 min 36 sec) 
Heartbeat CPU 0 instructions: 118000002 cycles: 92176237 heartbeat IPC: 1.01485 cumulative IPC: 0.941962 (Simulation time: 0 hr 54 min 8 sec) 
Heartbeat CPU 0 instructions: 119000001 cycles: 93024009 heartbeat IPC: 1.17956 cumulative IPC: 0.94472 (Simulation time: 0 hr 54 min 38 sec) 
Heartbeat CPU 0 instructions: 120000000 cycles: 93951086 heartbeat IPC: 1.07866 cumulative IPC: 0.946399 (Simulation time: 0 hr 55 min 8 sec) 
Heartbeat CPU 0 instructions: 121000000 cycles: 95394976 heartbeat IPC: 0.692574 cumulative IPC: 0.941538 (Simulation time: 0 hr 55 min 38 sec) 
Heartbeat CPU 0 instructions: 122000003 cycles: 96282665 heartbeat IPC: 1.12652 cumulative IPC: 0.943691 (Simulation time: 0 hr 56 min 8 sec) 
Heartbeat CPU 0 instructions: 123000001 cycles: 97128401 heartbeat IPC: 1.1824 cumulative IPC: 0.946308 (Simulation time: 0 hr 56 min 35 sec) 
Heartbeat CPU 0 instructions: 124000000 cycles: 98247089 heartbeat IPC: 0.893903 cumulative IPC: 0.945559 (Simulation time: 0 hr 57 min 2 sec) 
Heartbeat CPU 0 instructions: 125000003 cycles: 99570930 heartbeat IPC: 0.75538 cumulative IPC: 0.942395 (Simulation time: 0 hr 57 min 29 sec) 
Heartbeat CPU 0 instructions: 126000001 cycles: 100452214 heartbeat IPC: 1.13471 cumulative IPC: 0.944501 (Simulation time: 0 hr 57 min 55 sec) 
Heartbeat CPU 0 instructions: 127000000 cycles: 101314482 heartbeat IPC: 1.15973 cumulative IPC: 0.946783 (Simulation time: 0 hr 58 min 21 sec) 
Heartbeat CPU 0 instructions: 128000000 cycles: 102646260 heartbeat IPC: 0.750876 cumulative IPC: 0.943627 (Simulation time: 0 hr 58 min 55 sec) 
Heartbeat CPU 0 instructions: 129000002 cycles: 104037689 heartbeat IPC: 0.718687 cumulative IPC: 0.939903 (Simulation time: 0 hr 59 min 23 sec) 
Heartbeat CPU 0 instructions: 130000002 cycles: 104948929 heartbeat IPC: 1.09741 cumulative IPC: 0.941592 (Simulation time: 0 hr 59 min 50 sec) 
Heartbeat CPU 0 instructions: 131000001 cycles: 105739372 heartbeat IPC: 1.26511 cumulative IPC: 0.944575 (Simulation time: 1 hr 0 min 19 sec) 
Heartbeat CPU 0 instructions: 132000000 cycles: 107011642 heartbeat IPC: 0.785996 cumulative IPC: 0.942256 (Simulation time: 1 hr 0 min 52 sec) 
Heartbeat CPU 0 instructions: 133000001 cycles: 108420528 heartbeat IPC: 0.709781 cumulative IPC: 0.938552 (Simulation time: 1 hr 1 min 20 sec) 
Heartbeat CPU 0 instructions: 134000002 cycles: 109301733 heartbeat IPC: 1.13481 cumulative IPC: 0.940489 (Simulation time: 1 hr 1 min 47 sec) 
Heartbeat CPU 0 instructions: 135000001 cycles: 110133876 heartbeat IPC: 1.20172 cumulative IPC: 0.9429 (Simulation time: 1 hr 2 min 13 sec) 
Heartbeat CPU 0 instructions: 136000000 cycles: 111384442 heartbeat IPC: 0.799637 cumulative IPC: 0.94094 (Simulation time: 1 hr 2 min 43 sec) 
Heartbeat CPU 0 instructions: 137000001 cycles: 112719560 heartbeat IPC: 0.748998 cumulative IPC: 0.938177 (Simulation time: 1 hr 3 min 13 sec) 
Heartbeat CPU 0 instructions: 138000002 cycles: 113616431 heartbeat IPC: 1.11499 cumulative IPC: 0.93987 (Simulation time: 1 hr 3 min 41 sec) 
Heartbeat CPU 0 instructions: 139000002 cycles: 114451178 heartbeat IPC: 1.19797 cumulative IPC: 0.942151 (Simulation time: 1 hr 4 min 10 sec) 
Heartbeat CPU 0 instructions: 140000000 cycles: 115741193 heartbeat IPC: 0.775183 cumulative IPC: 0.939901 (Simulation time: 1 hr 4 min 38 sec) 
Heartbeat CPU 0 instructions: 141000000 cycles: 117226032 heartbeat IPC: 0.673474 cumulative IPC: 0.935833 (Simulation time: 1 hr 5 min 6 sec) 
Heartbeat CPU 0 instructions: 142000002 cycles: 118360517 heartbeat IPC: 0.881459 cumulative IPC: 0.935206 (Simulation time: 1 hr 5 min 36 sec) 
Heartbeat CPU 0 instructions: 143000003 cycles: 119218724 heartbeat IPC: 1.16522 cumulative IPC: 0.937195 (Simulation time: 1 hr 6 min 3 sec) 
Heartbeat CPU 0 instructions: 144000000 cycles: 120068763 heartbeat IPC: 1.17641 cumulative IPC: 0.939227 (Simulation time: 1 hr 6 min 28 sec) 
Heartbeat CPU 0 instructions: 145000000 cycles: 121208099 heartbeat IPC: 0.877704 cumulative IPC: 0.938535 (Simulation time: 1 hr 6 min 56 sec) 
Heartbeat CPU 0 instructions: 146000001 cycles: 122656872 heartbeat IPC: 0.69024 cumulative IPC: 0.935031 (Simulation time: 1 hr 7 min 26 sec) 
Heartbeat CPU 0 instructions: 147000002 cycles: 123528132 heartbeat IPC: 1.14776 cumulative IPC: 0.936821 (Simulation time: 1 hr 7 min 52 sec) 
Heartbeat CPU 0 instructions: 148000000 cycles: 124382937 heartbeat IPC: 1.16986 cumulative IPC: 0.938729 (Simulation time: 1 hr 8 min 17 sec) 
Heartbeat CPU 0 instructions: 149000001 cycles: 125536715 heartbeat IPC: 0.866719 cumulative IPC: 0.937942 (Simulation time: 1 hr 8 min 47 sec) 
Heartbeat CPU 0 instructions: 150000000 cycles: 126865560 heartbeat IPC: 0.752532 cumulative IPC: 0.935637 (Simulation time: 1 hr 9 min 13 sec) 
Finished CPU 0 instructions: 100000001 cycles: 106879080 cummulative IPC: 0.935637 (Simulation time: 1 hr 9 min 13 sec) 

ChampSim completed all CPUs

Region of Interest Statistics

CPU 0 cummulative IPC: 0.935637 instructions: 100000001 cycles: 106879080
LLC TOTAL     ACCESS:    1706348  HIT:     732880  MISS:     973468
LLC LOAD      ACCESS:     272100  HIT:     209848  MISS:      62252
LLC RFO       ACCESS:     107607  HIT:      89755  MISS:      17852
LLC PREFETCH  ACCESS:    1187059  HIT:     295469  MISS:     891590
LLC WRITEBACK ACCESS:     139582  HIT:     137808  MISS:       1774
OPTgen accesses: 9260
OPTgen hits: 8582
OPTgen hit rate: 92.6782


