
*** ChampSim Multicore Out-of-Order Simulator ***

Warmup Instructions: 50000000
Simulation Instructions: 100000000
Configuration: 2
Number of CPUs: 1
LLC sets: 2048
LLC ways: 16
Off-chip DRAM Channels: 1 Width: 64-bit Data Rate: 1600 MT/s

CPU 0 runs /datasets/cs240c-wi22-a00-public/data/Assignment2-gz/gcc_56B.trace.gz
CPU 0 L1D next line prefetcher
CPU 0 L2C IP-based stride prefetcher
Initialize Hawkeye state
Heartbeat CPU 0 instructions: 1000003 cycles: 954151 heartbeat IPC: 1.04806 cumulative IPC: 1.04806 (Simulation time: 0 hr 0 min 39 sec) 
Heartbeat CPU 0 instructions: 2000001 cycles: 1898349 heartbeat IPC: 1.0591 cumulative IPC: 1.05355 (Simulation time: 0 hr 1 min 21 sec) 
Heartbeat CPU 0 instructions: 3000001 cycles: 2885593 heartbeat IPC: 1.01292 cumulative IPC: 1.03965 (Simulation time: 0 hr 2 min 5 sec) 
Heartbeat CPU 0 instructions: 4000000 cycles: 3848221 heartbeat IPC: 1.03882 cumulative IPC: 1.03944 (Simulation time: 0 hr 2 min 44 sec) 
Heartbeat CPU 0 instructions: 5000002 cycles: 4737701 heartbeat IPC: 1.12425 cumulative IPC: 1.05536 (Simulation time: 0 hr 3 min 25 sec) 
Heartbeat CPU 0 instructions: 6000000 cycles: 5685656 heartbeat IPC: 1.0549 cumulative IPC: 1.05529 (Simulation time: 0 hr 4 min 6 sec) 
Heartbeat CPU 0 instructions: 7000000 cycles: 6649890 heartbeat IPC: 1.03709 cumulative IPC: 1.05265 (Simulation time: 0 hr 4 min 46 sec) 
Heartbeat CPU 0 instructions: 8000000 cycles: 7611113 heartbeat IPC: 1.04034 cumulative IPC: 1.05109 (Simulation time: 0 hr 5 min 26 sec) 
Heartbeat CPU 0 instructions: 9000000 cycles: 8622586 heartbeat IPC: 0.988657 cumulative IPC: 1.04377 (Simulation time: 0 hr 6 min 10 sec) 
Heartbeat CPU 0 instructions: 10000002 cycles: 9583097 heartbeat IPC: 1.04111 cumulative IPC: 1.0435 (Simulation time: 0 hr 6 min 49 sec) 
Heartbeat CPU 0 instructions: 11000002 cycles: 10472393 heartbeat IPC: 1.12449 cumulative IPC: 1.05038 (Simulation time: 0 hr 7 min 29 sec) 
Heartbeat CPU 0 instructions: 12000000 cycles: 11357924 heartbeat IPC: 1.12926 cumulative IPC: 1.05653 (Simulation time: 0 hr 8 min 6 sec) 
Heartbeat CPU 0 instructions: 13000001 cycles: 12297171 heartbeat IPC: 1.06468 cumulative IPC: 1.05715 (Simulation time: 0 hr 8 min 46 sec) 
Heartbeat CPU 0 instructions: 14000000 cycles: 13290642 heartbeat IPC: 1.00657 cumulative IPC: 1.05337 (Simulation time: 0 hr 9 min 27 sec) 
Heartbeat CPU 0 instructions: 15000003 cycles: 14246129 heartbeat IPC: 1.04659 cumulative IPC: 1.05292 (Simulation time: 0 hr 10 min 6 sec) 
Heartbeat CPU 0 instructions: 16000000 cycles: 15246171 heartbeat IPC: 0.999955 cumulative IPC: 1.04944 (Simulation time: 0 hr 10 min 47 sec) 
Heartbeat CPU 0 instructions: 17000001 cycles: 16221154 heartbeat IPC: 1.02566 cumulative IPC: 1.04801 (Simulation time: 0 hr 11 min 23 sec) 
Heartbeat CPU 0 instructions: 18000000 cycles: 17121983 heartbeat IPC: 1.11009 cumulative IPC: 1.05128 (Simulation time: 0 hr 11 min 59 sec) 
Heartbeat CPU 0 instructions: 19000000 cycles: 18045877 heartbeat IPC: 1.08238 cumulative IPC: 1.05287 (Simulation time: 0 hr 12 min 36 sec) 
Heartbeat CPU 0 instructions: 20000000 cycles: 18990386 heartbeat IPC: 1.05875 cumulative IPC: 1.05316 (Simulation time: 0 hr 13 min 12 sec) 
Heartbeat CPU 0 instructions: 21000000 cycles: 19947017 heartbeat IPC: 1.04534 cumulative IPC: 1.05279 (Simulation time: 0 hr 13 min 50 sec) 
Heartbeat CPU 0 instructions: 22000000 cycles: 20939401 heartbeat IPC: 1.00767 cumulative IPC: 1.05065 (Simulation time: 0 hr 14 min 30 sec) 
Heartbeat CPU 0 instructions: 23000000 cycles: 21860051 heartbeat IPC: 1.08619 cumulative IPC: 1.05215 (Simulation time: 0 hr 15 min 6 sec) 
Heartbeat CPU 0 instructions: 24000000 cycles: 22777462 heartbeat IPC: 1.09002 cumulative IPC: 1.05367 (Simulation time: 0 hr 15 min 43 sec) 
Heartbeat CPU 0 instructions: 25000000 cycles: 23713194 heartbeat IPC: 1.06868 cumulative IPC: 1.05427 (Simulation time: 0 hr 16 min 22 sec) 
Heartbeat CPU 0 instructions: 26000002 cycles: 24633681 heartbeat IPC: 1.08638 cumulative IPC: 1.05547 (Simulation time: 0 hr 17 min 0 sec) 
Heartbeat CPU 0 instructions: 27000000 cycles: 25585993 heartbeat IPC: 1.05007 cumulative IPC: 1.05526 (Simulation time: 0 hr 17 min 40 sec) 
Heartbeat CPU 0 instructions: 28000000 cycles: 26583765 heartbeat IPC: 1.00223 cumulative IPC: 1.05327 (Simulation time: 0 hr 18 min 21 sec) 
Heartbeat CPU 0 instructions: 29000000 cycles: 27583171 heartbeat IPC: 1.00059 cumulative IPC: 1.05137 (Simulation time: 0 hr 19 min 4 sec) 
Heartbeat CPU 0 instructions: 30000000 cycles: 28562056 heartbeat IPC: 1.02157 cumulative IPC: 1.05034 (Simulation time: 0 hr 19 min 49 sec) 
Heartbeat CPU 0 instructions: 31000000 cycles: 29476450 heartbeat IPC: 1.09362 cumulative IPC: 1.05169 (Simulation time: 0 hr 20 min 34 sec) 
Heartbeat CPU 0 instructions: 32000000 cycles: 30387154 heartbeat IPC: 1.09805 cumulative IPC: 1.05308 (Simulation time: 0 hr 21 min 14 sec) 
Heartbeat CPU 0 instructions: 33000002 cycles: 31312871 heartbeat IPC: 1.08025 cumulative IPC: 1.05388 (Simulation time: 0 hr 21 min 57 sec) 
Heartbeat CPU 0 instructions: 34000002 cycles: 32279383 heartbeat IPC: 1.03465 cumulative IPC: 1.0533 (Simulation time: 0 hr 22 min 35 sec) 
Heartbeat CPU 0 instructions: 35000002 cycles: 33244047 heartbeat IPC: 1.03663 cumulative IPC: 1.05282 (Simulation time: 0 hr 23 min 15 sec) 
Heartbeat CPU 0 instructions: 36000000 cycles: 34239319 heartbeat IPC: 1.00475 cumulative IPC: 1.05142 (Simulation time: 0 hr 23 min 53 sec) 
Heartbeat CPU 0 instructions: 37000000 cycles: 35205864 heartbeat IPC: 1.03461 cumulative IPC: 1.05096 (Simulation time: 0 hr 24 min 30 sec) 
Heartbeat CPU 0 instructions: 38000002 cycles: 36155156 heartbeat IPC: 1.05342 cumulative IPC: 1.05103 (Simulation time: 0 hr 25 min 9 sec) 
Heartbeat CPU 0 instructions: 39000000 cycles: 37066136 heartbeat IPC: 1.09772 cumulative IPC: 1.05217 (Simulation time: 0 hr 25 min 48 sec) 
Heartbeat CPU 0 instructions: 40000000 cycles: 38010457 heartbeat IPC: 1.05896 cumulative IPC: 1.05234 (Simulation time: 0 hr 26 min 26 sec) 
Heartbeat CPU 0 instructions: 41000001 cycles: 38985289 heartbeat IPC: 1.02582 cumulative IPC: 1.05168 (Simulation time: 0 hr 27 min 4 sec) 
Heartbeat CPU 0 instructions: 42000003 cycles: 39974542 heartbeat IPC: 1.01087 cumulative IPC: 1.05067 (Simulation time: 0 hr 27 min 45 sec) 
Heartbeat CPU 0 instructions: 43000001 cycles: 40938702 heartbeat IPC: 1.03717 cumulative IPC: 1.05035 (Simulation time: 0 hr 28 min 24 sec) 
Heartbeat CPU 0 instructions: 44000000 cycles: 41869464 heartbeat IPC: 1.07439 cumulative IPC: 1.05089 (Simulation time: 0 hr 29 min 4 sec) 
Heartbeat CPU 0 instructions: 45000000 cycles: 42778763 heartbeat IPC: 1.09975 cumulative IPC: 1.05192 (Simulation time: 0 hr 29 min 42 sec) 
Heartbeat CPU 0 instructions: 46000001 cycles: 43731183 heartbeat IPC: 1.04996 cumulative IPC: 1.05188 (Simulation time: 0 hr 30 min 20 sec) 
Heartbeat CPU 0 instructions: 47000001 cycles: 44686065 heartbeat IPC: 1.04725 cumulative IPC: 1.05178 (Simulation time: 0 hr 30 min 57 sec) 
Heartbeat CPU 0 instructions: 48000000 cycles: 45666145 heartbeat IPC: 1.02032 cumulative IPC: 1.05111 (Simulation time: 0 hr 31 min 36 sec) 
Heartbeat CPU 0 instructions: 49000002 cycles: 46667605 heartbeat IPC: 0.998544 cumulative IPC: 1.04998 (Simulation time: 0 hr 32 min 18 sec) 
Heartbeat CPU 0 instructions: 50000000 cycles: 47652570 heartbeat IPC: 1.01526 cumulative IPC: 1.04926 (Simulation time: 0 hr 32 min 59 sec) 

Warmup complete CPU 0 instructions: 50000001 cycles: 47652572 (Simulation time: 0 hr 32 min 59 sec) 

Heartbeat CPU 0 instructions: 51000000 cycles: 49005369 heartbeat IPC: 0.739208 cumulative IPC: 0.739208 (Simulation time: 0 hr 33 min 40 sec) 
Heartbeat CPU 0 instructions: 52000000 cycles: 50396235 heartbeat IPC: 0.718976 cumulative IPC: 0.728952 (Simulation time: 0 hr 34 min 29 sec) 
Heartbeat CPU 0 instructions: 53000001 cycles: 51732944 heartbeat IPC: 0.748107 cumulative IPC: 0.735227 (Simulation time: 0 hr 35 min 11 sec) 
Heartbeat CPU 0 instructions: 54000000 cycles: 53048523 heartbeat IPC: 0.760121 cumulative IPC: 0.741296 (Simulation time: 0 hr 35 min 51 sec) 
Heartbeat CPU 0 instructions: 55000001 cycles: 54353992 heartbeat IPC: 0.766009 cumulative IPC: 0.74611 (Simulation time: 0 hr 36 min 31 sec) 
Heartbeat CPU 0 instructions: 56000000 cycles: 55678002 heartbeat IPC: 0.755281 cumulative IPC: 0.747623 (Simulation time: 0 hr 37 min 6 sec) 
Heartbeat CPU 0 instructions: 57000001 cycles: 57011022 heartbeat IPC: 0.750177 cumulative IPC: 0.747987 (Simulation time: 0 hr 37 min 45 sec) 
Heartbeat CPU 0 instructions: 58000000 cycles: 58384695 heartbeat IPC: 0.727975 cumulative IPC: 0.745426 (Simulation time: 0 hr 38 min 22 sec) 
Heartbeat CPU 0 instructions: 59000000 cycles: 59777398 heartbeat IPC: 0.718028 cumulative IPC: 0.742279 (Simulation time: 0 hr 38 min 59 sec) 
Heartbeat CPU 0 instructions: 60000000 cycles: 61152954 heartbeat IPC: 0.726979 cumulative IPC: 0.74072 (Simulation time: 0 hr 39 min 41 sec) 
Heartbeat CPU 0 instructions: 61000000 cycles: 62483046 heartbeat IPC: 0.751828 cumulative IPC: 0.741716 (Simulation time: 0 hr 40 min 26 sec) 
Heartbeat CPU 0 instructions: 62000002 cycles: 63843674 heartbeat IPC: 0.734956 cumulative IPC: 0.741148 (Simulation time: 0 hr 41 min 6 sec) 
Heartbeat CPU 0 instructions: 63000003 cycles: 65159099 heartbeat IPC: 0.760211 cumulative IPC: 0.74258 (Simulation time: 0 hr 41 min 42 sec) 
Heartbeat CPU 0 instructions: 64000000 cycles: 66477448 heartbeat IPC: 0.758522 cumulative IPC: 0.743697 (Simulation time: 0 hr 42 min 21 sec) 
Heartbeat CPU 0 instructions: 65000000 cycles: 67818886 heartbeat IPC: 0.745469 cumulative IPC: 0.743815 (Simulation time: 0 hr 43 min 1 sec) 
Heartbeat CPU 0 instructions: 66000002 cycles: 69207296 heartbeat IPC: 0.72025 cumulative IPC: 0.742297 (Simulation time: 0 hr 43 min 41 sec) 
Heartbeat CPU 0 instructions: 67000002 cycles: 70594515 heartbeat IPC: 0.720867 cumulative IPC: 0.741001 (Simulation time: 0 hr 44 min 18 sec) 
Heartbeat CPU 0 instructions: 68000000 cycles: 71944782 heartbeat IPC: 0.740593 cumulative IPC: 0.740978 (Simulation time: 0 hr 44 min 57 sec) 
Heartbeat CPU 0 instructions: 69000000 cycles: 73273031 heartbeat IPC: 0.752871 cumulative IPC: 0.741595 (Simulation time: 0 hr 45 min 35 sec) 
Heartbeat CPU 0 instructions: 70000000 cycles: 74598914 heartbeat IPC: 0.754214 cumulative IPC: 0.742216 (Simulation time: 0 hr 46 min 13 sec) 
Heartbeat CPU 0 instructions: 71000003 cycles: 75940323 heartbeat IPC: 0.745487 cumulative IPC: 0.742371 (Simulation time: 0 hr 46 min 59 sec) 
Heartbeat CPU 0 instructions: 72000000 cycles: 77276388 heartbeat IPC: 0.748464 cumulative IPC: 0.742646 (Simulation time: 0 hr 47 min 41 sec) 
Heartbeat CPU 0 instructions: 73000003 cycles: 78641860 heartbeat IPC: 0.73235 cumulative IPC: 0.742192 (Simulation time: 0 hr 48 min 18 sec) 
Heartbeat CPU 0 instructions: 74000001 cycles: 80039931 heartbeat IPC: 0.71527 cumulative IPC: 0.74103 (Simulation time: 0 hr 49 min 0 sec) 
Heartbeat CPU 0 instructions: 75000003 cycles: 81412807 heartbeat IPC: 0.728399 cumulative IPC: 0.740516 (Simulation time: 0 hr 49 min 45 sec) 
Heartbeat CPU 0 instructions: 76000000 cycles: 82754186 heartbeat IPC: 0.745499 cumulative IPC: 0.740707 (Simulation time: 0 hr 50 min 26 sec) 
Heartbeat CPU 0 instructions: 77000003 cycles: 84087567 heartbeat IPC: 0.749975 cumulative IPC: 0.741046 (Simulation time: 0 hr 51 min 10 sec) 
Heartbeat CPU 0 instructions: 78000001 cycles: 85418578 heartbeat IPC: 0.751307 cumulative IPC: 0.741408 (Simulation time: 0 hr 51 min 48 sec) 
Heartbeat CPU 0 instructions: 79000000 cycles: 86774282 heartbeat IPC: 0.737623 cumulative IPC: 0.741276 (Simulation time: 0 hr 52 min 23 sec) 
Heartbeat CPU 0 instructions: 80000000 cycles: 88119936 heartbeat IPC: 0.743133 cumulative IPC: 0.741338 (Simulation time: 0 hr 53 min 6 sec) 
Heartbeat CPU 0 instructions: 81000002 cycles: 89496512 heartbeat IPC: 0.726442 cumulative IPC: 0.740848 (Simulation time: 0 hr 53 min 46 sec) 
Heartbeat CPU 0 instructions: 82000000 cycles: 90866179 heartbeat IPC: 0.730103 cumulative IPC: 0.740507 (Simulation time: 0 hr 54 min 26 sec) 
Heartbeat CPU 0 instructions: 83000003 cycles: 92197550 heartbeat IPC: 0.751108 cumulative IPC: 0.740824 (Simulation time: 0 hr 55 min 6 sec) 
Heartbeat CPU 0 instructions: 84000000 cycles: 93538874 heartbeat IPC: 0.74553 cumulative IPC: 0.740962 (Simulation time: 0 hr 55 min 46 sec) 
Heartbeat CPU 0 instructions: 85000002 cycles: 94852053 heartbeat IPC: 0.761512 cumulative IPC: 0.741534 (Simulation time: 0 hr 56 min 25 sec) 
Heartbeat CPU 0 instructions: 86000003 cycles: 96154648 heartbeat IPC: 0.767699 cumulative IPC: 0.742236 (Simulation time: 0 hr 57 min 1 sec) 
Heartbeat CPU 0 instructions: 87000000 cycles: 97534429 heartbeat IPC: 0.724751 cumulative IPC: 0.741753 (Simulation time: 0 hr 57 min 38 sec) 
Heartbeat CPU 0 instructions: 88000000 cycles: 98884854 heartbeat IPC: 0.740508 cumulative IPC: 0.74172 (Simulation time: 0 hr 58 min 15 sec) 
Heartbeat CPU 0 instructions: 89000000 cycles: 100243493 heartbeat IPC: 0.736031 cumulative IPC: 0.741573 (Simulation time: 0 hr 58 min 56 sec) 
Heartbeat CPU 0 instructions: 90000000 cycles: 101560826 heartbeat IPC: 0.759109 cumulative IPC: 0.742001 (Simulation time: 0 hr 59 min 34 sec) 
Heartbeat CPU 0 instructions: 91000001 cycles: 102867774 heartbeat IPC: 0.765142 cumulative IPC: 0.742549 (Simulation time: 1 hr 0 min 13 sec) 
Heartbeat CPU 0 instructions: 92000000 cycles: 104185869 heartbeat IPC: 0.75867 cumulative IPC: 0.742925 (Simulation time: 1 hr 0 min 54 sec) 
Heartbeat CPU 0 instructions: 93000003 cycles: 105568149 heartbeat IPC: 0.723445 cumulative IPC: 0.74246 (Simulation time: 1 hr 1 min 35 sec) 
Heartbeat CPU 0 instructions: 94000000 cycles: 106910342 heartbeat IPC: 0.745047 cumulative IPC: 0.742519 (Simulation time: 1 hr 2 min 12 sec) 
Heartbeat CPU 0 instructions: 95000000 cycles: 108261756 heartbeat IPC: 0.739966 cumulative IPC: 0.742462 (Simulation time: 1 hr 2 min 51 sec) 
Heartbeat CPU 0 instructions: 96000000 cycles: 109593745 heartbeat IPC: 0.750757 cumulative IPC: 0.74264 (Simulation time: 1 hr 3 min 31 sec) 
Heartbeat CPU 0 instructions: 97000000 cycles: 110904802 heartbeat IPC: 0.762743 cumulative IPC: 0.743057 (Simulation time: 1 hr 4 min 11 sec) 
Heartbeat CPU 0 instructions: 98000003 cycles: 112213606 heartbeat IPC: 0.764059 cumulative IPC: 0.743483 (Simulation time: 1 hr 4 min 47 sec) 
Heartbeat CPU 0 instructions: 99000000 cycles: 113601693 heartbeat IPC: 0.720414 cumulative IPC: 0.742997 (Simulation time: 1 hr 5 min 22 sec) 
Heartbeat CPU 0 instructions: 100000000 cycles: 114943717 heartbeat IPC: 0.745143 cumulative IPC: 0.74304 (Simulation time: 1 hr 5 min 57 sec) 
Heartbeat CPU 0 instructions: 101000000 cycles: 116291247 heartbeat IPC: 0.742099 cumulative IPC: 0.743021 (Simulation time: 1 hr 6 min 32 sec) 
Heartbeat CPU 0 instructions: 102000001 cycles: 117605440 heartbeat IPC: 0.760924 cumulative IPC: 0.743358 (Simulation time: 1 hr 7 min 14 sec) 
Heartbeat CPU 0 instructions: 103000001 cycles: 118908458 heartbeat IPC: 0.767449 cumulative IPC: 0.743798 (Simulation time: 1 hr 7 min 49 sec) 
Heartbeat CPU 0 instructions: 104000000 cycles: 120211526 heartbeat IPC: 0.767419 cumulative IPC: 0.744222 (Simulation time: 1 hr 8 min 27 sec) 
Heartbeat CPU 0 instructions: 105000002 cycles: 121589371 heartbeat IPC: 0.725773 cumulative IPC: 0.743879 (Simulation time: 1 hr 9 min 6 sec) 
Heartbeat CPU 0 instructions: 106000000 cycles: 122994633 heartbeat IPC: 0.71161 cumulative IPC: 0.743277 (Simulation time: 1 hr 9 min 41 sec) 
Heartbeat CPU 0 instructions: 107000002 cycles: 124385385 heartbeat IPC: 0.719037 cumulative IPC: 0.742837 (Simulation time: 1 hr 10 min 24 sec) 
Heartbeat CPU 0 instructions: 108000000 cycles: 125740788 heartbeat IPC: 0.737786 cumulative IPC: 0.74275 (Simulation time: 1 hr 11 min 0 sec) 
Heartbeat CPU 0 instructions: 109000000 cycles: 127076936 heartbeat IPC: 0.74842 cumulative IPC: 0.742845 (Simulation time: 1 hr 11 min 34 sec) 
Heartbeat CPU 0 instructions: 110000000 cycles: 128406270 heartbeat IPC: 0.752256 cumulative IPC: 0.743 (Simulation time: 1 hr 12 min 11 sec) 
Heartbeat CPU 0 instructions: 111000000 cycles: 129741849 heartbeat IPC: 0.748739 cumulative IPC: 0.743093 (Simulation time: 1 hr 12 min 43 sec) 
Heartbeat CPU 0 instructions: 112000000 cycles: 131130767 heartbeat IPC: 0.719985 cumulative IPC: 0.742709 (Simulation time: 1 hr 13 min 15 sec) 
Heartbeat CPU 0 instructions: 113000000 cycles: 132503352 heartbeat IPC: 0.728552 cumulative IPC: 0.74248 (Simulation time: 1 hr 13 min 48 sec) 
Heartbeat CPU 0 instructions: 114000001 cycles: 133830678 heartbeat IPC: 0.753395 cumulative IPC: 0.742648 (Simulation time: 1 hr 14 min 21 sec) 
Heartbeat CPU 0 instructions: 115000000 cycles: 135188926 heartbeat IPC: 0.736242 cumulative IPC: 0.742549 (Simulation time: 1 hr 14 min 51 sec) 
Heartbeat CPU 0 instructions: 116000000 cycles: 136506860 heartbeat IPC: 0.758763 cumulative IPC: 0.742789 (Simulation time: 1 hr 15 min 20 sec) 
Heartbeat CPU 0 instructions: 117000000 cycles: 137814817 heartbeat IPC: 0.764551 cumulative IPC: 0.743105 (Simulation time: 1 hr 15 min 47 sec) 
Heartbeat CPU 0 instructions: 118000002 cycles: 139183674 heartbeat IPC: 0.730538 cumulative IPC: 0.742917 (Simulation time: 1 hr 16 min 13 sec) 
Heartbeat CPU 0 instructions: 119000000 cycles: 140588233 heartbeat IPC: 0.711966 cumulative IPC: 0.742449 (Simulation time: 1 hr 16 min 37 sec) 
Heartbeat CPU 0 instructions: 120000000 cycles: 142018652 heartbeat IPC: 0.699096 cumulative IPC: 0.741792 (Simulation time: 1 hr 17 min 2 sec) 
Heartbeat CPU 0 instructions: 121000000 cycles: 143374421 heartbeat IPC: 0.737589 cumulative IPC: 0.741732 (Simulation time: 1 hr 17 min 25 sec) 
Heartbeat CPU 0 instructions: 122000003 cycles: 144708550 heartbeat IPC: 0.749555 cumulative IPC: 0.74184 (Simulation time: 1 hr 17 min 49 sec) 
Heartbeat CPU 0 instructions: 123000003 cycles: 146036642 heartbeat IPC: 0.75296 cumulative IPC: 0.74199 (Simulation time: 1 hr 18 min 12 sec) 
Heartbeat CPU 0 instructions: 124000000 cycles: 147376756 heartbeat IPC: 0.746203 cumulative IPC: 0.742047 (Simulation time: 1 hr 18 min 35 sec) 
Heartbeat CPU 0 instructions: 125000001 cycles: 148765387 heartbeat IPC: 0.720134 cumulative IPC: 0.741746 (Simulation time: 1 hr 18 min 55 sec) 
Heartbeat CPU 0 instructions: 126000000 cycles: 150095253 heartbeat IPC: 0.751955 cumulative IPC: 0.741878 (Simulation time: 1 hr 19 min 17 sec) 
Heartbeat CPU 0 instructions: 127000003 cycles: 151436044 heartbeat IPC: 0.745831 cumulative IPC: 0.741929 (Simulation time: 1 hr 19 min 38 sec) 
Heartbeat CPU 0 instructions: 128000000 cycles: 152749831 heartbeat IPC: 0.761156 cumulative IPC: 0.74217 (Simulation time: 1 hr 19 min 58 sec) 
Heartbeat CPU 0 instructions: 129000003 cycles: 154052471 heartbeat IPC: 0.767674 cumulative IPC: 0.742482 (Simulation time: 1 hr 20 min 19 sec) 
Heartbeat CPU 0 instructions: 130000000 cycles: 155348543 heartbeat IPC: 0.77156 cumulative IPC: 0.742832 (Simulation time: 1 hr 20 min 39 sec) 
Heartbeat CPU 0 instructions: 131000000 cycles: 156724050 heartbeat IPC: 0.727005 cumulative IPC: 0.742632 (Simulation time: 1 hr 21 min 0 sec) 
Heartbeat CPU 0 instructions: 132000000 cycles: 158121858 heartbeat IPC: 0.715406 cumulative IPC: 0.742288 (Simulation time: 1 hr 21 min 24 sec) 
Heartbeat CPU 0 instructions: 133000003 cycles: 159498346 heartbeat IPC: 0.726489 cumulative IPC: 0.742093 (Simulation time: 1 hr 21 min 45 sec) 
Heartbeat CPU 0 instructions: 134000000 cycles: 160846746 heartbeat IPC: 0.741618 cumulative IPC: 0.742088 (Simulation time: 1 hr 22 min 5 sec) 
Heartbeat CPU 0 instructions: 135000002 cycles: 162166942 heartbeat IPC: 0.757465 cumulative IPC: 0.742265 (Simulation time: 1 hr 22 min 25 sec) 
Heartbeat CPU 0 instructions: 136000000 cycles: 163473568 heartbeat IPC: 0.765328 cumulative IPC: 0.742525 (Simulation time: 1 hr 22 min 44 sec) 
Heartbeat CPU 0 instructions: 137000003 cycles: 164807342 heartbeat IPC: 0.749754 cumulative IPC: 0.742607 (Simulation time: 1 hr 23 min 3 sec) 
Heartbeat CPU 0 instructions: 138000003 cycles: 166156706 heartbeat IPC: 0.74109 cumulative IPC: 0.74259 (Simulation time: 1 hr 23 min 20 sec) 
Heartbeat CPU 0 instructions: 139000000 cycles: 167545214 heartbeat IPC: 0.720195 cumulative IPC: 0.742331 (Simulation time: 1 hr 23 min 38 sec) 
Heartbeat CPU 0 instructions: 140000000 cycles: 168870126 heartbeat IPC: 0.754767 cumulative IPC: 0.742467 (Simulation time: 1 hr 23 min 56 sec) 
Heartbeat CPU 0 instructions: 141000001 cycles: 170191148 heartbeat IPC: 0.75699 cumulative IPC: 0.742623 (Simulation time: 1 hr 24 min 13 sec) 
Heartbeat CPU 0 instructions: 142000000 cycles: 171491516 heartbeat IPC: 0.769012 cumulative IPC: 0.7429 (Simulation time: 1 hr 24 min 28 sec) 
Heartbeat CPU 0 instructions: 143000003 cycles: 172816028 heartbeat IPC: 0.754997 cumulative IPC: 0.743028 (Simulation time: 1 hr 24 min 43 sec) 
Heartbeat CPU 0 instructions: 144000000 cycles: 174160832 heartbeat IPC: 0.743601 cumulative IPC: 0.743034 (Simulation time: 1 hr 24 min 58 sec) 
Heartbeat CPU 0 instructions: 145000001 cycles: 175551204 heartbeat IPC: 0.719233 cumulative IPC: 0.742776 (Simulation time: 1 hr 25 min 12 sec) 
Heartbeat CPU 0 instructions: 146000000 cycles: 176957903 heartbeat IPC: 0.710883 cumulative IPC: 0.742429 (Simulation time: 1 hr 25 min 26 sec) 
Heartbeat CPU 0 instructions: 147000001 cycles: 178313502 heartbeat IPC: 0.737682 cumulative IPC: 0.74238 (Simulation time: 1 hr 25 min 43 sec) 
Heartbeat CPU 0 instructions: 148000000 cycles: 179639347 heartbeat IPC: 0.754235 cumulative IPC: 0.742499 (Simulation time: 1 hr 25 min 58 sec) 
Heartbeat CPU 0 instructions: 149000000 cycles: 180953880 heartbeat IPC: 0.760726 cumulative IPC: 0.742678 (Simulation time: 1 hr 26 min 13 sec) 
Heartbeat CPU 0 instructions: 150000000 cycles: 182275243 heartbeat IPC: 0.756794 cumulative IPC: 0.742817 (Simulation time: 1 hr 26 min 27 sec) 
Finished CPU 0 instructions: 100000000 cycles: 134622680 cummulative IPC: 0.742817 (Simulation time: 1 hr 26 min 27 sec) 

ChampSim completed all CPUs

Region of Interest Statistics

CPU 0 cummulative IPC: 0.742817 instructions: 100000000 cycles: 134622680
LLC TOTAL     ACCESS:   21168195  HIT:   21092590  MISS:      75605
LLC LOAD      ACCESS:     165331  HIT:     129439  MISS:      35892
LLC RFO       ACCESS:   10374956  HIT:   10369314  MISS:       5642
LLC PREFETCH  ACCESS:     183346  HIT:     149599  MISS:      33747
LLC WRITEBACK ACCESS:   10444562  HIT:   10444238  MISS:        324
OPTgen accesses: 250930
OPTgen hits: 252077
OPTgen hit rate: 100.457


