
*** ChampSim Multicore Out-of-Order Simulator ***

Warmup Instructions: 50000000
Simulation Instructions: 100000000
Configuration: 2
Number of CPUs: 1
LLC sets: 2048
LLC ways: 16
Off-chip DRAM Channels: 1 Width: 64-bit Data Rate: 1600 MT/s

CPU 0 runs /datasets/cs240c-wi22-a00-public/data/Assignment2-gz/mcf_46B.trace.gz
CPU 0 L1D next line prefetcher
CPU 0 L2C IP-based stride prefetcher
Initialize Hawkeye state
Heartbeat CPU 0 instructions: 1000002 cycles: 492244 heartbeat IPC: 2.03152 cumulative IPC: 2.03152 (Simulation time: 0 hr 0 min 41 sec) 
Heartbeat CPU 0 instructions: 2000002 cycles: 987690 heartbeat IPC: 2.01838 cumulative IPC: 2.02493 (Simulation time: 0 hr 1 min 20 sec) 
Heartbeat CPU 0 instructions: 3000003 cycles: 1514876 heartbeat IPC: 1.89687 cumulative IPC: 1.98036 (Simulation time: 0 hr 2 min 0 sec) 
Heartbeat CPU 0 instructions: 4000000 cycles: 2032868 heartbeat IPC: 1.93053 cumulative IPC: 1.96766 (Simulation time: 0 hr 2 min 39 sec) 
Heartbeat CPU 0 instructions: 5000000 cycles: 2526698 heartbeat IPC: 2.02499 cumulative IPC: 1.97887 (Simulation time: 0 hr 3 min 17 sec) 
Heartbeat CPU 0 instructions: 6000002 cycles: 3029990 heartbeat IPC: 1.98692 cumulative IPC: 1.98021 (Simulation time: 0 hr 3 min 54 sec) 
Heartbeat CPU 0 instructions: 7000001 cycles: 3575072 heartbeat IPC: 1.83458 cumulative IPC: 1.958 (Simulation time: 0 hr 4 min 38 sec) 
Heartbeat CPU 0 instructions: 8000000 cycles: 4065890 heartbeat IPC: 2.03741 cumulative IPC: 1.96759 (Simulation time: 0 hr 5 min 16 sec) 
Heartbeat CPU 0 instructions: 9000001 cycles: 4549490 heartbeat IPC: 2.06783 cumulative IPC: 1.97824 (Simulation time: 0 hr 5 min 54 sec) 
Heartbeat CPU 0 instructions: 10000001 cycles: 5084838 heartbeat IPC: 1.86794 cumulative IPC: 1.96663 (Simulation time: 0 hr 6 min 34 sec) 
Heartbeat CPU 0 instructions: 11000002 cycles: 5630394 heartbeat IPC: 1.83299 cumulative IPC: 1.95368 (Simulation time: 0 hr 7 min 14 sec) 
Heartbeat CPU 0 instructions: 12000000 cycles: 6109201 heartbeat IPC: 2.08852 cumulative IPC: 1.96425 (Simulation time: 0 hr 7 min 55 sec) 
Heartbeat CPU 0 instructions: 13000000 cycles: 6604346 heartbeat IPC: 2.01961 cumulative IPC: 1.9684 (Simulation time: 0 hr 8 min 37 sec) 
Heartbeat CPU 0 instructions: 14000003 cycles: 7149814 heartbeat IPC: 1.83329 cumulative IPC: 1.95809 (Simulation time: 0 hr 9 min 19 sec) 
Heartbeat CPU 0 instructions: 15000000 cycles: 7627077 heartbeat IPC: 2.09527 cumulative IPC: 1.96668 (Simulation time: 0 hr 9 min 57 sec) 
Heartbeat CPU 0 instructions: 16000000 cycles: 8104349 heartbeat IPC: 2.09524 cumulative IPC: 1.97425 (Simulation time: 0 hr 10 min 34 sec) 
Heartbeat CPU 0 instructions: 17000002 cycles: 8648752 heartbeat IPC: 1.83688 cumulative IPC: 1.9656 (Simulation time: 0 hr 11 min 14 sec) 
Heartbeat CPU 0 instructions: 18000000 cycles: 9135812 heartbeat IPC: 2.05313 cumulative IPC: 1.97027 (Simulation time: 0 hr 11 min 53 sec) 
Heartbeat CPU 0 instructions: 19000002 cycles: 9624344 heartbeat IPC: 2.04695 cumulative IPC: 1.97416 (Simulation time: 0 hr 12 min 30 sec) 
Heartbeat CPU 0 instructions: 20000000 cycles: 10201192 heartbeat IPC: 1.73356 cumulative IPC: 1.96056 (Simulation time: 0 hr 13 min 9 sec) 
Heartbeat CPU 0 instructions: 21000001 cycles: 10745390 heartbeat IPC: 1.83757 cumulative IPC: 1.95433 (Simulation time: 0 hr 13 min 49 sec) 
Heartbeat CPU 0 instructions: 22000002 cycles: 11224132 heartbeat IPC: 2.08881 cumulative IPC: 1.96006 (Simulation time: 0 hr 14 min 29 sec) 
Heartbeat CPU 0 instructions: 23000000 cycles: 11704142 heartbeat IPC: 2.08329 cumulative IPC: 1.96512 (Simulation time: 0 hr 15 min 8 sec) 
Heartbeat CPU 0 instructions: 24000000 cycles: 12234957 heartbeat IPC: 1.8839 cumulative IPC: 1.96159 (Simulation time: 0 hr 15 min 48 sec) 
Heartbeat CPU 0 instructions: 25000002 cycles: 12734362 heartbeat IPC: 2.00239 cumulative IPC: 1.96319 (Simulation time: 0 hr 16 min 25 sec) 
Heartbeat CPU 0 instructions: 26000000 cycles: 13215388 heartbeat IPC: 2.07889 cumulative IPC: 1.9674 (Simulation time: 0 hr 17 min 3 sec) 
Heartbeat CPU 0 instructions: 27000002 cycles: 13727639 heartbeat IPC: 1.95217 cumulative IPC: 1.96684 (Simulation time: 0 hr 17 min 42 sec) 
Heartbeat CPU 0 instructions: 28000000 cycles: 14242659 heartbeat IPC: 1.94167 cumulative IPC: 1.96593 (Simulation time: 0 hr 18 min 22 sec) 
Heartbeat CPU 0 instructions: 29000001 cycles: 14721490 heartbeat IPC: 2.08842 cumulative IPC: 1.96991 (Simulation time: 0 hr 19 min 3 sec) 
Heartbeat CPU 0 instructions: 30000000 cycles: 15218201 heartbeat IPC: 2.01324 cumulative IPC: 1.97132 (Simulation time: 0 hr 19 min 42 sec) 
Heartbeat CPU 0 instructions: 31000002 cycles: 15749693 heartbeat IPC: 1.8815 cumulative IPC: 1.96829 (Simulation time: 0 hr 20 min 23 sec) 
Heartbeat CPU 0 instructions: 32000000 cycles: 16229310 heartbeat IPC: 2.08499 cumulative IPC: 1.97174 (Simulation time: 0 hr 21 min 0 sec) 
Heartbeat CPU 0 instructions: 33000000 cycles: 16733530 heartbeat IPC: 1.98326 cumulative IPC: 1.97209 (Simulation time: 0 hr 21 min 36 sec) 
Heartbeat CPU 0 instructions: 34000000 cycles: 17274770 heartbeat IPC: 1.84761 cumulative IPC: 1.96819 (Simulation time: 0 hr 22 min 17 sec) 
Heartbeat CPU 0 instructions: 35000001 cycles: 17763520 heartbeat IPC: 2.04604 cumulative IPC: 1.97033 (Simulation time: 0 hr 22 min 56 sec) 
Heartbeat CPU 0 instructions: 36000000 cycles: 18269982 heartbeat IPC: 1.97448 cumulative IPC: 1.97045 (Simulation time: 0 hr 23 min 33 sec) 
Heartbeat CPU 0 instructions: 37000002 cycles: 18786693 heartbeat IPC: 1.93532 cumulative IPC: 1.96948 (Simulation time: 0 hr 24 min 10 sec) 
Heartbeat CPU 0 instructions: 38000001 cycles: 19300717 heartbeat IPC: 1.94543 cumulative IPC: 1.96884 (Simulation time: 0 hr 24 min 49 sec) 
Heartbeat CPU 0 instructions: 39000000 cycles: 19778088 heartbeat IPC: 2.0948 cumulative IPC: 1.97188 (Simulation time: 0 hr 25 min 27 sec) 
Heartbeat CPU 0 instructions: 40000000 cycles: 20267306 heartbeat IPC: 2.04408 cumulative IPC: 1.97362 (Simulation time: 0 hr 26 min 6 sec) 
Heartbeat CPU 0 instructions: 41000000 cycles: 20808586 heartbeat IPC: 1.84747 cumulative IPC: 1.97034 (Simulation time: 0 hr 26 min 48 sec) 
Heartbeat CPU 0 instructions: 42000001 cycles: 21292576 heartbeat IPC: 2.06616 cumulative IPC: 1.97252 (Simulation time: 0 hr 27 min 24 sec) 
Heartbeat CPU 0 instructions: 43000000 cycles: 21770338 heartbeat IPC: 2.09309 cumulative IPC: 1.97516 (Simulation time: 0 hr 28 min 0 sec) 
Heartbeat CPU 0 instructions: 44000000 cycles: 22299986 heartbeat IPC: 1.88805 cumulative IPC: 1.9731 (Simulation time: 0 hr 28 min 43 sec) 
Heartbeat CPU 0 instructions: 45000001 cycles: 22794089 heartbeat IPC: 2.02387 cumulative IPC: 1.9742 (Simulation time: 0 hr 29 min 21 sec) 
Heartbeat CPU 0 instructions: 46000001 cycles: 23274300 heartbeat IPC: 2.08242 cumulative IPC: 1.97643 (Simulation time: 0 hr 29 min 58 sec) 
Heartbeat CPU 0 instructions: 47000002 cycles: 23785805 heartbeat IPC: 1.95502 cumulative IPC: 1.97597 (Simulation time: 0 hr 30 min 38 sec) 
Heartbeat CPU 0 instructions: 48000000 cycles: 24304009 heartbeat IPC: 1.92974 cumulative IPC: 1.97498 (Simulation time: 0 hr 31 min 21 sec) 
Heartbeat CPU 0 instructions: 49000000 cycles: 24787207 heartbeat IPC: 2.06955 cumulative IPC: 1.97683 (Simulation time: 0 hr 32 min 1 sec) 
Heartbeat CPU 0 instructions: 50000000 cycles: 25278577 heartbeat IPC: 2.03513 cumulative IPC: 1.97796 (Simulation time: 0 hr 32 min 41 sec) 

Warmup complete CPU 0 instructions: 50000004 cycles: 25278578 (Simulation time: 0 hr 32 min 41 sec) 

Heartbeat CPU 0 instructions: 51000001 cycles: 39567426 heartbeat IPC: 0.0699847 cumulative IPC: 0.0699844 (Simulation time: 0 hr 34 min 2 sec) 
Heartbeat CPU 0 instructions: 52000000 cycles: 44165525 heartbeat IPC: 0.217481 cumulative IPC: 0.105893 (Simulation time: 0 hr 34 min 56 sec) 
Heartbeat CPU 0 instructions: 53000000 cycles: 48408899 heartbeat IPC: 0.235662 cumulative IPC: 0.1297 (Simulation time: 0 hr 35 min 44 sec) 
Heartbeat CPU 0 instructions: 54000002 cycles: 63337174 heartbeat IPC: 0.0669871 cumulative IPC: 0.105101 (Simulation time: 0 hr 36 min 57 sec) 
Heartbeat CPU 0 instructions: 55000002 cycles: 68581068 heartbeat IPC: 0.190698 cumulative IPC: 0.115467 (Simulation time: 0 hr 37 min 48 sec) 
Heartbeat CPU 0 instructions: 56000000 cycles: 72934129 heartbeat IPC: 0.229723 cumulative IPC: 0.125903 (Simulation time: 0 hr 38 min 34 sec) 
Heartbeat CPU 0 instructions: 57000000 cycles: 86342682 heartbeat IPC: 0.0745793 cumulative IPC: 0.114634 (Simulation time: 0 hr 39 min 46 sec) 
Heartbeat CPU 0 instructions: 58000000 cycles: 93869837 heartbeat IPC: 0.132852 cumulative IPC: 0.116633 (Simulation time: 0 hr 40 min 43 sec) 
Heartbeat CPU 0 instructions: 59000002 cycles: 98357838 heartbeat IPC: 0.222817 cumulative IPC: 0.123154 (Simulation time: 0 hr 41 min 33 sec) 
Heartbeat CPU 0 instructions: 60000000 cycles: 109580568 heartbeat IPC: 0.0891047 cumulative IPC: 0.118621 (Simulation time: 0 hr 42 min 49 sec) 
Heartbeat CPU 0 instructions: 61000002 cycles: 118511841 heartbeat IPC: 0.111966 cumulative IPC: 0.117984 (Simulation time: 0 hr 43 min 50 sec) 
Heartbeat CPU 0 instructions: 62000001 cycles: 122724385 heartbeat IPC: 0.237386 cumulative IPC: 0.123145 (Simulation time: 0 hr 44 min 40 sec) 
Heartbeat CPU 0 instructions: 63000001 cycles: 132804551 heartbeat IPC: 0.0992047 cumulative IPC: 0.120901 (Simulation time: 0 hr 45 min 57 sec) 
Heartbeat CPU 0 instructions: 64000000 cycles: 144081865 heartbeat IPC: 0.0886735 cumulative IPC: 0.117842 (Simulation time: 0 hr 47 min 7 sec) 
Heartbeat CPU 0 instructions: 65000002 cycles: 149330219 heartbeat IPC: 0.190536 cumulative IPC: 0.120917 (Simulation time: 0 hr 47 min 59 sec) 
Heartbeat CPU 0 instructions: 66000000 cycles: 155849417 heartbeat IPC: 0.153393 cumulative IPC: 0.122539 (Simulation time: 0 hr 48 min 52 sec) 
Heartbeat CPU 0 instructions: 67000002 cycles: 171097787 heartbeat IPC: 0.0655809 cumulative IPC: 0.116583 (Simulation time: 0 hr 50 min 14 sec) 
Heartbeat CPU 0 instructions: 68000000 cycles: 175600958 heartbeat IPC: 0.222065 cumulative IPC: 0.119743 (Simulation time: 0 hr 51 min 7 sec) 
Heartbeat CPU 0 instructions: 69000000 cycles: 179689646 heartbeat IPC: 0.244577 cumulative IPC: 0.123048 (Simulation time: 0 hr 52 min 0 sec) 
Heartbeat CPU 0 instructions: 70000001 cycles: 193700687 heartbeat IPC: 0.0713724 cumulative IPC: 0.118749 (Simulation time: 0 hr 53 min 25 sec) 
Heartbeat CPU 0 instructions: 71000002 cycles: 202329997 heartbeat IPC: 0.115884 cumulative IPC: 0.11861 (Simulation time: 0 hr 54 min 26 sec) 
Heartbeat CPU 0 instructions: 72000000 cycles: 207240910 heartbeat IPC: 0.203628 cumulative IPC: 0.120904 (Simulation time: 0 hr 55 min 16 sec) 
Heartbeat CPU 0 instructions: 73000002 cycles: 216235938 heartbeat IPC: 0.111173 cumulative IPC: 0.120446 (Simulation time: 0 hr 56 min 15 sec) 
Heartbeat CPU 0 instructions: 74000001 cycles: 227817490 heartbeat IPC: 0.0863441 cumulative IPC: 0.118496 (Simulation time: 0 hr 57 min 23 sec) 
Heartbeat CPU 0 instructions: 75000002 cycles: 232373117 heartbeat IPC: 0.219509 cumulative IPC: 0.120718 (Simulation time: 0 hr 58 min 9 sec) 
Heartbeat CPU 0 instructions: 76000000 cycles: 238446571 heartbeat IPC: 0.164651 cumulative IPC: 0.12197 (Simulation time: 0 hr 59 min 4 sec) 
Heartbeat CPU 0 instructions: 77000001 cycles: 254319389 heartbeat IPC: 0.0630009 cumulative IPC: 0.117883 (Simulation time: 1 hr 0 min 21 sec) 
Heartbeat CPU 0 instructions: 78000002 cycles: 259199988 heartbeat IPC: 0.204893 cumulative IPC: 0.119698 (Simulation time: 1 hr 1 min 12 sec) 
Heartbeat CPU 0 instructions: 79000001 cycles: 263628451 heartbeat IPC: 0.225812 cumulative IPC: 0.12167 (Simulation time: 1 hr 2 min 1 sec) 
Heartbeat CPU 0 instructions: 80000000 cycles: 276398066 heartbeat IPC: 0.0783108 cumulative IPC: 0.119465 (Simulation time: 1 hr 3 min 7 sec) 
Heartbeat CPU 0 instructions: 81000000 cycles: 283792129 heartbeat IPC: 0.135244 cumulative IPC: 0.119916 (Simulation time: 1 hr 4 min 6 sec) 
Heartbeat CPU 0 instructions: 82000000 cycles: 288638202 heartbeat IPC: 0.206353 cumulative IPC: 0.121507 (Simulation time: 1 hr 4 min 56 sec) 
Heartbeat CPU 0 instructions: 83000001 cycles: 298442398 heartbeat IPC: 0.101997 cumulative IPC: 0.120807 (Simulation time: 1 hr 5 min 56 sec) 
Heartbeat CPU 0 instructions: 84000000 cycles: 309571520 heartbeat IPC: 0.0898543 cumulative IPC: 0.119595 (Simulation time: 1 hr 6 min 56 sec) 
Heartbeat CPU 0 instructions: 85000001 cycles: 313868216 heartbeat IPC: 0.232737 cumulative IPC: 0.121279 (Simulation time: 1 hr 7 min 40 sec) 
Heartbeat CPU 0 instructions: 86000000 cycles: 322027579 heartbeat IPC: 0.122558 cumulative IPC: 0.121315 (Simulation time: 1 hr 8 min 37 sec) 
Heartbeat CPU 0 instructions: 87000000 cycles: 336267251 heartbeat IPC: 0.0702263 cumulative IPC: 0.118975 (Simulation time: 1 hr 9 min 47 sec) 
Heartbeat CPU 0 instructions: 88000000 cycles: 342419929 heartbeat IPC: 0.162531 cumulative IPC: 0.11982 (Simulation time: 1 hr 10 min 40 sec) 
Heartbeat CPU 0 instructions: 89000000 cycles: 346628964 heartbeat IPC: 0.237584 cumulative IPC: 0.121363 (Simulation time: 1 hr 11 min 23 sec) 
Heartbeat CPU 0 instructions: 90000003 cycles: 358093310 heartbeat IPC: 0.0872272 cumulative IPC: 0.120187 (Simulation time: 1 hr 12 min 18 sec) 
Heartbeat CPU 0 instructions: 91000000 cycles: 366558287 heartbeat IPC: 0.118133 cumulative IPC: 0.120136 (Simulation time: 1 hr 13 min 9 sec) 
Heartbeat CPU 0 instructions: 92000000 cycles: 370824328 heartbeat IPC: 0.234409 cumulative IPC: 0.121547 (Simulation time: 1 hr 13 min 48 sec) 
Heartbeat CPU 0 instructions: 93000002 cycles: 379929410 heartbeat IPC: 0.109829 cumulative IPC: 0.121246 (Simulation time: 1 hr 14 min 39 sec) 
Heartbeat CPU 0 instructions: 94000002 cycles: 391594377 heartbeat IPC: 0.0857268 cumulative IPC: 0.120115 (Simulation time: 1 hr 15 min 31 sec) 
Heartbeat CPU 0 instructions: 95000000 cycles: 397367084 heartbeat IPC: 0.173229 cumulative IPC: 0.120939 (Simulation time: 1 hr 16 min 10 sec) 
Heartbeat CPU 0 instructions: 96000000 cycles: 402988974 heartbeat IPC: 0.177876 cumulative IPC: 0.121786 (Simulation time: 1 hr 16 min 45 sec) 
Heartbeat CPU 0 instructions: 97000000 cycles: 417624268 heartbeat IPC: 0.068328 cumulative IPC: 0.119792 (Simulation time: 1 hr 17 min 35 sec) 
Heartbeat CPU 0 instructions: 98000002 cycles: 422341411 heartbeat IPC: 0.211993 cumulative IPC: 0.120888 (Simulation time: 1 hr 18 min 6 sec) 
Heartbeat CPU 0 instructions: 99000002 cycles: 427196596 heartbeat IPC: 0.205965 cumulative IPC: 0.121915 (Simulation time: 1 hr 18 min 37 sec) 
Heartbeat CPU 0 instructions: 100000000 cycles: 440750837 heartbeat IPC: 0.0737775 cumulative IPC: 0.120345 (Simulation time: 1 hr 19 min 19 sec) 
Heartbeat CPU 0 instructions: 101000000 cycles: 447425995 heartbeat IPC: 0.149809 cumulative IPC: 0.120811 (Simulation time: 1 hr 19 min 51 sec) 
Heartbeat CPU 0 instructions: 102000003 cycles: 451718743 heartbeat IPC: 0.232952 cumulative IPC: 0.12194 (Simulation time: 1 hr 20 min 20 sec) 
Heartbeat CPU 0 instructions: 103000003 cycles: 463713960 heartbeat IPC: 0.0833666 cumulative IPC: 0.120884 (Simulation time: 1 hr 20 min 57 sec) 
Heartbeat CPU 0 instructions: 104000000 cycles: 475139916 heartbeat IPC: 0.0875198 cumulative IPC: 0.120037 (Simulation time: 1 hr 21 min 31 sec) 
Heartbeat CPU 0 instructions: 105000000 cycles: 479892265 heartbeat IPC: 0.210422 cumulative IPC: 0.120982 (Simulation time: 1 hr 21 min 58 sec) 
Heartbeat CPU 0 instructions: 106000000 cycles: 484075119 heartbeat IPC: 0.239071 cumulative IPC: 0.122058 (Simulation time: 1 hr 22 min 24 sec) 
Heartbeat CPU 0 instructions: 107000002 cycles: 498999807 heartbeat IPC: 0.0670032 cumulative IPC: 0.120324 (Simulation time: 1 hr 23 min 2 sec) 
Heartbeat CPU 0 instructions: 108000000 cycles: 504376487 heartbeat IPC: 0.185988 cumulative IPC: 0.121061 (Simulation time: 1 hr 23 min 27 sec) 
Heartbeat CPU 0 instructions: 109000001 cycles: 508746832 heartbeat IPC: 0.228815 cumulative IPC: 0.122035 (Simulation time: 1 hr 23 min 51 sec) 
Heartbeat CPU 0 instructions: 110000002 cycles: 518456800 heartbeat IPC: 0.102987 cumulative IPC: 0.12166 (Simulation time: 1 hr 24 min 19 sec) 
Heartbeat CPU 0 instructions: 111000003 cycles: 529052836 heartbeat IPC: 0.094375 cumulative IPC: 0.121086 (Simulation time: 1 hr 24 min 46 sec) 
Heartbeat CPU 0 instructions: 112000000 cycles: 533138352 heartbeat IPC: 0.244766 cumulative IPC: 0.122081 (Simulation time: 1 hr 25 min 6 sec) 
Heartbeat CPU 0 instructions: 113000000 cycles: 540591733 heartbeat IPC: 0.134167 cumulative IPC: 0.122256 (Simulation time: 1 hr 25 min 26 sec) 
Heartbeat CPU 0 instructions: 114000000 cycles: 554140591 heartbeat IPC: 0.073807 cumulative IPC: 0.121015 (Simulation time: 1 hr 25 min 56 sec) 
Heartbeat CPU 0 instructions: 115000001 cycles: 561728117 heartbeat IPC: 0.131795 cumulative IPC: 0.121167 (Simulation time: 1 hr 26 min 18 sec) 
Heartbeat CPU 0 instructions: 116000000 cycles: 565782698 heartbeat IPC: 0.246634 cumulative IPC: 0.122108 (Simulation time: 1 hr 26 min 34 sec) 
Heartbeat CPU 0 instructions: 117000000 cycles: 575960403 heartbeat IPC: 0.098254 cumulative IPC: 0.121667 (Simulation time: 1 hr 26 min 52 sec) 
Heartbeat CPU 0 instructions: 118000000 cycles: 585825508 heartbeat IPC: 0.101367 cumulative IPC: 0.12131 (Simulation time: 1 hr 27 min 10 sec) 
Heartbeat CPU 0 instructions: 119000000 cycles: 590014579 heartbeat IPC: 0.238716 cumulative IPC: 0.122181 (Simulation time: 1 hr 27 min 19 sec) 
Heartbeat CPU 0 instructions: 120000000 cycles: 596594112 heartbeat IPC: 0.151986 cumulative IPC: 0.122524 (Simulation time: 1 hr 27 min 29 sec) 
Heartbeat CPU 0 instructions: 121000000 cycles: 610019694 heartbeat IPC: 0.0744847 cumulative IPC: 0.121421 (Simulation time: 1 hr 27 min 43 sec) 
Heartbeat CPU 0 instructions: 122000001 cycles: 614202089 heartbeat IPC: 0.239098 cumulative IPC: 0.122257 (Simulation time: 1 hr 27 min 51 sec) 
Heartbeat CPU 0 instructions: 123000000 cycles: 618440056 heartbeat IPC: 0.235962 cumulative IPC: 0.123069 (Simulation time: 1 hr 27 min 59 sec) 
Heartbeat CPU 0 instructions: 124000000 cycles: 632942174 heartbeat IPC: 0.0689554 cumulative IPC: 0.121778 (Simulation time: 1 hr 28 min 9 sec) 
Heartbeat CPU 0 instructions: 125000000 cycles: 638778238 heartbeat IPC: 0.171348 cumulative IPC: 0.122249 (Simulation time: 1 hr 28 min 16 sec) 
Heartbeat CPU 0 instructions: 126000000 cycles: 642930434 heartbeat IPC: 0.240836 cumulative IPC: 0.123047 (Simulation time: 1 hr 28 min 23 sec) 
Heartbeat CPU 0 instructions: 127000002 cycles: 654807591 heartbeat IPC: 0.0841954 cumulative IPC: 0.122314 (Simulation time: 1 hr 28 min 33 sec) 
Heartbeat CPU 0 instructions: 128000000 cycles: 663243040 heartbeat IPC: 0.118547 cumulative IPC: 0.122264 (Simulation time: 1 hr 28 min 41 sec) 
Heartbeat CPU 0 instructions: 129000000 cycles: 667363774 heartbeat IPC: 0.242675 cumulative IPC: 0.123037 (Simulation time: 1 hr 28 min 47 sec) 
Heartbeat CPU 0 instructions: 130000000 cycles: 676213323 heartbeat IPC: 0.113 cumulative IPC: 0.1229 (Simulation time: 1 hr 28 min 55 sec) 
Heartbeat CPU 0 instructions: 131000000 cycles: 689015948 heartbeat IPC: 0.078109 cumulative IPC: 0.122036 (Simulation time: 1 hr 29 min 4 sec) 
Heartbeat CPU 0 instructions: 132000000 cycles: 694005646 heartbeat IPC: 0.200413 cumulative IPC: 0.122621 (Simulation time: 1 hr 29 min 10 sec) 
Heartbeat CPU 0 instructions: 133000002 cycles: 698822851 heartbeat IPC: 0.20759 cumulative IPC: 0.123229 (Simulation time: 1 hr 29 min 16 sec) 
Heartbeat CPU 0 instructions: 134000001 cycles: 713733624 heartbeat IPC: 0.0670655 cumulative IPC: 0.122012 (Simulation time: 1 hr 29 min 26 sec) 
Heartbeat CPU 0 instructions: 135000001 cycles: 718237512 heartbeat IPC: 0.22203 cumulative IPC: 0.122662 (Simulation time: 1 hr 29 min 32 sec) 
Heartbeat CPU 0 instructions: 136000000 cycles: 726362082 heartbeat IPC: 0.123083 cumulative IPC: 0.122667 (Simulation time: 1 hr 29 min 39 sec) 
Heartbeat CPU 0 instructions: 137000000 cycles: 736562043 heartbeat IPC: 0.0980396 cumulative IPC: 0.122314 (Simulation time: 1 hr 29 min 48 sec) 
Heartbeat CPU 0 instructions: 138000001 cycles: 747279395 heartbeat IPC: 0.0933067 cumulative IPC: 0.121884 (Simulation time: 1 hr 29 min 56 sec) 
Heartbeat CPU 0 instructions: 139000002 cycles: 751469371 heartbeat IPC: 0.238665 cumulative IPC: 0.122557 (Simulation time: 1 hr 30 min 2 sec) 
Heartbeat CPU 0 instructions: 140000000 cycles: 757624418 heartbeat IPC: 0.162468 cumulative IPC: 0.122893 (Simulation time: 1 hr 30 min 7 sec) 
Heartbeat CPU 0 instructions: 141000002 cycles: 771353887 heartbeat IPC: 0.0728362 cumulative IPC: 0.121972 (Simulation time: 1 hr 30 min 17 sec) 
Heartbeat CPU 0 instructions: 142000002 cycles: 775413898 heartbeat IPC: 0.246305 cumulative IPC: 0.122645 (Simulation time: 1 hr 30 min 23 sec) 
Heartbeat CPU 0 instructions: 143000002 cycles: 779347811 heartbeat IPC: 0.2542 cumulative IPC: 0.123331 (Simulation time: 1 hr 30 min 30 sec) 
Heartbeat CPU 0 instructions: 144000000 cycles: 794126459 heartbeat IPC: 0.0676651 cumulative IPC: 0.122261 (Simulation time: 1 hr 30 min 39 sec) 
Heartbeat CPU 0 instructions: 145000001 cycles: 799392286 heartbeat IPC: 0.189904 cumulative IPC: 0.122721 (Simulation time: 1 hr 30 min 46 sec) 
Heartbeat CPU 0 instructions: 146000001 cycles: 803567981 heartbeat IPC: 0.239481 cumulative IPC: 0.123347 (Simulation time: 1 hr 30 min 53 sec) 
Heartbeat CPU 0 instructions: 147000000 cycles: 816411637 heartbeat IPC: 0.0778594 cumulative IPC: 0.122609 (Simulation time: 1 hr 31 min 3 sec) 
Heartbeat CPU 0 instructions: 148000000 cycles: 823729577 heartbeat IPC: 0.13665 cumulative IPC: 0.122738 (Simulation time: 1 hr 31 min 10 sec) 
Heartbeat CPU 0 instructions: 149000000 cycles: 827929839 heartbeat IPC: 0.23808 cumulative IPC: 0.123341 (Simulation time: 1 hr 31 min 16 sec) 
Heartbeat CPU 0 instructions: 150000000 cycles: 838621049 heartbeat IPC: 0.0935348 cumulative IPC: 0.122949 (Simulation time: 1 hr 31 min 25 sec) 
Finished CPU 0 instructions: 100000000 cycles: 813342651 cummulative IPC: 0.122949 (Simulation time: 1 hr 31 min 25 sec) 

ChampSim completed all CPUs

Region of Interest Statistics

CPU 0 cummulative IPC: 0.122949 instructions: 100000000 cycles: 813342651
LLC TOTAL     ACCESS:   18838450  HIT:    8631938  MISS:   10206512
LLC LOAD      ACCESS:    8518540  HIT:    4431337  MISS:    4087203
LLC RFO       ACCESS:     210573  HIT:      61281  MISS:     149292
LLC PREFETCH  ACCESS:    8013915  HIT:    2738053  MISS:    5275862
LLC WRITEBACK ACCESS:    2095422  HIT:    1401267  MISS:     694155
OPTgen accesses: 201663
OPTgen hits: 150063
OPTgen hit rate: 74.4128


