
*** ChampSim Multicore Out-of-Order Simulator ***

Warmup Instructions: 50000000
Simulation Instructions: 100000000
Configuration: 2
Number of CPUs: 1
LLC sets: 2048
LLC ways: 16
Off-chip DRAM Channels: 1 Width: 64-bit Data Rate: 1600 MT/s

CPU 0 runs /datasets/cs240c-wi22-a00-public/data/Assignment2-gz/sphinx3_2520B.trace.gz
CPU 0 L1D next line prefetcher
CPU 0 L2C IP-based stride prefetcher
Initialize Hawkeye state
Heartbeat CPU 0 instructions: 1000003 cycles: 338965 heartbeat IPC: 2.95017 cumulative IPC: 2.95017 (Simulation time: 0 hr 0 min 28 sec) 
Heartbeat CPU 0 instructions: 2000000 cycles: 737242 heartbeat IPC: 2.51081 cumulative IPC: 2.71281 (Simulation time: 0 hr 1 min 0 sec) 
Heartbeat CPU 0 instructions: 3000003 cycles: 1185236 heartbeat IPC: 2.23218 cumulative IPC: 2.53114 (Simulation time: 0 hr 1 min 27 sec) 
Heartbeat CPU 0 instructions: 4000000 cycles: 1524262 heartbeat IPC: 2.94962 cumulative IPC: 2.62422 (Simulation time: 0 hr 1 min 56 sec) 
Heartbeat CPU 0 instructions: 5000001 cycles: 1902380 heartbeat IPC: 2.64468 cumulative IPC: 2.62829 (Simulation time: 0 hr 2 min 24 sec) 
Heartbeat CPU 0 instructions: 6000001 cycles: 2367799 heartbeat IPC: 2.1486 cumulative IPC: 2.534 (Simulation time: 0 hr 2 min 50 sec) 
Heartbeat CPU 0 instructions: 7000001 cycles: 2706742 heartbeat IPC: 2.95035 cumulative IPC: 2.58614 (Simulation time: 0 hr 3 min 16 sec) 
Heartbeat CPU 0 instructions: 8000000 cycles: 3055749 heartbeat IPC: 2.86527 cumulative IPC: 2.61802 (Simulation time: 0 hr 3 min 42 sec) 
Heartbeat CPU 0 instructions: 9000000 cycles: 3509135 heartbeat IPC: 2.20563 cumulative IPC: 2.56473 (Simulation time: 0 hr 4 min 8 sec) 
Heartbeat CPU 0 instructions: 10000000 cycles: 3859291 heartbeat IPC: 2.85587 cumulative IPC: 2.59115 (Simulation time: 0 hr 4 min 32 sec) 
Heartbeat CPU 0 instructions: 11000003 cycles: 4204060 heartbeat IPC: 2.9005 cumulative IPC: 2.61652 (Simulation time: 0 hr 4 min 59 sec) 
Heartbeat CPU 0 instructions: 12000000 cycles: 4648665 heartbeat IPC: 2.24918 cumulative IPC: 2.58139 (Simulation time: 0 hr 5 min 24 sec) 
Heartbeat CPU 0 instructions: 13000000 cycles: 5008261 heartbeat IPC: 2.7809 cumulative IPC: 2.59571 (Simulation time: 0 hr 5 min 49 sec) 
Heartbeat CPU 0 instructions: 14000002 cycles: 5350958 heartbeat IPC: 2.91804 cumulative IPC: 2.61635 (Simulation time: 0 hr 6 min 14 sec) 
Heartbeat CPU 0 instructions: 15000003 cycles: 5790231 heartbeat IPC: 2.27649 cumulative IPC: 2.59057 (Simulation time: 0 hr 6 min 38 sec) 
Heartbeat CPU 0 instructions: 16000000 cycles: 6157085 heartbeat IPC: 2.72587 cumulative IPC: 2.59863 (Simulation time: 0 hr 7 min 1 sec) 
Heartbeat CPU 0 instructions: 17000000 cycles: 6498489 heartbeat IPC: 2.92908 cumulative IPC: 2.61599 (Simulation time: 0 hr 7 min 30 sec) 
Heartbeat CPU 0 instructions: 18000002 cycles: 6932786 heartbeat IPC: 2.30258 cumulative IPC: 2.59636 (Simulation time: 0 hr 7 min 56 sec) 
Heartbeat CPU 0 instructions: 19000000 cycles: 7304115 heartbeat IPC: 2.69302 cumulative IPC: 2.60127 (Simulation time: 0 hr 8 min 20 sec) 
Heartbeat CPU 0 instructions: 20000000 cycles: 7645298 heartbeat IPC: 2.93098 cumulative IPC: 2.61599 (Simulation time: 0 hr 8 min 43 sec) 
Heartbeat CPU 0 instructions: 21000001 cycles: 8089598 heartbeat IPC: 2.25073 cumulative IPC: 2.59593 (Simulation time: 0 hr 9 min 9 sec) 
Heartbeat CPU 0 instructions: 22000002 cycles: 8503697 heartbeat IPC: 2.41488 cumulative IPC: 2.58711 (Simulation time: 0 hr 9 min 38 sec) 
Heartbeat CPU 0 instructions: 23000001 cycles: 8942698 heartbeat IPC: 2.2779 cumulative IPC: 2.57193 (Simulation time: 0 hr 10 min 4 sec) 
Heartbeat CPU 0 instructions: 24000000 cycles: 9281722 heartbeat IPC: 2.94964 cumulative IPC: 2.58573 (Simulation time: 0 hr 10 min 31 sec) 
Heartbeat CPU 0 instructions: 25000003 cycles: 9668428 heartbeat IPC: 2.58595 cumulative IPC: 2.58574 (Simulation time: 0 hr 10 min 58 sec) 
Heartbeat CPU 0 instructions: 26000001 cycles: 10085277 heartbeat IPC: 2.39895 cumulative IPC: 2.57802 (Simulation time: 0 hr 11 min 23 sec) 
Heartbeat CPU 0 instructions: 27000003 cycles: 10424251 heartbeat IPC: 2.95008 cumulative IPC: 2.59011 (Simulation time: 0 hr 11 min 49 sec) 
Heartbeat CPU 0 instructions: 28000000 cycles: 10827537 heartbeat IPC: 2.47962 cumulative IPC: 2.586 (Simulation time: 0 hr 12 min 15 sec) 
Heartbeat CPU 0 instructions: 29000002 cycles: 11228072 heartbeat IPC: 2.49667 cumulative IPC: 2.58281 (Simulation time: 0 hr 12 min 38 sec) 
Heartbeat CPU 0 instructions: 30000002 cycles: 11567011 heartbeat IPC: 2.95038 cumulative IPC: 2.59358 (Simulation time: 0 hr 13 min 4 sec) 
Heartbeat CPU 0 instructions: 31000000 cycles: 11988251 heartbeat IPC: 2.37394 cumulative IPC: 2.58587 (Simulation time: 0 hr 13 min 29 sec) 
Heartbeat CPU 0 instructions: 32000000 cycles: 12369602 heartbeat IPC: 2.62226 cumulative IPC: 2.58699 (Simulation time: 0 hr 13 min 54 sec) 
Heartbeat CPU 0 instructions: 33000002 cycles: 12710360 heartbeat IPC: 2.93464 cumulative IPC: 2.59631 (Simulation time: 0 hr 14 min 19 sec) 
Heartbeat CPU 0 instructions: 34000000 cycles: 13150116 heartbeat IPC: 2.27398 cumulative IPC: 2.58553 (Simulation time: 0 hr 14 min 45 sec) 
Heartbeat CPU 0 instructions: 35000001 cycles: 13511391 heartbeat IPC: 2.76798 cumulative IPC: 2.59041 (Simulation time: 0 hr 15 min 10 sec) 
Heartbeat CPU 0 instructions: 36000000 cycles: 13853741 heartbeat IPC: 2.92098 cumulative IPC: 2.59858 (Simulation time: 0 hr 15 min 36 sec) 
Heartbeat CPU 0 instructions: 37000000 cycles: 14313223 heartbeat IPC: 2.17636 cumulative IPC: 2.58502 (Simulation time: 0 hr 16 min 1 sec) 
Heartbeat CPU 0 instructions: 38000000 cycles: 14653534 heartbeat IPC: 2.93849 cumulative IPC: 2.59323 (Simulation time: 0 hr 16 min 23 sec) 
Heartbeat CPU 0 instructions: 39000003 cycles: 14999864 heartbeat IPC: 2.88743 cumulative IPC: 2.60002 (Simulation time: 0 hr 16 min 48 sec) 
Heartbeat CPU 0 instructions: 40000000 cycles: 15458588 heartbeat IPC: 2.17995 cumulative IPC: 2.58756 (Simulation time: 0 hr 17 min 14 sec) 
Heartbeat CPU 0 instructions: 41000001 cycles: 15797627 heartbeat IPC: 2.94952 cumulative IPC: 2.59533 (Simulation time: 0 hr 17 min 40 sec) 
Heartbeat CPU 0 instructions: 42000003 cycles: 16145579 heartbeat IPC: 2.87397 cumulative IPC: 2.60133 (Simulation time: 0 hr 18 min 6 sec) 
Heartbeat CPU 0 instructions: 43000001 cycles: 16601822 heartbeat IPC: 2.19181 cumulative IPC: 2.59008 (Simulation time: 0 hr 18 min 31 sec) 
Heartbeat CPU 0 instructions: 44000000 cycles: 16940690 heartbeat IPC: 2.951 cumulative IPC: 2.5973 (Simulation time: 0 hr 18 min 56 sec) 
Heartbeat CPU 0 instructions: 45000001 cycles: 17287780 heartbeat IPC: 2.8811 cumulative IPC: 2.60299 (Simulation time: 0 hr 19 min 22 sec) 
Heartbeat CPU 0 instructions: 46000000 cycles: 17745436 heartbeat IPC: 2.18505 cumulative IPC: 2.59222 (Simulation time: 0 hr 19 min 45 sec) 
Heartbeat CPU 0 instructions: 47000003 cycles: 18084420 heartbeat IPC: 2.95 cumulative IPC: 2.59892 (Simulation time: 0 hr 20 min 12 sec) 
Heartbeat CPU 0 instructions: 48000000 cycles: 18432953 heartbeat IPC: 2.86916 cumulative IPC: 2.60403 (Simulation time: 0 hr 20 min 38 sec) 
Heartbeat CPU 0 instructions: 49000002 cycles: 18887720 heartbeat IPC: 2.19893 cumulative IPC: 2.59428 (Simulation time: 0 hr 21 min 5 sec) 
Heartbeat CPU 0 instructions: 50000001 cycles: 19226700 heartbeat IPC: 2.95002 cumulative IPC: 2.60055 (Simulation time: 0 hr 21 min 33 sec) 

Warmup complete CPU 0 instructions: 50000001 cycles: 19226700 (Simulation time: 0 hr 21 min 33 sec) 

Heartbeat CPU 0 instructions: 51000001 cycles: 20037246 heartbeat IPC: 1.23374 cumulative IPC: 1.23374 (Simulation time: 0 hr 22 min 3 sec) 
Heartbeat CPU 0 instructions: 52000000 cycles: 20829812 heartbeat IPC: 1.26172 cumulative IPC: 1.24757 (Simulation time: 0 hr 22 min 32 sec) 
Heartbeat CPU 0 instructions: 53000001 cycles: 21666371 heartbeat IPC: 1.19537 cumulative IPC: 1.22967 (Simulation time: 0 hr 23 min 2 sec) 
Heartbeat CPU 0 instructions: 54000001 cycles: 22452635 heartbeat IPC: 1.27184 cumulative IPC: 1.23995 (Simulation time: 0 hr 23 min 31 sec) 
Heartbeat CPU 0 instructions: 55000000 cycles: 23234500 heartbeat IPC: 1.27899 cumulative IPC: 1.24757 (Simulation time: 0 hr 23 min 58 sec) 
Heartbeat CPU 0 instructions: 56000000 cycles: 24062095 heartbeat IPC: 1.20832 cumulative IPC: 1.24085 (Simulation time: 0 hr 24 min 27 sec) 
Heartbeat CPU 0 instructions: 57000000 cycles: 24951441 heartbeat IPC: 1.12442 cumulative IPC: 1.22276 (Simulation time: 0 hr 25 min 1 sec) 
Heartbeat CPU 0 instructions: 58000002 cycles: 26079839 heartbeat IPC: 0.886214 cumulative IPC: 1.16735 (Simulation time: 0 hr 25 min 34 sec) 
Heartbeat CPU 0 instructions: 59000001 cycles: 26885315 heartbeat IPC: 1.2415 cumulative IPC: 1.17515 (Simulation time: 0 hr 26 min 3 sec) 
Heartbeat CPU 0 instructions: 60000000 cycles: 27719182 heartbeat IPC: 1.19923 cumulative IPC: 1.17751 (Simulation time: 0 hr 26 min 34 sec) 
Heartbeat CPU 0 instructions: 61000001 cycles: 28506865 heartbeat IPC: 1.26955 cumulative IPC: 1.18532 (Simulation time: 0 hr 27 min 3 sec) 
Heartbeat CPU 0 instructions: 62000000 cycles: 29286648 heartbeat IPC: 1.28241 cumulative IPC: 1.19285 (Simulation time: 0 hr 27 min 31 sec) 
Heartbeat CPU 0 instructions: 63000002 cycles: 30110761 heartbeat IPC: 1.21343 cumulative IPC: 1.19441 (Simulation time: 0 hr 28 min 1 sec) 
Heartbeat CPU 0 instructions: 64000000 cycles: 30901946 heartbeat IPC: 1.26392 cumulative IPC: 1.19912 (Simulation time: 0 hr 28 min 31 sec) 
Heartbeat CPU 0 instructions: 65000001 cycles: 31645600 heartbeat IPC: 1.34471 cumulative IPC: 1.20784 (Simulation time: 0 hr 29 min 1 sec) 
Heartbeat CPU 0 instructions: 66000003 cycles: 32328609 heartbeat IPC: 1.46411 cumulative IPC: 1.2212 (Simulation time: 0 hr 29 min 29 sec) 
Heartbeat CPU 0 instructions: 67000003 cycles: 33136395 heartbeat IPC: 1.23795 cumulative IPC: 1.22217 (Simulation time: 0 hr 30 min 2 sec) 
Heartbeat CPU 0 instructions: 68000000 cycles: 33913177 heartbeat IPC: 1.28736 cumulative IPC: 1.22562 (Simulation time: 0 hr 30 min 30 sec) 
Heartbeat CPU 0 instructions: 69000003 cycles: 34666078 heartbeat IPC: 1.3282 cumulative IPC: 1.23062 (Simulation time: 0 hr 30 min 59 sec) 
Heartbeat CPU 0 instructions: 70000000 cycles: 35465018 heartbeat IPC: 1.25165 cumulative IPC: 1.23165 (Simulation time: 0 hr 31 min 28 sec) 
Heartbeat CPU 0 instructions: 71000000 cycles: 36209521 heartbeat IPC: 1.34318 cumulative IPC: 1.23654 (Simulation time: 0 hr 31 min 57 sec) 
Heartbeat CPU 0 instructions: 72000000 cycles: 36896566 heartbeat IPC: 1.45551 cumulative IPC: 1.24506 (Simulation time: 0 hr 32 min 29 sec) 
Heartbeat CPU 0 instructions: 73000003 cycles: 37666616 heartbeat IPC: 1.29862 cumulative IPC: 1.24729 (Simulation time: 0 hr 32 min 57 sec) 
Heartbeat CPU 0 instructions: 74000003 cycles: 38401966 heartbeat IPC: 1.3599 cumulative IPC: 1.25161 (Simulation time: 0 hr 33 min 27 sec) 
Heartbeat CPU 0 instructions: 75000003 cycles: 39091450 heartbeat IPC: 1.45036 cumulative IPC: 1.25851 (Simulation time: 0 hr 33 min 57 sec) 
Heartbeat CPU 0 instructions: 76000000 cycles: 39868484 heartbeat IPC: 1.28694 cumulative IPC: 1.25958 (Simulation time: 0 hr 34 min 27 sec) 
Heartbeat CPU 0 instructions: 77000003 cycles: 40620892 heartbeat IPC: 1.32907 cumulative IPC: 1.26202 (Simulation time: 0 hr 34 min 57 sec) 
Heartbeat CPU 0 instructions: 78000003 cycles: 41305865 heartbeat IPC: 1.45991 cumulative IPC: 1.26816 (Simulation time: 0 hr 35 min 25 sec) 
Heartbeat CPU 0 instructions: 79000003 cycles: 42078491 heartbeat IPC: 1.29429 cumulative IPC: 1.26905 (Simulation time: 0 hr 35 min 53 sec) 
Heartbeat CPU 0 instructions: 80000000 cycles: 42826063 heartbeat IPC: 1.33766 cumulative IPC: 1.27122 (Simulation time: 0 hr 36 min 23 sec) 
Heartbeat CPU 0 instructions: 81000001 cycles: 43521269 heartbeat IPC: 1.43842 cumulative IPC: 1.27601 (Simulation time: 0 hr 36 min 51 sec) 
Heartbeat CPU 0 instructions: 82000002 cycles: 44305541 heartbeat IPC: 1.27507 cumulative IPC: 1.27598 (Simulation time: 0 hr 37 min 20 sec) 
Heartbeat CPU 0 instructions: 83000003 cycles: 45043720 heartbeat IPC: 1.35469 cumulative IPC: 1.27823 (Simulation time: 0 hr 37 min 49 sec) 
Heartbeat CPU 0 instructions: 84000000 cycles: 45728614 heartbeat IPC: 1.46008 cumulative IPC: 1.28293 (Simulation time: 0 hr 38 min 17 sec) 
Heartbeat CPU 0 instructions: 85000001 cycles: 46518801 heartbeat IPC: 1.26552 cumulative IPC: 1.28242 (Simulation time: 0 hr 38 min 46 sec) 
Heartbeat CPU 0 instructions: 86000000 cycles: 47223605 heartbeat IPC: 1.41883 cumulative IPC: 1.28586 (Simulation time: 0 hr 39 min 14 sec) 
Heartbeat CPU 0 instructions: 87000000 cycles: 47900328 heartbeat IPC: 1.47771 cumulative IPC: 1.29038 (Simulation time: 0 hr 39 min 42 sec) 
Heartbeat CPU 0 instructions: 88000000 cycles: 48689688 heartbeat IPC: 1.26685 cumulative IPC: 1.28975 (Simulation time: 0 hr 40 min 11 sec) 
Heartbeat CPU 0 instructions: 89000000 cycles: 49379556 heartbeat IPC: 1.44955 cumulative IPC: 1.29341 (Simulation time: 0 hr 40 min 40 sec) 
Heartbeat CPU 0 instructions: 90000001 cycles: 50053308 heartbeat IPC: 1.48423 cumulative IPC: 1.29758 (Simulation time: 0 hr 41 min 9 sec) 
Heartbeat CPU 0 instructions: 91000001 cycles: 50845949 heartbeat IPC: 1.26161 cumulative IPC: 1.29668 (Simulation time: 0 hr 41 min 39 sec) 
Heartbeat CPU 0 instructions: 92000000 cycles: 51540368 heartbeat IPC: 1.44005 cumulative IPC: 1.29976 (Simulation time: 0 hr 42 min 7 sec) 
Heartbeat CPU 0 instructions: 93000002 cycles: 52224054 heartbeat IPC: 1.46266 cumulative IPC: 1.30313 (Simulation time: 0 hr 42 min 37 sec) 
Heartbeat CPU 0 instructions: 94000000 cycles: 53040346 heartbeat IPC: 1.22505 cumulative IPC: 1.30125 (Simulation time: 0 hr 43 min 7 sec) 
Heartbeat CPU 0 instructions: 95000000 cycles: 53726305 heartbeat IPC: 1.45781 cumulative IPC: 1.30436 (Simulation time: 0 hr 43 min 35 sec) 
Heartbeat CPU 0 instructions: 96000000 cycles: 54440571 heartbeat IPC: 1.40004 cumulative IPC: 1.3063 (Simulation time: 0 hr 44 min 4 sec) 
Heartbeat CPU 0 instructions: 97000002 cycles: 55627600 heartbeat IPC: 0.842441 cumulative IPC: 1.29118 (Simulation time: 0 hr 44 min 35 sec) 
Heartbeat CPU 0 instructions: 98000003 cycles: 56564125 heartbeat IPC: 1.06778 cumulative IPC: 1.28557 (Simulation time: 0 hr 45 min 4 sec) 
Heartbeat CPU 0 instructions: 99000001 cycles: 57293379 heartbeat IPC: 1.37126 cumulative IPC: 1.28721 (Simulation time: 0 hr 45 min 31 sec) 
Heartbeat CPU 0 instructions: 100000000 cycles: 57994393 heartbeat IPC: 1.4265 cumulative IPC: 1.28973 (Simulation time: 0 hr 46 min 1 sec) 
Heartbeat CPU 0 instructions: 101000001 cycles: 59385483 heartbeat IPC: 0.718861 cumulative IPC: 1.26996 (Simulation time: 0 hr 46 min 31 sec) 
Heartbeat CPU 0 instructions: 102000002 cycles: 60182976 heartbeat IPC: 1.25393 cumulative IPC: 1.26965 (Simulation time: 0 hr 47 min 0 sec) 
Heartbeat CPU 0 instructions: 103000001 cycles: 60916238 heartbeat IPC: 1.36377 cumulative IPC: 1.2713 (Simulation time: 0 hr 47 min 29 sec) 
Heartbeat CPU 0 instructions: 104000000 cycles: 62155654 heartbeat IPC: 0.806831 cumulative IPC: 1.25789 (Simulation time: 0 hr 47 min 59 sec) 
Heartbeat CPU 0 instructions: 105000002 cycles: 62988416 heartbeat IPC: 1.20083 cumulative IPC: 1.25681 (Simulation time: 0 hr 48 min 28 sec) 
Heartbeat CPU 0 instructions: 106000000 cycles: 63714309 heartbeat IPC: 1.37761 cumulative IPC: 1.25878 (Simulation time: 0 hr 48 min 56 sec) 
Heartbeat CPU 0 instructions: 107000000 cycles: 64777666 heartbeat IPC: 0.940418 cumulative IPC: 1.25135 (Simulation time: 0 hr 49 min 27 sec) 
Heartbeat CPU 0 instructions: 108000000 cycles: 65784692 heartbeat IPC: 0.993023 cumulative IPC: 1.24576 (Simulation time: 0 hr 49 min 58 sec) 
Heartbeat CPU 0 instructions: 109000003 cycles: 66519686 heartbeat IPC: 1.36056 cumulative IPC: 1.24754 (Simulation time: 0 hr 50 min 27 sec) 
Heartbeat CPU 0 instructions: 110000000 cycles: 67326624 heartbeat IPC: 1.23925 cumulative IPC: 1.2474 (Simulation time: 0 hr 50 min 56 sec) 
Heartbeat CPU 0 instructions: 111000001 cycles: 68553991 heartbeat IPC: 0.814753 cumulative IPC: 1.23664 (Simulation time: 0 hr 51 min 28 sec) 
Heartbeat CPU 0 instructions: 112000000 cycles: 69347196 heartbeat IPC: 1.26071 cumulative IPC: 1.23702 (Simulation time: 0 hr 51 min 56 sec) 
Heartbeat CPU 0 instructions: 113000000 cycles: 70072070 heartbeat IPC: 1.37955 cumulative IPC: 1.23905 (Simulation time: 0 hr 52 min 26 sec) 
Heartbeat CPU 0 instructions: 114000000 cycles: 71339889 heartbeat IPC: 0.788756 cumulative IPC: 1.2281 (Simulation time: 0 hr 52 min 59 sec) 
Heartbeat CPU 0 instructions: 115000000 cycles: 72167428 heartbeat IPC: 1.2084 cumulative IPC: 1.22779 (Simulation time: 0 hr 53 min 27 sec) 
Heartbeat CPU 0 instructions: 116000000 cycles: 72889679 heartbeat IPC: 1.38456 cumulative IPC: 1.2299 (Simulation time: 0 hr 53 min 55 sec) 
Heartbeat CPU 0 instructions: 117000001 cycles: 73956191 heartbeat IPC: 0.937637 cumulative IPC: 1.2242 (Simulation time: 0 hr 54 min 26 sec) 
Heartbeat CPU 0 instructions: 118000001 cycles: 74979274 heartbeat IPC: 0.977438 cumulative IPC: 1.21967 (Simulation time: 0 hr 54 min 55 sec) 
Heartbeat CPU 0 instructions: 119000001 cycles: 75710757 heartbeat IPC: 1.36709 cumulative IPC: 1.22158 (Simulation time: 0 hr 55 min 24 sec) 
Heartbeat CPU 0 instructions: 120000000 cycles: 76519218 heartbeat IPC: 1.23692 cumulative IPC: 1.2218 (Simulation time: 0 hr 55 min 54 sec) 
Heartbeat CPU 0 instructions: 121000003 cycles: 77755984 heartbeat IPC: 0.808563 cumulative IPC: 1.21307 (Simulation time: 0 hr 56 min 25 sec) 
Heartbeat CPU 0 instructions: 122000000 cycles: 78568252 heartbeat IPC: 1.23112 cumulative IPC: 1.21332 (Simulation time: 0 hr 56 min 54 sec) 
Heartbeat CPU 0 instructions: 123000003 cycles: 79304728 heartbeat IPC: 1.35782 cumulative IPC: 1.21509 (Simulation time: 0 hr 57 min 23 sec) 
Heartbeat CPU 0 instructions: 124000000 cycles: 80543644 heartbeat IPC: 0.807155 cumulative IPC: 1.20684 (Simulation time: 0 hr 57 min 54 sec) 
Heartbeat CPU 0 instructions: 125000000 cycles: 81437768 heartbeat IPC: 1.11841 cumulative IPC: 1.20557 (Simulation time: 0 hr 58 min 24 sec) 
Heartbeat CPU 0 instructions: 126000000 cycles: 82168406 heartbeat IPC: 1.36867 cumulative IPC: 1.20747 (Simulation time: 0 hr 58 min 52 sec) 
Heartbeat CPU 0 instructions: 127000000 cycles: 83200330 heartbeat IPC: 0.969064 cumulative IPC: 1.20362 (Simulation time: 0 hr 59 min 23 sec) 
Heartbeat CPU 0 instructions: 128000000 cycles: 84311691 heartbeat IPC: 0.899798 cumulative IPC: 1.19843 (Simulation time: 0 hr 59 min 59 sec) 
Heartbeat CPU 0 instructions: 129000000 cycles: 85060447 heartbeat IPC: 1.33555 cumulative IPC: 1.19999 (Simulation time: 1 hr 0 min 29 sec) 
Heartbeat CPU 0 instructions: 130000000 cycles: 85794942 heartbeat IPC: 1.36148 cumulative IPC: 1.20177 (Simulation time: 1 hr 0 min 58 sec) 
Heartbeat CPU 0 instructions: 131000002 cycles: 87102965 heartbeat IPC: 0.764514 cumulative IPC: 1.19335 (Simulation time: 1 hr 1 min 33 sec) 
Heartbeat CPU 0 instructions: 132000000 cycles: 87915714 heartbeat IPC: 1.23039 cumulative IPC: 1.19379 (Simulation time: 1 hr 2 min 2 sec) 
Heartbeat CPU 0 instructions: 133000000 cycles: 88651650 heartbeat IPC: 1.35881 cumulative IPC: 1.19554 (Simulation time: 1 hr 2 min 33 sec) 
Heartbeat CPU 0 instructions: 134000001 cycles: 89849734 heartbeat IPC: 0.834667 cumulative IPC: 1.18941 (Simulation time: 1 hr 3 min 8 sec) 
Heartbeat CPU 0 instructions: 135000002 cycles: 90794474 heartbeat IPC: 1.05849 cumulative IPC: 1.18769 (Simulation time: 1 hr 3 min 37 sec) 
Heartbeat CPU 0 instructions: 136000000 cycles: 91529780 heartbeat IPC: 1.35998 cumulative IPC: 1.18944 (Simulation time: 1 hr 4 min 5 sec) 
Heartbeat CPU 0 instructions: 137000002 cycles: 92422839 heartbeat IPC: 1.11975 cumulative IPC: 1.18859 (Simulation time: 1 hr 4 min 34 sec) 
Heartbeat CPU 0 instructions: 138000000 cycles: 93771968 heartbeat IPC: 0.741217 cumulative IPC: 1.18049 (Simulation time: 1 hr 5 min 5 sec) 
Heartbeat CPU 0 instructions: 139000000 cycles: 94869433 heartbeat IPC: 0.911191 cumulative IPC: 1.17658 (Simulation time: 1 hr 5 min 35 sec) 
Heartbeat CPU 0 instructions: 140000000 cycles: 95707653 heartbeat IPC: 1.193 cumulative IPC: 1.17676 (Simulation time: 1 hr 6 min 1 sec) 
Heartbeat CPU 0 instructions: 141000003 cycles: 96499042 heartbeat IPC: 1.2636 cumulative IPC: 1.17765 (Simulation time: 1 hr 6 min 31 sec) 
Heartbeat CPU 0 instructions: 142000000 cycles: 97635440 heartbeat IPC: 0.879971 cumulative IPC: 1.17334 (Simulation time: 1 hr 6 min 59 sec) 
Heartbeat CPU 0 instructions: 143000003 cycles: 98595219 heartbeat IPC: 1.04191 cumulative IPC: 1.17175 (Simulation time: 1 hr 7 min 26 sec) 
Heartbeat CPU 0 instructions: 144000000 cycles: 99394234 heartbeat IPC: 1.25154 cumulative IPC: 1.17254 (Simulation time: 1 hr 7 min 52 sec) 
Heartbeat CPU 0 instructions: 145000000 cycles: 100282092 heartbeat IPC: 1.12631 cumulative IPC: 1.17204 (Simulation time: 1 hr 8 min 20 sec) 
Heartbeat CPU 0 instructions: 146000000 cycles: 101433846 heartbeat IPC: 0.868241 cumulative IPC: 1.16778 (Simulation time: 1 hr 8 min 54 sec) 
Heartbeat CPU 0 instructions: 147000003 cycles: 102266310 heartbeat IPC: 1.20126 cumulative IPC: 1.16812 (Simulation time: 1 hr 9 min 19 sec) 
Heartbeat CPU 0 instructions: 148000000 cycles: 103058869 heartbeat IPC: 1.26173 cumulative IPC: 1.169 (Simulation time: 1 hr 9 min 44 sec) 
Heartbeat CPU 0 instructions: 149000003 cycles: 104309309 heartbeat IPC: 0.799721 cumulative IPC: 1.16358 (Simulation time: 1 hr 10 min 10 sec) 
Heartbeat CPU 0 instructions: 150000001 cycles: 105169529 heartbeat IPC: 1.16249 cumulative IPC: 1.16356 (Simulation time: 1 hr 10 min 37 sec) 
Finished CPU 0 instructions: 100000000 cycles: 85942829 cummulative IPC: 1.16356 (Simulation time: 1 hr 10 min 37 sec) 

ChampSim completed all CPUs

Region of Interest Statistics

CPU 0 cummulative IPC: 1.16356 instructions: 100000000 cycles: 85942829
LLC TOTAL     ACCESS:    1520471  HIT:     905378  MISS:     615093
LLC LOAD      ACCESS:     160628  HIT:     130376  MISS:      30252
LLC RFO       ACCESS:     118671  HIT:     114174  MISS:       4497
LLC PREFETCH  ACCESS:    1108863  HIT:     528849  MISS:     580014
LLC WRITEBACK ACCESS:     132309  HIT:     131979  MISS:        330
OPTgen accesses: 6735
OPTgen hits: 6737
OPTgen hit rate: 100.03


