
*** ChampSim Multicore Out-of-Order Simulator ***

Warmup Instructions: 50000000
Simulation Instructions: 100000000
Configuration: 2
Number of CPUs: 1
LLC sets: 2048
LLC ways: 16
Off-chip DRAM Channels: 1 Width: 64-bit Data Rate: 1600 MT/s

CPU 0 runs /datasets/cs240c-wi22-a00-public/data/Assignment2-gz/wrf_1650B.trace.gz
CPU 0 L1D next line prefetcher
CPU 0 L2C IP-based stride prefetcher
Initialize Hawkeye state
Heartbeat CPU 0 instructions: 1000000 cycles: 514299 heartbeat IPC: 1.94439 cumulative IPC: 1.94439 (Simulation time: 0 hr 0 min 41 sec) 
Heartbeat CPU 0 instructions: 2000000 cycles: 1028473 heartbeat IPC: 1.94487 cumulative IPC: 1.94463 (Simulation time: 0 hr 1 min 14 sec) 
Heartbeat CPU 0 instructions: 3000001 cycles: 1546184 heartbeat IPC: 1.93158 cumulative IPC: 1.94026 (Simulation time: 0 hr 1 min 49 sec) 
Heartbeat CPU 0 instructions: 4000000 cycles: 2063940 heartbeat IPC: 1.93141 cumulative IPC: 1.93804 (Simulation time: 0 hr 2 min 25 sec) 
Heartbeat CPU 0 instructions: 5000001 cycles: 2581687 heartbeat IPC: 1.93145 cumulative IPC: 1.93672 (Simulation time: 0 hr 3 min 1 sec) 
Heartbeat CPU 0 instructions: 6000003 cycles: 3099505 heartbeat IPC: 1.93118 cumulative IPC: 1.93579 (Simulation time: 0 hr 3 min 33 sec) 
Heartbeat CPU 0 instructions: 7000000 cycles: 3617214 heartbeat IPC: 1.93158 cumulative IPC: 1.93519 (Simulation time: 0 hr 4 min 8 sec) 
Heartbeat CPU 0 instructions: 8000000 cycles: 4135023 heartbeat IPC: 1.93121 cumulative IPC: 1.93469 (Simulation time: 0 hr 4 min 47 sec) 
Heartbeat CPU 0 instructions: 9000001 cycles: 4649336 heartbeat IPC: 1.94434 cumulative IPC: 1.93576 (Simulation time: 0 hr 5 min 22 sec) 
Heartbeat CPU 0 instructions: 10000001 cycles: 5163453 heartbeat IPC: 1.94508 cumulative IPC: 1.93669 (Simulation time: 0 hr 5 min 57 sec) 
Heartbeat CPU 0 instructions: 11000001 cycles: 5677587 heartbeat IPC: 1.94502 cumulative IPC: 1.93744 (Simulation time: 0 hr 6 min 28 sec) 
Heartbeat CPU 0 instructions: 12000000 cycles: 6193737 heartbeat IPC: 1.93742 cumulative IPC: 1.93744 (Simulation time: 0 hr 7 min 0 sec) 
Heartbeat CPU 0 instructions: 13000002 cycles: 6711432 heartbeat IPC: 1.93164 cumulative IPC: 1.93699 (Simulation time: 0 hr 7 min 33 sec) 
Heartbeat CPU 0 instructions: 14000002 cycles: 7229229 heartbeat IPC: 1.93126 cumulative IPC: 1.93658 (Simulation time: 0 hr 8 min 5 sec) 
Heartbeat CPU 0 instructions: 15000001 cycles: 7746913 heartbeat IPC: 1.93168 cumulative IPC: 1.93626 (Simulation time: 0 hr 8 min 35 sec) 
Heartbeat CPU 0 instructions: 16000000 cycles: 8264628 heartbeat IPC: 1.93156 cumulative IPC: 1.93596 (Simulation time: 0 hr 9 min 6 sec) 
Heartbeat CPU 0 instructions: 17000000 cycles: 8782346 heartbeat IPC: 1.93155 cumulative IPC: 1.9357 (Simulation time: 0 hr 9 min 38 sec) 
Heartbeat CPU 0 instructions: 18000001 cycles: 9298211 heartbeat IPC: 1.93849 cumulative IPC: 1.93586 (Simulation time: 0 hr 10 min 13 sec) 
Heartbeat CPU 0 instructions: 19000003 cycles: 9812269 heartbeat IPC: 1.94531 cumulative IPC: 1.93635 (Simulation time: 0 hr 10 min 44 sec) 
Heartbeat CPU 0 instructions: 20000000 cycles: 10326480 heartbeat IPC: 1.94472 cumulative IPC: 1.93677 (Simulation time: 0 hr 11 min 23 sec) 
Heartbeat CPU 0 instructions: 21000000 cycles: 10841175 heartbeat IPC: 1.9429 cumulative IPC: 1.93706 (Simulation time: 0 hr 11 min 56 sec) 
Heartbeat CPU 0 instructions: 22000000 cycles: 11358990 heartbeat IPC: 1.93119 cumulative IPC: 1.93679 (Simulation time: 0 hr 12 min 27 sec) 
Heartbeat CPU 0 instructions: 23000003 cycles: 11876757 heartbeat IPC: 1.93138 cumulative IPC: 1.93656 (Simulation time: 0 hr 13 min 0 sec) 
Heartbeat CPU 0 instructions: 24000000 cycles: 12394524 heartbeat IPC: 1.93136 cumulative IPC: 1.93634 (Simulation time: 0 hr 13 min 34 sec) 
Heartbeat CPU 0 instructions: 25000000 cycles: 12912214 heartbeat IPC: 1.93166 cumulative IPC: 1.93615 (Simulation time: 0 hr 14 min 5 sec) 
Heartbeat CPU 0 instructions: 26000001 cycles: 13429933 heartbeat IPC: 1.93155 cumulative IPC: 1.93597 (Simulation time: 0 hr 14 min 37 sec) 
Heartbeat CPU 0 instructions: 27000002 cycles: 13947348 heartbeat IPC: 1.93269 cumulative IPC: 1.93585 (Simulation time: 0 hr 15 min 10 sec) 
Heartbeat CPU 0 instructions: 28000000 cycles: 14461488 heartbeat IPC: 1.94499 cumulative IPC: 1.93618 (Simulation time: 0 hr 15 min 41 sec) 
Heartbeat CPU 0 instructions: 29000003 cycles: 14975725 heartbeat IPC: 1.94463 cumulative IPC: 1.93647 (Simulation time: 0 hr 16 min 17 sec) 
Heartbeat CPU 0 instructions: 30000002 cycles: 15489912 heartbeat IPC: 1.94482 cumulative IPC: 1.93674 (Simulation time: 0 hr 16 min 49 sec) 
Heartbeat CPU 0 instructions: 31000001 cycles: 16006549 heartbeat IPC: 1.93559 cumulative IPC: 1.93671 (Simulation time: 0 hr 17 min 25 sec) 
Heartbeat CPU 0 instructions: 32000000 cycles: 16524170 heartbeat IPC: 1.93191 cumulative IPC: 1.93656 (Simulation time: 0 hr 17 min 55 sec) 
Heartbeat CPU 0 instructions: 33000001 cycles: 17041842 heartbeat IPC: 1.93173 cumulative IPC: 1.93641 (Simulation time: 0 hr 18 min 26 sec) 
Heartbeat CPU 0 instructions: 34000002 cycles: 17559440 heartbeat IPC: 1.932 cumulative IPC: 1.93628 (Simulation time: 0 hr 18 min 59 sec) 
Heartbeat CPU 0 instructions: 35000001 cycles: 18077270 heartbeat IPC: 1.93113 cumulative IPC: 1.93613 (Simulation time: 0 hr 19 min 36 sec) 
Heartbeat CPU 0 instructions: 36000000 cycles: 18594991 heartbeat IPC: 1.93154 cumulative IPC: 1.93601 (Simulation time: 0 hr 20 min 11 sec) 
Heartbeat CPU 0 instructions: 37000003 cycles: 19110667 heartbeat IPC: 1.93921 cumulative IPC: 1.93609 (Simulation time: 0 hr 20 min 41 sec) 
Heartbeat CPU 0 instructions: 38000000 cycles: 19624818 heartbeat IPC: 1.94495 cumulative IPC: 1.93632 (Simulation time: 0 hr 21 min 13 sec) 
Heartbeat CPU 0 instructions: 39000001 cycles: 20138999 heartbeat IPC: 1.94484 cumulative IPC: 1.93654 (Simulation time: 0 hr 21 min 45 sec) 
Heartbeat CPU 0 instructions: 40000000 cycles: 20654040 heartbeat IPC: 1.94159 cumulative IPC: 1.93667 (Simulation time: 0 hr 22 min 19 sec) 
Heartbeat CPU 0 instructions: 41000000 cycles: 21171690 heartbeat IPC: 1.93181 cumulative IPC: 1.93655 (Simulation time: 0 hr 22 min 51 sec) 
Heartbeat CPU 0 instructions: 42000003 cycles: 21689691 heartbeat IPC: 1.9305 cumulative IPC: 1.9364 (Simulation time: 0 hr 23 min 23 sec) 
Heartbeat CPU 0 instructions: 43000001 cycles: 22207425 heartbeat IPC: 1.93149 cumulative IPC: 1.93629 (Simulation time: 0 hr 24 min 1 sec) 
Heartbeat CPU 0 instructions: 44000000 cycles: 22725175 heartbeat IPC: 1.93143 cumulative IPC: 1.93618 (Simulation time: 0 hr 24 min 32 sec) 
Heartbeat CPU 0 instructions: 45000000 cycles: 23242894 heartbeat IPC: 1.93155 cumulative IPC: 1.93608 (Simulation time: 0 hr 25 min 5 sec) 
Heartbeat CPU 0 instructions: 46000003 cycles: 23740900 heartbeat IPC: 2.00801 cumulative IPC: 1.93758 (Simulation time: 0 hr 25 min 41 sec) 
Heartbeat CPU 0 instructions: 47000002 cycles: 24391802 heartbeat IPC: 1.53633 cumulative IPC: 1.92688 (Simulation time: 0 hr 26 min 20 sec) 
Heartbeat CPU 0 instructions: 48000000 cycles: 25044142 heartbeat IPC: 1.53294 cumulative IPC: 1.91662 (Simulation time: 0 hr 27 min 0 sec) 
Heartbeat CPU 0 instructions: 49000001 cycles: 25692663 heartbeat IPC: 1.54197 cumulative IPC: 1.90716 (Simulation time: 0 hr 27 min 37 sec) 
Heartbeat CPU 0 instructions: 50000000 cycles: 26341298 heartbeat IPC: 1.5417 cumulative IPC: 1.89816 (Simulation time: 0 hr 28 min 17 sec) 

Warmup complete CPU 0 instructions: 50000001 cycles: 26341301 (Simulation time: 0 hr 28 min 17 sec) 

Heartbeat CPU 0 instructions: 51000000 cycles: 28270020 heartbeat IPC: 0.518478 cumulative IPC: 0.518478 (Simulation time: 0 hr 29 min 1 sec) 
Heartbeat CPU 0 instructions: 52000000 cycles: 30045740 heartbeat IPC: 0.563152 cumulative IPC: 0.539893 (Simulation time: 0 hr 29 min 45 sec) 
Heartbeat CPU 0 instructions: 53000002 cycles: 31098924 heartbeat IPC: 0.949504 cumulative IPC: 0.630567 (Simulation time: 0 hr 30 min 22 sec) 
Heartbeat CPU 0 instructions: 54000001 cycles: 32053680 heartbeat IPC: 1.04739 cumulative IPC: 0.700234 (Simulation time: 0 hr 30 min 59 sec) 
Heartbeat CPU 0 instructions: 55000000 cycles: 32966872 heartbeat IPC: 1.09506 cumulative IPC: 0.754652 (Simulation time: 0 hr 31 min 47 sec) 
Heartbeat CPU 0 instructions: 56000000 cycles: 33848614 heartbeat IPC: 1.13412 cumulative IPC: 0.799221 (Simulation time: 0 hr 32 min 34 sec) 
Heartbeat CPU 0 instructions: 57000001 cycles: 34730520 heartbeat IPC: 1.13391 cumulative IPC: 0.834404 (Simulation time: 0 hr 33 min 13 sec) 
Heartbeat CPU 0 instructions: 58000000 cycles: 35620046 heartbeat IPC: 1.12419 cumulative IPC: 0.862185 (Simulation time: 0 hr 33 min 50 sec) 
Heartbeat CPU 0 instructions: 59000003 cycles: 36510548 heartbeat IPC: 1.12297 cumulative IPC: 0.885021 (Simulation time: 0 hr 34 min 35 sec) 
Heartbeat CPU 0 instructions: 60000000 cycles: 37394608 heartbeat IPC: 1.13114 cumulative IPC: 0.904707 (Simulation time: 0 hr 35 min 23 sec) 
Heartbeat CPU 0 instructions: 61000003 cycles: 38690839 heartbeat IPC: 0.77147 cumulative IPC: 0.890722 (Simulation time: 0 hr 36 min 8 sec) 
Heartbeat CPU 0 instructions: 62000002 cycles: 40178704 heartbeat IPC: 0.672103 cumulative IPC: 0.867215 (Simulation time: 0 hr 36 min 52 sec) 
Heartbeat CPU 0 instructions: 63000002 cycles: 41664595 heartbeat IPC: 0.672997 cumulative IPC: 0.848382 (Simulation time: 0 hr 37 min 32 sec) 
Heartbeat CPU 0 instructions: 64000000 cycles: 43150935 heartbeat IPC: 0.672792 cumulative IPC: 0.832856 (Simulation time: 0 hr 38 min 14 sec) 
Heartbeat CPU 0 instructions: 65000001 cycles: 44639119 heartbeat IPC: 0.671961 cumulative IPC: 0.81977 (Simulation time: 0 hr 38 min 54 sec) 
Heartbeat CPU 0 instructions: 66000000 cycles: 46124901 heartbeat IPC: 0.673046 cumulative IPC: 0.808751 (Simulation time: 0 hr 39 min 37 sec) 
Heartbeat CPU 0 instructions: 67000001 cycles: 47613561 heartbeat IPC: 0.671746 cumulative IPC: 0.799163 (Simulation time: 0 hr 40 min 19 sec) 
Heartbeat CPU 0 instructions: 68000000 cycles: 49099369 heartbeat IPC: 0.673034 cumulative IPC: 0.790928 (Simulation time: 0 hr 41 min 6 sec) 
Heartbeat CPU 0 instructions: 69000002 cycles: 50585043 heartbeat IPC: 0.673097 cumulative IPC: 0.783707 (Simulation time: 0 hr 41 min 47 sec) 
Heartbeat CPU 0 instructions: 70000000 cycles: 52071543 heartbeat IPC: 0.67272 cumulative IPC: 0.777295 (Simulation time: 0 hr 42 min 26 sec) 
Heartbeat CPU 0 instructions: 71000001 cycles: 53558641 heartbeat IPC: 0.672451 cumulative IPC: 0.771567 (Simulation time: 0 hr 43 min 4 sec) 
Heartbeat CPU 0 instructions: 72000000 cycles: 55046526 heartbeat IPC: 0.672094 cumulative IPC: 0.766411 (Simulation time: 0 hr 43 min 43 sec) 
Heartbeat CPU 0 instructions: 73000000 cycles: 56532766 heartbeat IPC: 0.672839 cumulative IPC: 0.761805 (Simulation time: 0 hr 44 min 23 sec) 
Heartbeat CPU 0 instructions: 74000003 cycles: 58018184 heartbeat IPC: 0.673213 cumulative IPC: 0.75765 (Simulation time: 0 hr 45 min 5 sec) 
Heartbeat CPU 0 instructions: 75000003 cycles: 59504996 heartbeat IPC: 0.67258 cumulative IPC: 0.753836 (Simulation time: 0 hr 45 min 40 sec) 
Heartbeat CPU 0 instructions: 76000000 cycles: 60990686 heartbeat IPC: 0.673086 cumulative IPC: 0.750374 (Simulation time: 0 hr 46 min 14 sec) 
Heartbeat CPU 0 instructions: 77000002 cycles: 62479209 heartbeat IPC: 0.671808 cumulative IPC: 0.747138 (Simulation time: 0 hr 46 min 47 sec) 
Heartbeat CPU 0 instructions: 78000001 cycles: 63965792 heartbeat IPC: 0.672683 cumulative IPC: 0.744196 (Simulation time: 0 hr 47 min 23 sec) 
Heartbeat CPU 0 instructions: 79000001 cycles: 65454118 heartbeat IPC: 0.671896 cumulative IPC: 0.741445 (Simulation time: 0 hr 48 min 0 sec) 
Heartbeat CPU 0 instructions: 80000000 cycles: 66939670 heartbeat IPC: 0.67315 cumulative IPC: 0.738946 (Simulation time: 0 hr 48 min 39 sec) 
Heartbeat CPU 0 instructions: 81000000 cycles: 68426838 heartbeat IPC: 0.672419 cumulative IPC: 0.736595 (Simulation time: 0 hr 49 min 23 sec) 
Heartbeat CPU 0 instructions: 82000003 cycles: 69912442 heartbeat IPC: 0.673129 cumulative IPC: 0.734431 (Simulation time: 0 hr 50 min 1 sec) 
Heartbeat CPU 0 instructions: 83000003 cycles: 71402065 heartbeat IPC: 0.671311 cumulative IPC: 0.732345 (Simulation time: 0 hr 50 min 37 sec) 
Heartbeat CPU 0 instructions: 84000000 cycles: 72887965 heartbeat IPC: 0.672991 cumulative IPC: 0.73045 (Simulation time: 0 hr 51 min 28 sec) 
Heartbeat CPU 0 instructions: 85000002 cycles: 74374218 heartbeat IPC: 0.672834 cumulative IPC: 0.728667 (Simulation time: 0 hr 52 min 20 sec) 
Heartbeat CPU 0 instructions: 86000001 cycles: 75860011 heartbeat IPC: 0.673041 cumulative IPC: 0.726998 (Simulation time: 0 hr 53 min 13 sec) 
Heartbeat CPU 0 instructions: 87000001 cycles: 77346217 heartbeat IPC: 0.672854 cumulative IPC: 0.72542 (Simulation time: 0 hr 54 min 9 sec) 
Heartbeat CPU 0 instructions: 88000000 cycles: 78847188 heartbeat IPC: 0.666235 cumulative IPC: 0.723728 (Simulation time: 0 hr 55 min 6 sec) 
Heartbeat CPU 0 instructions: 89000003 cycles: 80338098 heartbeat IPC: 0.670733 cumulative IPC: 0.722265 (Simulation time: 0 hr 56 min 3 sec) 
Heartbeat CPU 0 instructions: 90000003 cycles: 81833852 heartbeat IPC: 0.668559 cumulative IPC: 0.720818 (Simulation time: 0 hr 57 min 9 sec) 
Heartbeat CPU 0 instructions: 91000001 cycles: 83343910 heartbeat IPC: 0.662225 cumulative IPC: 0.719265 (Simulation time: 0 hr 58 min 7 sec) 
Heartbeat CPU 0 instructions: 92000000 cycles: 84853866 heartbeat IPC: 0.66227 cumulative IPC: 0.717795 (Simulation time: 0 hr 59 min 7 sec) 
Heartbeat CPU 0 instructions: 93000001 cycles: 86372279 heartbeat IPC: 0.658583 cumulative IPC: 0.716297 (Simulation time: 1 hr 0 min 4 sec) 
Heartbeat CPU 0 instructions: 94000001 cycles: 87884973 heartbeat IPC: 0.661072 cumulative IPC: 0.714939 (Simulation time: 1 hr 1 min 1 sec) 
Heartbeat CPU 0 instructions: 95000001 cycles: 89395324 heartbeat IPC: 0.662098 cumulative IPC: 0.713674 (Simulation time: 1 hr 1 min 57 sec) 
Heartbeat CPU 0 instructions: 96000000 cycles: 90909158 heartbeat IPC: 0.660574 cumulative IPC: 0.712429 (Simulation time: 1 hr 2 min 55 sec) 
Heartbeat CPU 0 instructions: 97000000 cycles: 92425516 heartbeat IPC: 0.659475 cumulative IPC: 0.711214 (Simulation time: 1 hr 3 min 51 sec) 
Heartbeat CPU 0 instructions: 98000000 cycles: 93939638 heartbeat IPC: 0.660449 cumulative IPC: 0.710077 (Simulation time: 1 hr 4 min 45 sec) 
Heartbeat CPU 0 instructions: 99000000 cycles: 95451177 heartbeat IPC: 0.661577 cumulative IPC: 0.709016 (Simulation time: 1 hr 5 min 41 sec) 
Heartbeat CPU 0 instructions: 100000000 cycles: 96965884 heartbeat IPC: 0.660194 cumulative IPC: 0.707969 (Simulation time: 1 hr 6 min 39 sec) 
Heartbeat CPU 0 instructions: 101000002 cycles: 98483562 heartbeat IPC: 0.658903 cumulative IPC: 0.706937 (Simulation time: 1 hr 7 min 30 sec) 
Heartbeat CPU 0 instructions: 102000002 cycles: 99997052 heartbeat IPC: 0.660725 cumulative IPC: 0.705987 (Simulation time: 1 hr 8 min 24 sec) 
Heartbeat CPU 0 instructions: 103000002 cycles: 101511520 heartbeat IPC: 0.660298 cumulative IPC: 0.705066 (Simulation time: 1 hr 9 min 17 sec) 
Heartbeat CPU 0 instructions: 104000000 cycles: 103027990 heartbeat IPC: 0.659425 cumulative IPC: 0.704164 (Simulation time: 1 hr 10 min 5 sec) 
Heartbeat CPU 0 instructions: 105000001 cycles: 104543215 heartbeat IPC: 0.659969 cumulative IPC: 0.703308 (Simulation time: 1 hr 10 min 56 sec) 
Heartbeat CPU 0 instructions: 106000001 cycles: 106059100 heartbeat IPC: 0.659681 cumulative IPC: 0.702478 (Simulation time: 1 hr 11 min 40 sec) 
Heartbeat CPU 0 instructions: 107000000 cycles: 107570493 heartbeat IPC: 0.661641 cumulative IPC: 0.701718 (Simulation time: 1 hr 12 min 19 sec) 
Heartbeat CPU 0 instructions: 108000000 cycles: 109084687 heartbeat IPC: 0.660417 cumulative IPC: 0.700962 (Simulation time: 1 hr 12 min 58 sec) 
Heartbeat CPU 0 instructions: 109000000 cycles: 110598572 heartbeat IPC: 0.660552 cumulative IPC: 0.700236 (Simulation time: 1 hr 13 min 38 sec) 
Heartbeat CPU 0 instructions: 110000001 cycles: 112106136 heartbeat IPC: 0.663322 cumulative IPC: 0.699587 (Simulation time: 1 hr 14 min 18 sec) 
Heartbeat CPU 0 instructions: 111000003 cycles: 113615108 heartbeat IPC: 0.662704 cumulative IPC: 0.69895 (Simulation time: 1 hr 14 min 59 sec) 
Heartbeat CPU 0 instructions: 112000000 cycles: 115122335 heartbeat IPC: 0.663468 cumulative IPC: 0.698347 (Simulation time: 1 hr 15 min 34 sec) 
Heartbeat CPU 0 instructions: 113000003 cycles: 116627226 heartbeat IPC: 0.664502 cumulative IPC: 0.697783 (Simulation time: 1 hr 16 min 8 sec) 
Heartbeat CPU 0 instructions: 114000002 cycles: 118141921 heartbeat IPC: 0.660198 cumulative IPC: 0.697163 (Simulation time: 1 hr 16 min 42 sec) 
Heartbeat CPU 0 instructions: 115000002 cycles: 119654711 heartbeat IPC: 0.66103 cumulative IPC: 0.696577 (Simulation time: 1 hr 17 min 9 sec) 
Heartbeat CPU 0 instructions: 116000000 cycles: 121169867 heartbeat IPC: 0.659997 cumulative IPC: 0.695993 (Simulation time: 1 hr 17 min 36 sec) 
Heartbeat CPU 0 instructions: 117000000 cycles: 122682284 heartbeat IPC: 0.661193 cumulative IPC: 0.695446 (Simulation time: 1 hr 18 min 3 sec) 
Heartbeat CPU 0 instructions: 118000003 cycles: 124196745 heartbeat IPC: 0.660303 cumulative IPC: 0.694903 (Simulation time: 1 hr 18 min 30 sec) 
Heartbeat CPU 0 instructions: 119000001 cycles: 125709843 heartbeat IPC: 0.660894 cumulative IPC: 0.694385 (Simulation time: 1 hr 18 min 56 sec) 
Heartbeat CPU 0 instructions: 120000000 cycles: 127225635 heartbeat IPC: 0.65972 cumulative IPC: 0.693864 (Simulation time: 1 hr 19 min 23 sec) 
Heartbeat CPU 0 instructions: 121000001 cycles: 128738490 heartbeat IPC: 0.661003 cumulative IPC: 0.693378 (Simulation time: 1 hr 19 min 49 sec) 
Heartbeat CPU 0 instructions: 122000000 cycles: 130253566 heartbeat IPC: 0.660032 cumulative IPC: 0.692892 (Simulation time: 1 hr 20 min 14 sec) 
Heartbeat CPU 0 instructions: 123000000 cycles: 131765907 heartbeat IPC: 0.661227 cumulative IPC: 0.692438 (Simulation time: 1 hr 20 min 38 sec) 
Heartbeat CPU 0 instructions: 124000000 cycles: 133280955 heartbeat IPC: 0.660045 cumulative IPC: 0.691979 (Simulation time: 1 hr 21 min 2 sec) 
Heartbeat CPU 0 instructions: 125000002 cycles: 134793349 heartbeat IPC: 0.661205 cumulative IPC: 0.69155 (Simulation time: 1 hr 21 min 30 sec) 
Heartbeat CPU 0 instructions: 126000003 cycles: 136307324 heartbeat IPC: 0.660514 cumulative IPC: 0.691123 (Simulation time: 1 hr 21 min 57 sec) 
Heartbeat CPU 0 instructions: 127000002 cycles: 137818966 heartbeat IPC: 0.661532 cumulative IPC: 0.690721 (Simulation time: 1 hr 22 min 23 sec) 
Heartbeat CPU 0 instructions: 128000000 cycles: 139611223 heartbeat IPC: 0.557955 cumulative IPC: 0.688621 (Simulation time: 1 hr 22 min 48 sec) 
Heartbeat CPU 0 instructions: 129000001 cycles: 141998731 heartbeat IPC: 0.418847 cumulative IPC: 0.683052 (Simulation time: 1 hr 23 min 14 sec) 
Heartbeat CPU 0 instructions: 130000002 cycles: 143733641 heartbeat IPC: 0.576399 cumulative IPC: 0.681475 (Simulation time: 1 hr 23 min 35 sec) 
Heartbeat CPU 0 instructions: 131000002 cycles: 145361391 heartbeat IPC: 0.614345 cumulative IPC: 0.680557 (Simulation time: 1 hr 23 min 55 sec) 
Heartbeat CPU 0 instructions: 132000000 cycles: 148457220 heartbeat IPC: 0.323015 cumulative IPC: 0.671493 (Simulation time: 1 hr 24 min 21 sec) 
Heartbeat CPU 0 instructions: 133000000 cycles: 151745015 heartbeat IPC: 0.304155 cumulative IPC: 0.661862 (Simulation time: 1 hr 24 min 46 sec) 
Heartbeat CPU 0 instructions: 134000000 cycles: 155159130 heartbeat IPC: 0.292902 cumulative IPC: 0.652084 (Simulation time: 1 hr 25 min 11 sec) 
Heartbeat CPU 0 instructions: 135000001 cycles: 158517423 heartbeat IPC: 0.297771 cumulative IPC: 0.643081 (Simulation time: 1 hr 25 min 34 sec) 
Heartbeat CPU 0 instructions: 136000000 cycles: 159622416 heartbeat IPC: 0.904982 cumulative IPC: 0.645253 (Simulation time: 1 hr 25 min 49 sec) 
Heartbeat CPU 0 instructions: 137000001 cycles: 160699616 heartbeat IPC: 0.928334 cumulative IPC: 0.647522 (Simulation time: 1 hr 26 min 2 sec) 
Heartbeat CPU 0 instructions: 138000000 cycles: 161729850 heartbeat IPC: 0.970652 cumulative IPC: 0.649981 (Simulation time: 1 hr 26 min 17 sec) 
Heartbeat CPU 0 instructions: 139000000 cycles: 162702419 heartbeat IPC: 1.0282 cumulative IPC: 0.652679 (Simulation time: 1 hr 26 min 31 sec) 
Heartbeat CPU 0 instructions: 140000000 cycles: 163638165 heartbeat IPC: 1.06867 cumulative IPC: 0.655514 (Simulation time: 1 hr 26 min 43 sec) 
Heartbeat CPU 0 instructions: 141000002 cycles: 164549990 heartbeat IPC: 1.0967 cumulative IPC: 0.658425 (Simulation time: 1 hr 26 min 54 sec) 
Heartbeat CPU 0 instructions: 142000001 cycles: 165490253 heartbeat IPC: 1.06353 cumulative IPC: 0.661162 (Simulation time: 1 hr 27 min 5 sec) 
Heartbeat CPU 0 instructions: 143000001 cycles: 166420508 heartbeat IPC: 1.07497 cumulative IPC: 0.66391 (Simulation time: 1 hr 27 min 13 sec) 
Heartbeat CPU 0 instructions: 144000000 cycles: 167361105 heartbeat IPC: 1.06315 cumulative IPC: 0.666573 (Simulation time: 1 hr 27 min 20 sec) 
Heartbeat CPU 0 instructions: 145000003 cycles: 168287577 heartbeat IPC: 1.07937 cumulative IPC: 0.669267 (Simulation time: 1 hr 27 min 28 sec) 
Heartbeat CPU 0 instructions: 146000001 cycles: 169201458 heartbeat IPC: 1.09423 cumulative IPC: 0.671986 (Simulation time: 1 hr 27 min 35 sec) 
Heartbeat CPU 0 instructions: 147000002 cycles: 170103465 heartbeat IPC: 1.10864 cumulative IPC: 0.674726 (Simulation time: 1 hr 27 min 42 sec) 
Heartbeat CPU 0 instructions: 148000000 cycles: 170965714 heartbeat IPC: 1.15976 cumulative IPC: 0.677617 (Simulation time: 1 hr 27 min 49 sec) 
Heartbeat CPU 0 instructions: 149000001 cycles: 171834636 heartbeat IPC: 1.15085 cumulative IPC: 0.680444 (Simulation time: 1 hr 27 min 54 sec) 
Heartbeat CPU 0 instructions: 150000001 cycles: 172703878 heartbeat IPC: 1.15043 cumulative IPC: 0.683235 (Simulation time: 1 hr 28 min 0 sec) 
Finished CPU 0 instructions: 100000000 cycles: 146362577 cummulative IPC: 0.683235 (Simulation time: 1 hr 28 min 0 sec) 

ChampSim completed all CPUs

Region of Interest Statistics

CPU 0 cummulative IPC: 0.683235 instructions: 100000000 cycles: 146362577
LLC TOTAL     ACCESS:    2157394  HIT:     276403  MISS:    1880991
LLC LOAD      ACCESS:     100899  HIT:      15805  MISS:      85094
LLC RFO       ACCESS:     516111  HIT:       2691  MISS:     513420
LLC PREFETCH  ACCESS:     928563  HIT:      70864  MISS:     857699
LLC WRITEBACK ACCESS:     611821  HIT:     187043  MISS:     424778
OPTgen accesses: 11654
OPTgen hits: 1972
OPTgen hit rate: 16.9212


