
*** ChampSim Multicore Out-of-Order Simulator ***

Warmup Instructions: 50000000
Simulation Instructions: 100000000
Configuration: 2
Number of CPUs: 1
LLC sets: 2048
LLC ways: 16
Off-chip DRAM Channels: 1 Width: 64-bit Data Rate: 1600 MT/s

CPU 0 runs /datasets/cs240c-wi22-a00-public/data/Assignment2-gz/cactusADM_1039B.trace.gz
CPU 0 L1D next line prefetcher
CPU 0 L2C IP-based stride prefetcher
Initialize Hawkeye state
Heartbeat CPU 0 instructions: 1000000 cycles: 595518 heartbeat IPC: 1.67921 cumulative IPC: 1.67921 (Simulation time: 0 hr 0 min 39 sec) 
Heartbeat CPU 0 instructions: 2000002 cycles: 1190937 heartbeat IPC: 1.67949 cumulative IPC: 1.67935 (Simulation time: 0 hr 1 min 23 sec) 
Heartbeat CPU 0 instructions: 3000003 cycles: 1786622 heartbeat IPC: 1.67874 cumulative IPC: 1.67915 (Simulation time: 0 hr 2 min 6 sec) 
Heartbeat CPU 0 instructions: 4000000 cycles: 2382046 heartbeat IPC: 1.67947 cumulative IPC: 1.67923 (Simulation time: 0 hr 2 min 51 sec) 
Heartbeat CPU 0 instructions: 5000001 cycles: 2977457 heartbeat IPC: 1.67951 cumulative IPC: 1.67929 (Simulation time: 0 hr 3 min 36 sec) 
Heartbeat CPU 0 instructions: 6000002 cycles: 3572930 heartbeat IPC: 1.67934 cumulative IPC: 1.67929 (Simulation time: 0 hr 4 min 18 sec) 
Heartbeat CPU 0 instructions: 7000000 cycles: 4168306 heartbeat IPC: 1.67961 cumulative IPC: 1.67934 (Simulation time: 0 hr 5 min 0 sec) 
Heartbeat CPU 0 instructions: 8000000 cycles: 4763681 heartbeat IPC: 1.67961 cumulative IPC: 1.67937 (Simulation time: 0 hr 5 min 42 sec) 
Heartbeat CPU 0 instructions: 9000002 cycles: 5359336 heartbeat IPC: 1.67883 cumulative IPC: 1.67931 (Simulation time: 0 hr 6 min 20 sec) 
Heartbeat CPU 0 instructions: 10000003 cycles: 5974113 heartbeat IPC: 1.62661 cumulative IPC: 1.67389 (Simulation time: 0 hr 7 min 2 sec) 
Heartbeat CPU 0 instructions: 11000002 cycles: 6713136 heartbeat IPC: 1.35314 cumulative IPC: 1.63858 (Simulation time: 0 hr 7 min 52 sec) 
Heartbeat CPU 0 instructions: 12000000 cycles: 7308573 heartbeat IPC: 1.67944 cumulative IPC: 1.64191 (Simulation time: 0 hr 8 min 41 sec) 
Heartbeat CPU 0 instructions: 13000002 cycles: 7904079 heartbeat IPC: 1.67925 cumulative IPC: 1.64472 (Simulation time: 0 hr 9 min 26 sec) 
Heartbeat CPU 0 instructions: 14000000 cycles: 8499725 heartbeat IPC: 1.67885 cumulative IPC: 1.64711 (Simulation time: 0 hr 10 min 9 sec) 
Heartbeat CPU 0 instructions: 15000000 cycles: 9094783 heartbeat IPC: 1.68051 cumulative IPC: 1.6493 (Simulation time: 0 hr 10 min 49 sec) 
Heartbeat CPU 0 instructions: 16000000 cycles: 9690375 heartbeat IPC: 1.679 cumulative IPC: 1.65112 (Simulation time: 0 hr 11 min 27 sec) 
Heartbeat CPU 0 instructions: 17000003 cycles: 10285965 heartbeat IPC: 1.67901 cumulative IPC: 1.65274 (Simulation time: 0 hr 12 min 3 sec) 
Heartbeat CPU 0 instructions: 18000001 cycles: 10881499 heartbeat IPC: 1.67916 cumulative IPC: 1.65418 (Simulation time: 0 hr 12 min 39 sec) 
Heartbeat CPU 0 instructions: 19000002 cycles: 11476874 heartbeat IPC: 1.67962 cumulative IPC: 1.6555 (Simulation time: 0 hr 13 min 15 sec) 
Heartbeat CPU 0 instructions: 20000000 cycles: 12072312 heartbeat IPC: 1.67943 cumulative IPC: 1.65668 (Simulation time: 0 hr 13 min 54 sec) 
Heartbeat CPU 0 instructions: 21000002 cycles: 12667999 heartbeat IPC: 1.67874 cumulative IPC: 1.65772 (Simulation time: 0 hr 14 min 29 sec) 
Heartbeat CPU 0 instructions: 22000002 cycles: 13263428 heartbeat IPC: 1.67946 cumulative IPC: 1.6587 (Simulation time: 0 hr 15 min 5 sec) 
Heartbeat CPU 0 instructions: 23000002 cycles: 13858871 heartbeat IPC: 1.67942 cumulative IPC: 1.65959 (Simulation time: 0 hr 15 min 46 sec) 
Heartbeat CPU 0 instructions: 24000000 cycles: 14614943 heartbeat IPC: 1.32262 cumulative IPC: 1.64215 (Simulation time: 0 hr 16 min 30 sec) 
Heartbeat CPU 0 instructions: 25000002 cycles: 15210224 heartbeat IPC: 1.67988 cumulative IPC: 1.64363 (Simulation time: 0 hr 17 min 7 sec) 
Heartbeat CPU 0 instructions: 26000001 cycles: 15805338 heartbeat IPC: 1.68035 cumulative IPC: 1.64501 (Simulation time: 0 hr 17 min 44 sec) 
Heartbeat CPU 0 instructions: 27000000 cycles: 16400592 heartbeat IPC: 1.67995 cumulative IPC: 1.64628 (Simulation time: 0 hr 18 min 21 sec) 
Heartbeat CPU 0 instructions: 28000000 cycles: 16995829 heartbeat IPC: 1.68 cumulative IPC: 1.64746 (Simulation time: 0 hr 18 min 58 sec) 
Heartbeat CPU 0 instructions: 29000000 cycles: 17591293 heartbeat IPC: 1.67936 cumulative IPC: 1.64854 (Simulation time: 0 hr 19 min 37 sec) 
Heartbeat CPU 0 instructions: 30000002 cycles: 18186455 heartbeat IPC: 1.68022 cumulative IPC: 1.64958 (Simulation time: 0 hr 20 min 14 sec) 
Heartbeat CPU 0 instructions: 31000001 cycles: 18781969 heartbeat IPC: 1.67922 cumulative IPC: 1.65052 (Simulation time: 0 hr 20 min 52 sec) 
Heartbeat CPU 0 instructions: 32000000 cycles: 19376914 heartbeat IPC: 1.68083 cumulative IPC: 1.65145 (Simulation time: 0 hr 21 min 31 sec) 
Heartbeat CPU 0 instructions: 33000001 cycles: 19972331 heartbeat IPC: 1.6795 cumulative IPC: 1.65229 (Simulation time: 0 hr 22 min 9 sec) 
Heartbeat CPU 0 instructions: 34000003 cycles: 20567386 heartbeat IPC: 1.68052 cumulative IPC: 1.6531 (Simulation time: 0 hr 22 min 44 sec) 
Heartbeat CPU 0 instructions: 35000001 cycles: 21162788 heartbeat IPC: 1.67953 cumulative IPC: 1.65385 (Simulation time: 0 hr 23 min 18 sec) 
Heartbeat CPU 0 instructions: 36000000 cycles: 21758179 heartbeat IPC: 1.67957 cumulative IPC: 1.65455 (Simulation time: 0 hr 23 min 54 sec) 
Heartbeat CPU 0 instructions: 37000002 cycles: 22515164 heartbeat IPC: 1.32103 cumulative IPC: 1.64334 (Simulation time: 0 hr 24 min 37 sec) 
Heartbeat CPU 0 instructions: 38000000 cycles: 23110307 heartbeat IPC: 1.68027 cumulative IPC: 1.64429 (Simulation time: 0 hr 25 min 13 sec) 
Heartbeat CPU 0 instructions: 39000002 cycles: 23705512 heartbeat IPC: 1.6801 cumulative IPC: 1.64519 (Simulation time: 0 hr 25 min 48 sec) 
Heartbeat CPU 0 instructions: 40000000 cycles: 24300734 heartbeat IPC: 1.68004 cumulative IPC: 1.64604 (Simulation time: 0 hr 26 min 24 sec) 
Heartbeat CPU 0 instructions: 41000003 cycles: 24896164 heartbeat IPC: 1.67946 cumulative IPC: 1.64684 (Simulation time: 0 hr 27 min 0 sec) 
Heartbeat CPU 0 instructions: 42000001 cycles: 25491340 heartbeat IPC: 1.68017 cumulative IPC: 1.64762 (Simulation time: 0 hr 27 min 36 sec) 
Heartbeat CPU 0 instructions: 43000000 cycles: 26086706 heartbeat IPC: 1.67964 cumulative IPC: 1.64835 (Simulation time: 0 hr 28 min 10 sec) 
Heartbeat CPU 0 instructions: 44000000 cycles: 26681786 heartbeat IPC: 1.68045 cumulative IPC: 1.64907 (Simulation time: 0 hr 28 min 46 sec) 
Heartbeat CPU 0 instructions: 45000000 cycles: 27277253 heartbeat IPC: 1.67935 cumulative IPC: 1.64973 (Simulation time: 0 hr 29 min 23 sec) 
Heartbeat CPU 0 instructions: 46000003 cycles: 27872434 heartbeat IPC: 1.68017 cumulative IPC: 1.65038 (Simulation time: 0 hr 30 min 2 sec) 
Heartbeat CPU 0 instructions: 47000002 cycles: 28467559 heartbeat IPC: 1.68032 cumulative IPC: 1.651 (Simulation time: 0 hr 30 min 37 sec) 
Heartbeat CPU 0 instructions: 48000000 cycles: 29062551 heartbeat IPC: 1.68069 cumulative IPC: 1.65161 (Simulation time: 0 hr 31 min 13 sec) 
Heartbeat CPU 0 instructions: 49000001 cycles: 29657952 heartbeat IPC: 1.67954 cumulative IPC: 1.65217 (Simulation time: 0 hr 31 min 51 sec) 
Heartbeat CPU 0 instructions: 50000000 cycles: 30414983 heartbeat IPC: 1.32095 cumulative IPC: 1.64393 (Simulation time: 0 hr 32 min 33 sec) 

Warmup complete CPU 0 instructions: 50000004 cycles: 30414984 (Simulation time: 0 hr 32 min 33 sec) 

Heartbeat CPU 0 instructions: 51000003 cycles: 32179356 heartbeat IPC: 0.566775 cumulative IPC: 0.566773 (Simulation time: 0 hr 33 min 12 sec) 
Heartbeat CPU 0 instructions: 52000000 cycles: 33951443 heartbeat IPC: 0.564305 cumulative IPC: 0.565536 (Simulation time: 0 hr 33 min 53 sec) 
Heartbeat CPU 0 instructions: 53000003 cycles: 35722790 heartbeat IPC: 0.564544 cumulative IPC: 0.565205 (Simulation time: 0 hr 34 min 30 sec) 
Heartbeat CPU 0 instructions: 54000002 cycles: 37438836 heartbeat IPC: 0.582734 cumulative IPC: 0.569488 (Simulation time: 0 hr 35 min 13 sec) 
Heartbeat CPU 0 instructions: 55000001 cycles: 39165138 heartbeat IPC: 0.579272 cumulative IPC: 0.571418 (Simulation time: 0 hr 35 min 51 sec) 
Heartbeat CPU 0 instructions: 56000000 cycles: 40935405 heartbeat IPC: 0.564886 cumulative IPC: 0.570319 (Simulation time: 0 hr 36 min 30 sec) 
Heartbeat CPU 0 instructions: 57000000 cycles: 42711386 heartbeat IPC: 0.563069 cumulative IPC: 0.569272 (Simulation time: 0 hr 37 min 11 sec) 
Heartbeat CPU 0 instructions: 58000000 cycles: 44476977 heartbeat IPC: 0.566383 cumulative IPC: 0.568909 (Simulation time: 0 hr 37 min 49 sec) 
Heartbeat CPU 0 instructions: 59000002 cycles: 46164574 heartbeat IPC: 0.59256 cumulative IPC: 0.571443 (Simulation time: 0 hr 38 min 27 sec) 
Heartbeat CPU 0 instructions: 60000000 cycles: 47924616 heartbeat IPC: 0.568167 cumulative IPC: 0.571114 (Simulation time: 0 hr 39 min 6 sec) 
Heartbeat CPU 0 instructions: 61000001 cycles: 49699384 heartbeat IPC: 0.563455 cumulative IPC: 0.570409 (Simulation time: 0 hr 39 min 47 sec) 
Heartbeat CPU 0 instructions: 62000000 cycles: 51474219 heartbeat IPC: 0.563432 cumulative IPC: 0.569821 (Simulation time: 0 hr 40 min 24 sec) 
Heartbeat CPU 0 instructions: 63000001 cycles: 57680300 heartbeat IPC: 0.161132 cumulative IPC: 0.476796 (Simulation time: 0 hr 41 min 10 sec) 
Heartbeat CPU 0 instructions: 64000000 cycles: 59950522 heartbeat IPC: 0.440485 cumulative IPC: 0.474005 (Simulation time: 0 hr 41 min 49 sec) 
Heartbeat CPU 0 instructions: 65000002 cycles: 61721558 heartbeat IPC: 0.564642 cumulative IPC: 0.479133 (Simulation time: 0 hr 42 min 27 sec) 
Heartbeat CPU 0 instructions: 66000001 cycles: 63492657 heartbeat IPC: 0.564621 cumulative IPC: 0.48371 (Simulation time: 0 hr 43 min 8 sec) 
Heartbeat CPU 0 instructions: 67000003 cycles: 65259130 heartbeat IPC: 0.566101 cumulative IPC: 0.487887 (Simulation time: 0 hr 43 min 49 sec) 
Heartbeat CPU 0 instructions: 68000000 cycles: 66985129 heartbeat IPC: 0.579373 cumulative IPC: 0.492205 (Simulation time: 0 hr 44 min 27 sec) 
Heartbeat CPU 0 instructions: 69000003 cycles: 68763674 heartbeat IPC: 0.562259 cumulative IPC: 0.495454 (Simulation time: 0 hr 45 min 7 sec) 
Heartbeat CPU 0 instructions: 70000002 cycles: 70534110 heartbeat IPC: 0.564832 cumulative IPC: 0.498515 (Simulation time: 0 hr 45 min 44 sec) 
Heartbeat CPU 0 instructions: 71000000 cycles: 72304849 heartbeat IPC: 0.564735 cumulative IPC: 0.501314 (Simulation time: 0 hr 46 min 24 sec) 
Heartbeat CPU 0 instructions: 72000000 cycles: 74050846 heartbeat IPC: 0.572739 cumulative IPC: 0.504172 (Simulation time: 0 hr 47 min 2 sec) 
Heartbeat CPU 0 instructions: 73000001 cycles: 75751361 heartbeat IPC: 0.588058 cumulative IPC: 0.507319 (Simulation time: 0 hr 47 min 40 sec) 
Heartbeat CPU 0 instructions: 74000003 cycles: 77519972 heartbeat IPC: 0.565417 cumulative IPC: 0.5095 (Simulation time: 0 hr 48 min 19 sec) 
Heartbeat CPU 0 instructions: 75000002 cycles: 79294208 heartbeat IPC: 0.563622 cumulative IPC: 0.511465 (Simulation time: 0 hr 48 min 57 sec) 
Heartbeat CPU 0 instructions: 76000000 cycles: 84552493 heartbeat IPC: 0.190176 cumulative IPC: 0.480258 (Simulation time: 0 hr 49 min 40 sec) 
Heartbeat CPU 0 instructions: 77000001 cycles: 87714182 heartbeat IPC: 0.316287 cumulative IPC: 0.471211 (Simulation time: 0 hr 50 min 23 sec) 
Heartbeat CPU 0 instructions: 78000000 cycles: 89463412 heartbeat IPC: 0.57168 cumulative IPC: 0.474187 (Simulation time: 0 hr 51 min 1 sec) 
Heartbeat CPU 0 instructions: 79000002 cycles: 91233981 heartbeat IPC: 0.564791 cumulative IPC: 0.476825 (Simulation time: 0 hr 51 min 38 sec) 
Heartbeat CPU 0 instructions: 80000000 cycles: 93003694 heartbeat IPC: 0.565062 cumulative IPC: 0.47932 (Simulation time: 0 hr 52 min 15 sec) 
Heartbeat CPU 0 instructions: 81000002 cycles: 94750829 heartbeat IPC: 0.572367 cumulative IPC: 0.481846 (Simulation time: 0 hr 52 min 51 sec) 
Heartbeat CPU 0 instructions: 82000002 cycles: 96445398 heartbeat IPC: 0.590121 cumulative IPC: 0.484625 (Simulation time: 0 hr 53 min 30 sec) 
Heartbeat CPU 0 instructions: 83000003 cycles: 98211903 heartbeat IPC: 0.56609 cumulative IPC: 0.486748 (Simulation time: 0 hr 54 min 8 sec) 
Heartbeat CPU 0 instructions: 84000000 cycles: 99981768 heartbeat IPC: 0.565013 cumulative IPC: 0.488739 (Simulation time: 0 hr 54 min 47 sec) 
Heartbeat CPU 0 instructions: 85000002 cycles: 101751245 heartbeat IPC: 0.56514 cumulative IPC: 0.490634 (Simulation time: 0 hr 55 min 24 sec) 
Heartbeat CPU 0 instructions: 86000003 cycles: 103465142 heartbeat IPC: 0.583466 cumulative IPC: 0.492812 (Simulation time: 0 hr 56 min 4 sec) 
Heartbeat CPU 0 instructions: 87000000 cycles: 105206274 heartbeat IPC: 0.574337 cumulative IPC: 0.49471 (Simulation time: 0 hr 56 min 42 sec) 
Heartbeat CPU 0 instructions: 88000000 cycles: 106976218 heartbeat IPC: 0.56499 cumulative IPC: 0.496335 (Simulation time: 0 hr 57 min 21 sec) 
Heartbeat CPU 0 instructions: 89000001 cycles: 111305558 heartbeat IPC: 0.230982 cumulative IPC: 0.482133 (Simulation time: 0 hr 58 min 3 sec) 
Heartbeat CPU 0 instructions: 90000002 cycles: 115423058 heartbeat IPC: 0.242866 cumulative IPC: 0.470544 (Simulation time: 0 hr 58 min 49 sec) 
Heartbeat CPU 0 instructions: 91000000 cycles: 117117373 heartbeat IPC: 0.590208 cumulative IPC: 0.472882 (Simulation time: 0 hr 59 min 27 sec) 
Heartbeat CPU 0 instructions: 92000000 cycles: 118880598 heartbeat IPC: 0.567143 cumulative IPC: 0.474761 (Simulation time: 1 hr 0 min 8 sec) 
Heartbeat CPU 0 instructions: 93000001 cycles: 120651876 heartbeat IPC: 0.564565 cumulative IPC: 0.476523 (Simulation time: 1 hr 0 min 46 sec) 
Heartbeat CPU 0 instructions: 94000003 cycles: 122426527 heartbeat IPC: 0.563492 cumulative IPC: 0.478201 (Simulation time: 1 hr 1 min 24 sec) 
Heartbeat CPU 0 instructions: 95000001 cycles: 124145941 heartbeat IPC: 0.581592 cumulative IPC: 0.480098 (Simulation time: 1 hr 2 min 0 sec) 
Heartbeat CPU 0 instructions: 96000000 cycles: 125866573 heartbeat IPC: 0.581181 cumulative IPC: 0.48192 (Simulation time: 1 hr 2 min 39 sec) 
Heartbeat CPU 0 instructions: 97000002 cycles: 127635882 heartbeat IPC: 0.565194 cumulative IPC: 0.483435 (Simulation time: 1 hr 3 min 17 sec) 
Heartbeat CPU 0 instructions: 98000000 cycles: 129408870 heartbeat IPC: 0.564018 cumulative IPC: 0.484878 (Simulation time: 1 hr 3 min 52 sec) 
Heartbeat CPU 0 instructions: 99000002 cycles: 131176532 heartbeat IPC: 0.56572 cumulative IPC: 0.486297 (Simulation time: 1 hr 4 min 26 sec) 
Heartbeat CPU 0 instructions: 100000000 cycles: 132867159 heartbeat IPC: 0.591495 cumulative IPC: 0.488033 (Simulation time: 1 hr 5 min 3 sec) 
Heartbeat CPU 0 instructions: 101000002 cycles: 134623137 heartbeat IPC: 0.569484 cumulative IPC: 0.489405 (Simulation time: 1 hr 5 min 42 sec) 
Heartbeat CPU 0 instructions: 102000000 cycles: 137967025 heartbeat IPC: 0.299052 cumulative IPC: 0.483487 (Simulation time: 1 hr 6 min 22 sec) 
Heartbeat CPU 0 instructions: 103000002 cycles: 143073829 heartbeat IPC: 0.195818 cumulative IPC: 0.470447 (Simulation time: 1 hr 7 min 2 sec) 
Heartbeat CPU 0 instructions: 104000000 cycles: 144798748 heartbeat IPC: 0.579736 cumulative IPC: 0.472095 (Simulation time: 1 hr 7 min 37 sec) 
Heartbeat CPU 0 instructions: 105000002 cycles: 146513329 heartbeat IPC: 0.583234 cumulative IPC: 0.473736 (Simulation time: 1 hr 8 min 13 sec) 
Heartbeat CPU 0 instructions: 106000001 cycles: 148284839 heartbeat IPC: 0.56449 cumulative IPC: 0.4751 (Simulation time: 1 hr 8 min 52 sec) 
Heartbeat CPU 0 instructions: 107000003 cycles: 150054823 heartbeat IPC: 0.564978 cumulative IPC: 0.47643 (Simulation time: 1 hr 9 min 25 sec) 
Heartbeat CPU 0 instructions: 108000000 cycles: 151822813 heartbeat IPC: 0.565612 cumulative IPC: 0.477729 (Simulation time: 1 hr 9 min 58 sec) 
Heartbeat CPU 0 instructions: 109000003 cycles: 153519838 heartbeat IPC: 0.589268 cumulative IPC: 0.479266 (Simulation time: 1 hr 10 min 34 sec) 
Heartbeat CPU 0 instructions: 110000002 cycles: 155268657 heartbeat IPC: 0.571814 cumulative IPC: 0.480563 (Simulation time: 1 hr 11 min 7 sec) 
Heartbeat CPU 0 instructions: 111000002 cycles: 157039458 heartbeat IPC: 0.564716 cumulative IPC: 0.481739 (Simulation time: 1 hr 11 min 39 sec) 
Heartbeat CPU 0 instructions: 112000000 cycles: 158810587 heartbeat IPC: 0.56461 cumulative IPC: 0.482883 (Simulation time: 1 hr 12 min 12 sec) 
Heartbeat CPU 0 instructions: 113000002 cycles: 160566819 heartbeat IPC: 0.569402 cumulative IPC: 0.48405 (Simulation time: 1 hr 12 min 43 sec) 
Heartbeat CPU 0 instructions: 114000002 cycles: 162259664 heartbeat IPC: 0.590722 cumulative IPC: 0.48542 (Simulation time: 1 hr 13 min 13 sec) 
Heartbeat CPU 0 instructions: 115000001 cycles: 164693286 heartbeat IPC: 0.41091 cumulative IPC: 0.484069 (Simulation time: 1 hr 13 min 45 sec) 
Heartbeat CPU 0 instructions: 116000000 cycles: 170702258 heartbeat IPC: 0.166418 cumulative IPC: 0.470463 (Simulation time: 1 hr 14 min 21 sec) 
Heartbeat CPU 0 instructions: 117000003 cycles: 172473499 heartbeat IPC: 0.564578 cumulative IPC: 0.471637 (Simulation time: 1 hr 14 min 50 sec) 
Heartbeat CPU 0 instructions: 118000001 cycles: 174173394 heartbeat IPC: 0.58827 cumulative IPC: 0.473016 (Simulation time: 1 hr 15 min 17 sec) 
Heartbeat CPU 0 instructions: 119000001 cycles: 175916256 heartbeat IPC: 0.573769 cumulative IPC: 0.474223 (Simulation time: 1 hr 15 min 43 sec) 
Heartbeat CPU 0 instructions: 120000000 cycles: 177688032 heartbeat IPC: 0.564405 cumulative IPC: 0.475308 (Simulation time: 1 hr 16 min 9 sec) 
Heartbeat CPU 0 instructions: 121000000 cycles: 179460526 heartbeat IPC: 0.564177 cumulative IPC: 0.476364 (Simulation time: 1 hr 16 min 34 sec) 
Heartbeat CPU 0 instructions: 122000003 cycles: 181220268 heartbeat IPC: 0.568267 cumulative IPC: 0.477437 (Simulation time: 1 hr 16 min 57 sec) 
Heartbeat CPU 0 instructions: 123000002 cycles: 182909637 heartbeat IPC: 0.591936 cumulative IPC: 0.478705 (Simulation time: 1 hr 17 min 21 sec) 
Heartbeat CPU 0 instructions: 124000000 cycles: 184677407 heartbeat IPC: 0.565683 cumulative IPC: 0.479702 (Simulation time: 1 hr 17 min 44 sec) 
Heartbeat CPU 0 instructions: 125000001 cycles: 186447169 heartbeat IPC: 0.565048 cumulative IPC: 0.48067 (Simulation time: 1 hr 18 min 8 sec) 
Heartbeat CPU 0 instructions: 126000000 cycles: 188218242 heartbeat IPC: 0.564629 cumulative IPC: 0.481612 (Simulation time: 1 hr 18 min 33 sec) 
Heartbeat CPU 0 instructions: 127000003 cycles: 189942851 heartbeat IPC: 0.579843 cumulative IPC: 0.482674 (Simulation time: 1 hr 18 min 56 sec) 
Heartbeat CPU 0 instructions: 128000000 cycles: 191716962 heartbeat IPC: 0.563661 cumulative IPC: 0.483565 (Simulation time: 1 hr 19 min 17 sec) 
Heartbeat CPU 0 instructions: 129000001 cycles: 198581485 heartbeat IPC: 0.145677 cumulative IPC: 0.469772 (Simulation time: 1 hr 19 min 43 sec) 
Heartbeat CPU 0 instructions: 130000002 cycles: 208123603 heartbeat IPC: 0.104799 cumulative IPC: 0.450175 (Simulation time: 1 hr 20 min 13 sec) 
Heartbeat CPU 0 instructions: 131000002 cycles: 212075555 heartbeat IPC: 0.25304 cumulative IPC: 0.445887 (Simulation time: 1 hr 20 min 37 sec) 
Heartbeat CPU 0 instructions: 132000000 cycles: 213854642 heartbeat IPC: 0.562085 cumulative IPC: 0.447013 (Simulation time: 1 hr 20 min 59 sec) 
Heartbeat CPU 0 instructions: 133000000 cycles: 215555922 heartbeat IPC: 0.587793 cumulative IPC: 0.448307 (Simulation time: 1 hr 21 min 21 sec) 
Heartbeat CPU 0 instructions: 134000003 cycles: 217326632 heartbeat IPC: 0.564747 cumulative IPC: 0.44941 (Simulation time: 1 hr 21 min 41 sec) 
Heartbeat CPU 0 instructions: 135000002 cycles: 219112891 heartbeat IPC: 0.559829 cumulative IPC: 0.450455 (Simulation time: 1 hr 22 min 2 sec) 
Heartbeat CPU 0 instructions: 136000000 cycles: 220903806 heartbeat IPC: 0.558373 cumulative IPC: 0.45147 (Simulation time: 1 hr 22 min 23 sec) 
Heartbeat CPU 0 instructions: 137000001 cycles: 222656372 heartbeat IPC: 0.570592 cumulative IPC: 0.452556 (Simulation time: 1 hr 22 min 44 sec) 
Heartbeat CPU 0 instructions: 138000001 cycles: 224369627 heartbeat IPC: 0.583684 cumulative IPC: 0.453714 (Simulation time: 1 hr 23 min 4 sec) 
Heartbeat CPU 0 instructions: 139000003 cycles: 226150873 heartbeat IPC: 0.561406 cumulative IPC: 0.454694 (Simulation time: 1 hr 23 min 22 sec) 
Heartbeat CPU 0 instructions: 140000000 cycles: 227943549 heartbeat IPC: 0.557824 cumulative IPC: 0.45563 (Simulation time: 1 hr 23 min 41 sec) 
Heartbeat CPU 0 instructions: 141000003 cycles: 229730979 heartbeat IPC: 0.559464 cumulative IPC: 0.456561 (Simulation time: 1 hr 24 min 1 sec) 
Heartbeat CPU 0 instructions: 142000003 cycles: 231452673 heartbeat IPC: 0.580823 cumulative IPC: 0.457626 (Simulation time: 1 hr 24 min 19 sec) 
Heartbeat CPU 0 instructions: 143000002 cycles: 235342617 heartbeat IPC: 0.257073 cumulative IPC: 0.453819 (Simulation time: 1 hr 24 min 37 sec) 
Heartbeat CPU 0 instructions: 144000000 cycles: 240296850 heartbeat IPC: 0.201847 cumulative IPC: 0.447871 (Simulation time: 1 hr 24 min 55 sec) 
Heartbeat CPU 0 instructions: 145000003 cycles: 242037050 heartbeat IPC: 0.574648 cumulative IPC: 0.448913 (Simulation time: 1 hr 25 min 11 sec) 
Heartbeat CPU 0 instructions: 146000001 cycles: 243740273 heartbeat IPC: 0.587121 cumulative IPC: 0.450017 (Simulation time: 1 hr 25 min 27 sec) 
Heartbeat CPU 0 instructions: 147000001 cycles: 245404370 heartbeat IPC: 0.600927 cumulative IPC: 0.451185 (Simulation time: 1 hr 25 min 43 sec) 
Heartbeat CPU 0 instructions: 148000000 cycles: 247140773 heartbeat IPC: 0.575903 cumulative IPC: 0.452184 (Simulation time: 1 hr 25 min 59 sec) 
Heartbeat CPU 0 instructions: 149000000 cycles: 248878141 heartbeat IPC: 0.575583 cumulative IPC: 0.453166 (Simulation time: 1 hr 26 min 15 sec) 
Heartbeat CPU 0 instructions: 150000002 cycles: 250614998 heartbeat IPC: 0.575754 cumulative IPC: 0.454133 (Simulation time: 1 hr 26 min 30 sec) 
Finished CPU 0 instructions: 100000002 cycles: 220200015 cummulative IPC: 0.454133 (Simulation time: 1 hr 26 min 30 sec) 

ChampSim completed all CPUs

Region of Interest Statistics

CPU 0 cummulative IPC: 0.454133 instructions: 100000002 cycles: 220200015
LLC TOTAL     ACCESS:    1242556  HIT:     322465  MISS:     920091
LLC LOAD      ACCESS:      28213  HIT:       3190  MISS:      25023
LLC RFO       ACCESS:     290712  HIT:      85840  MISS:     204872
LLC PREFETCH  ACCESS:     631237  HIT:     103219  MISS:     528018
LLC WRITEBACK ACCESS:     292394  HIT:     130216  MISS:     162178
OPTgen accesses: 7333
OPTgen hits: 2642
OPTgen hit rate: 36.0289


