
*** ChampSim Multicore Out-of-Order Simulator ***

Warmup Instructions: 50000000
Simulation Instructions: 100000000
Configuration: 2
Number of CPUs: 1
LLC sets: 2048
LLC ways: 16
Off-chip DRAM Channels: 1 Width: 64-bit Data Rate: 1600 MT/s

CPU 0 runs /datasets/cs240c-wi22-a00-public/data/Assignment2-gz/gcc_56B.trace.gz
CPU 0 L1D next line prefetcher
CPU 0 L2C IP-based stride prefetcher
Initialize Hawkeye state
Heartbeat CPU 0 instructions: 1000003 cycles: 954151 heartbeat IPC: 1.04806 cumulative IPC: 1.04806 (Simulation time: 0 hr 0 min 44 sec) 
Heartbeat CPU 0 instructions: 2000001 cycles: 1898349 heartbeat IPC: 1.0591 cumulative IPC: 1.05355 (Simulation time: 0 hr 1 min 29 sec) 
Heartbeat CPU 0 instructions: 3000001 cycles: 2885593 heartbeat IPC: 1.01292 cumulative IPC: 1.03965 (Simulation time: 0 hr 2 min 11 sec) 
Heartbeat CPU 0 instructions: 4000000 cycles: 3848221 heartbeat IPC: 1.03882 cumulative IPC: 1.03944 (Simulation time: 0 hr 2 min 51 sec) 
Heartbeat CPU 0 instructions: 5000002 cycles: 4737701 heartbeat IPC: 1.12425 cumulative IPC: 1.05536 (Simulation time: 0 hr 3 min 27 sec) 
Heartbeat CPU 0 instructions: 6000000 cycles: 5685656 heartbeat IPC: 1.0549 cumulative IPC: 1.05529 (Simulation time: 0 hr 4 min 7 sec) 
Heartbeat CPU 0 instructions: 7000000 cycles: 6649890 heartbeat IPC: 1.03709 cumulative IPC: 1.05265 (Simulation time: 0 hr 4 min 46 sec) 
Heartbeat CPU 0 instructions: 8000000 cycles: 7611113 heartbeat IPC: 1.04034 cumulative IPC: 1.05109 (Simulation time: 0 hr 5 min 27 sec) 
Heartbeat CPU 0 instructions: 9000000 cycles: 8622586 heartbeat IPC: 0.988657 cumulative IPC: 1.04377 (Simulation time: 0 hr 6 min 4 sec) 
Heartbeat CPU 0 instructions: 10000002 cycles: 9583098 heartbeat IPC: 1.04111 cumulative IPC: 1.0435 (Simulation time: 0 hr 6 min 46 sec) 
Heartbeat CPU 0 instructions: 11000002 cycles: 10472394 heartbeat IPC: 1.12449 cumulative IPC: 1.05038 (Simulation time: 0 hr 7 min 23 sec) 
Heartbeat CPU 0 instructions: 12000000 cycles: 11357926 heartbeat IPC: 1.12926 cumulative IPC: 1.05653 (Simulation time: 0 hr 7 min 59 sec) 
Heartbeat CPU 0 instructions: 13000001 cycles: 12297173 heartbeat IPC: 1.06468 cumulative IPC: 1.05715 (Simulation time: 0 hr 8 min 37 sec) 
Heartbeat CPU 0 instructions: 14000000 cycles: 13290644 heartbeat IPC: 1.00657 cumulative IPC: 1.05337 (Simulation time: 0 hr 9 min 22 sec) 
Heartbeat CPU 0 instructions: 15000003 cycles: 14246131 heartbeat IPC: 1.04659 cumulative IPC: 1.05292 (Simulation time: 0 hr 10 min 0 sec) 
Heartbeat CPU 0 instructions: 16000000 cycles: 15246173 heartbeat IPC: 0.999955 cumulative IPC: 1.04944 (Simulation time: 0 hr 10 min 40 sec) 
Heartbeat CPU 0 instructions: 17000001 cycles: 16221156 heartbeat IPC: 1.02566 cumulative IPC: 1.04801 (Simulation time: 0 hr 11 min 22 sec) 
Heartbeat CPU 0 instructions: 18000000 cycles: 17121986 heartbeat IPC: 1.11009 cumulative IPC: 1.05128 (Simulation time: 0 hr 12 min 6 sec) 
Heartbeat CPU 0 instructions: 19000000 cycles: 18045880 heartbeat IPC: 1.08238 cumulative IPC: 1.05287 (Simulation time: 0 hr 12 min 49 sec) 
Heartbeat CPU 0 instructions: 20000000 cycles: 18990389 heartbeat IPC: 1.05875 cumulative IPC: 1.05316 (Simulation time: 0 hr 13 min 33 sec) 
Heartbeat CPU 0 instructions: 21000000 cycles: 19947020 heartbeat IPC: 1.04534 cumulative IPC: 1.05279 (Simulation time: 0 hr 14 min 9 sec) 
Heartbeat CPU 0 instructions: 22000000 cycles: 20939404 heartbeat IPC: 1.00767 cumulative IPC: 1.05065 (Simulation time: 0 hr 14 min 53 sec) 
Heartbeat CPU 0 instructions: 23000000 cycles: 21860054 heartbeat IPC: 1.08619 cumulative IPC: 1.05215 (Simulation time: 0 hr 15 min 28 sec) 
Heartbeat CPU 0 instructions: 24000000 cycles: 22777464 heartbeat IPC: 1.09003 cumulative IPC: 1.05367 (Simulation time: 0 hr 16 min 9 sec) 
Heartbeat CPU 0 instructions: 25000000 cycles: 23713196 heartbeat IPC: 1.06868 cumulative IPC: 1.05427 (Simulation time: 0 hr 16 min 48 sec) 
Heartbeat CPU 0 instructions: 26000002 cycles: 24633683 heartbeat IPC: 1.08638 cumulative IPC: 1.05547 (Simulation time: 0 hr 17 min 26 sec) 
Heartbeat CPU 0 instructions: 27000000 cycles: 25585995 heartbeat IPC: 1.05007 cumulative IPC: 1.05526 (Simulation time: 0 hr 18 min 6 sec) 
Heartbeat CPU 0 instructions: 28000000 cycles: 26583766 heartbeat IPC: 1.00223 cumulative IPC: 1.05327 (Simulation time: 0 hr 18 min 43 sec) 
Heartbeat CPU 0 instructions: 29000000 cycles: 27583172 heartbeat IPC: 1.00059 cumulative IPC: 1.05137 (Simulation time: 0 hr 19 min 24 sec) 
Heartbeat CPU 0 instructions: 30000000 cycles: 28562056 heartbeat IPC: 1.02157 cumulative IPC: 1.05034 (Simulation time: 0 hr 20 min 5 sec) 
Heartbeat CPU 0 instructions: 31000000 cycles: 29476451 heartbeat IPC: 1.09362 cumulative IPC: 1.05169 (Simulation time: 0 hr 20 min 44 sec) 
Heartbeat CPU 0 instructions: 32000000 cycles: 30387155 heartbeat IPC: 1.09805 cumulative IPC: 1.05308 (Simulation time: 0 hr 21 min 25 sec) 
Heartbeat CPU 0 instructions: 33000002 cycles: 31312872 heartbeat IPC: 1.08025 cumulative IPC: 1.05388 (Simulation time: 0 hr 22 min 1 sec) 
Heartbeat CPU 0 instructions: 34000002 cycles: 32279386 heartbeat IPC: 1.03465 cumulative IPC: 1.0533 (Simulation time: 0 hr 22 min 45 sec) 
Heartbeat CPU 0 instructions: 35000002 cycles: 33244050 heartbeat IPC: 1.03663 cumulative IPC: 1.05282 (Simulation time: 0 hr 23 min 24 sec) 
Heartbeat CPU 0 instructions: 36000000 cycles: 34239322 heartbeat IPC: 1.00475 cumulative IPC: 1.05142 (Simulation time: 0 hr 24 min 0 sec) 
Heartbeat CPU 0 instructions: 37000000 cycles: 35205869 heartbeat IPC: 1.03461 cumulative IPC: 1.05096 (Simulation time: 0 hr 24 min 34 sec) 
Heartbeat CPU 0 instructions: 38000002 cycles: 36155161 heartbeat IPC: 1.05342 cumulative IPC: 1.05103 (Simulation time: 0 hr 25 min 10 sec) 
Heartbeat CPU 0 instructions: 39000000 cycles: 37066141 heartbeat IPC: 1.09772 cumulative IPC: 1.05217 (Simulation time: 0 hr 25 min 51 sec) 
Heartbeat CPU 0 instructions: 40000000 cycles: 38010461 heartbeat IPC: 1.05896 cumulative IPC: 1.05234 (Simulation time: 0 hr 26 min 30 sec) 
Heartbeat CPU 0 instructions: 41000001 cycles: 38985294 heartbeat IPC: 1.02582 cumulative IPC: 1.05168 (Simulation time: 0 hr 27 min 5 sec) 
Heartbeat CPU 0 instructions: 42000003 cycles: 39974546 heartbeat IPC: 1.01087 cumulative IPC: 1.05067 (Simulation time: 0 hr 27 min 46 sec) 
Heartbeat CPU 0 instructions: 43000001 cycles: 40938705 heartbeat IPC: 1.03717 cumulative IPC: 1.05035 (Simulation time: 0 hr 28 min 24 sec) 
Heartbeat CPU 0 instructions: 44000000 cycles: 41869467 heartbeat IPC: 1.07439 cumulative IPC: 1.05089 (Simulation time: 0 hr 29 min 5 sec) 
Heartbeat CPU 0 instructions: 45000000 cycles: 42778766 heartbeat IPC: 1.09975 cumulative IPC: 1.05192 (Simulation time: 0 hr 29 min 46 sec) 
Heartbeat CPU 0 instructions: 46000001 cycles: 43731189 heartbeat IPC: 1.04995 cumulative IPC: 1.05188 (Simulation time: 0 hr 30 min 28 sec) 
Heartbeat CPU 0 instructions: 47000001 cycles: 44686071 heartbeat IPC: 1.04725 cumulative IPC: 1.05178 (Simulation time: 0 hr 31 min 6 sec) 
Heartbeat CPU 0 instructions: 48000000 cycles: 45666151 heartbeat IPC: 1.02032 cumulative IPC: 1.05111 (Simulation time: 0 hr 31 min 48 sec) 
Heartbeat CPU 0 instructions: 49000002 cycles: 46667610 heartbeat IPC: 0.998545 cumulative IPC: 1.04998 (Simulation time: 0 hr 32 min 26 sec) 
Heartbeat CPU 0 instructions: 50000000 cycles: 47652575 heartbeat IPC: 1.01526 cumulative IPC: 1.04926 (Simulation time: 0 hr 33 min 5 sec) 

Warmup complete CPU 0 instructions: 50000001 cycles: 47652577 (Simulation time: 0 hr 33 min 5 sec) 

Heartbeat CPU 0 instructions: 51000000 cycles: 49006111 heartbeat IPC: 0.738806 cumulative IPC: 0.738806 (Simulation time: 0 hr 33 min 46 sec) 
Heartbeat CPU 0 instructions: 52000000 cycles: 50397136 heartbeat IPC: 0.718894 cumulative IPC: 0.728714 (Simulation time: 0 hr 34 min 27 sec) 
Heartbeat CPU 0 instructions: 53000001 cycles: 51734213 heartbeat IPC: 0.747901 cumulative IPC: 0.734999 (Simulation time: 0 hr 35 min 2 sec) 
Heartbeat CPU 0 instructions: 54000000 cycles: 53049768 heartbeat IPC: 0.760135 cumulative IPC: 0.741126 (Simulation time: 0 hr 35 min 45 sec) 
Heartbeat CPU 0 instructions: 55000001 cycles: 54355803 heartbeat IPC: 0.765677 cumulative IPC: 0.74591 (Simulation time: 0 hr 36 min 31 sec) 
Heartbeat CPU 0 instructions: 56000000 cycles: 55679916 heartbeat IPC: 0.755222 cumulative IPC: 0.747446 (Simulation time: 0 hr 37 min 9 sec) 
Heartbeat CPU 0 instructions: 57000001 cycles: 57012580 heartbeat IPC: 0.750377 cumulative IPC: 0.747863 (Simulation time: 0 hr 37 min 47 sec) 
Heartbeat CPU 0 instructions: 58000000 cycles: 58386621 heartbeat IPC: 0.72778 cumulative IPC: 0.745292 (Simulation time: 0 hr 38 min 27 sec) 
Heartbeat CPU 0 instructions: 59000000 cycles: 59781120 heartbeat IPC: 0.717103 cumulative IPC: 0.742051 (Simulation time: 0 hr 39 min 4 sec) 
Heartbeat CPU 0 instructions: 60000000 cycles: 61157399 heartbeat IPC: 0.726597 cumulative IPC: 0.740476 (Simulation time: 0 hr 39 min 44 sec) 
Heartbeat CPU 0 instructions: 61000000 cycles: 62488460 heartbeat IPC: 0.75128 cumulative IPC: 0.741446 (Simulation time: 0 hr 40 min 25 sec) 
Heartbeat CPU 0 instructions: 62000002 cycles: 63849738 heartbeat IPC: 0.734605 cumulative IPC: 0.740871 (Simulation time: 0 hr 41 min 5 sec) 
Heartbeat CPU 0 instructions: 63000003 cycles: 65165358 heartbeat IPC: 0.760099 cumulative IPC: 0.742315 (Simulation time: 0 hr 41 min 45 sec) 
Heartbeat CPU 0 instructions: 64000000 cycles: 66484783 heartbeat IPC: 0.757904 cumulative IPC: 0.743407 (Simulation time: 0 hr 42 min 23 sec) 
Heartbeat CPU 0 instructions: 65000000 cycles: 67827772 heartbeat IPC: 0.744608 cumulative IPC: 0.743487 (Simulation time: 0 hr 42 min 58 sec) 
Heartbeat CPU 0 instructions: 66000002 cycles: 69217608 heartbeat IPC: 0.719511 cumulative IPC: 0.741942 (Simulation time: 0 hr 43 min 40 sec) 
Heartbeat CPU 0 instructions: 67000002 cycles: 70605296 heartbeat IPC: 0.720623 cumulative IPC: 0.740653 (Simulation time: 0 hr 44 min 22 sec) 
Heartbeat CPU 0 instructions: 68000000 cycles: 71955567 heartbeat IPC: 0.740591 cumulative IPC: 0.74065 (Simulation time: 0 hr 45 min 12 sec) 
Heartbeat CPU 0 instructions: 69000000 cycles: 73283558 heartbeat IPC: 0.753017 cumulative IPC: 0.74129 (Simulation time: 0 hr 46 min 4 sec) 
Heartbeat CPU 0 instructions: 70000000 cycles: 74609709 heartbeat IPC: 0.754062 cumulative IPC: 0.741919 (Simulation time: 0 hr 46 min 53 sec) 
Heartbeat CPU 0 instructions: 71000003 cycles: 75952061 heartbeat IPC: 0.744963 cumulative IPC: 0.742063 (Simulation time: 0 hr 47 min 37 sec) 
Heartbeat CPU 0 instructions: 72000000 cycles: 77288541 heartbeat IPC: 0.748232 cumulative IPC: 0.742341 (Simulation time: 0 hr 48 min 19 sec) 
Heartbeat CPU 0 instructions: 73000003 cycles: 78654331 heartbeat IPC: 0.732179 cumulative IPC: 0.741894 (Simulation time: 0 hr 49 min 1 sec) 
Heartbeat CPU 0 instructions: 74000001 cycles: 80051594 heartbeat IPC: 0.715683 cumulative IPC: 0.740763 (Simulation time: 0 hr 49 min 48 sec) 
Heartbeat CPU 0 instructions: 75000003 cycles: 81424102 heartbeat IPC: 0.728595 cumulative IPC: 0.740269 (Simulation time: 0 hr 50 min 37 sec) 
Heartbeat CPU 0 instructions: 76000000 cycles: 82766333 heartbeat IPC: 0.745026 cumulative IPC: 0.740451 (Simulation time: 0 hr 51 min 26 sec) 
Heartbeat CPU 0 instructions: 77000003 cycles: 84100405 heartbeat IPC: 0.749587 cumulative IPC: 0.740785 (Simulation time: 0 hr 52 min 11 sec) 
Heartbeat CPU 0 instructions: 78000001 cycles: 85432588 heartbeat IPC: 0.750646 cumulative IPC: 0.741133 (Simulation time: 0 hr 52 min 59 sec) 
Heartbeat CPU 0 instructions: 79000000 cycles: 86788323 heartbeat IPC: 0.737607 cumulative IPC: 0.74101 (Simulation time: 0 hr 53 min 42 sec) 
Heartbeat CPU 0 instructions: 80000000 cycles: 88134633 heartbeat IPC: 0.742771 cumulative IPC: 0.741069 (Simulation time: 0 hr 54 min 22 sec) 
Heartbeat CPU 0 instructions: 81000002 cycles: 89511184 heartbeat IPC: 0.726455 cumulative IPC: 0.740588 (Simulation time: 0 hr 55 min 6 sec) 
Heartbeat CPU 0 instructions: 82000000 cycles: 90881135 heartbeat IPC: 0.729952 cumulative IPC: 0.740251 (Simulation time: 0 hr 55 min 49 sec) 
Heartbeat CPU 0 instructions: 83000003 cycles: 92212514 heartbeat IPC: 0.751103 cumulative IPC: 0.740576 (Simulation time: 0 hr 56 min 29 sec) 
Heartbeat CPU 0 instructions: 84000000 cycles: 93554662 heartbeat IPC: 0.745072 cumulative IPC: 0.740707 (Simulation time: 0 hr 57 min 7 sec) 
Heartbeat CPU 0 instructions: 85000002 cycles: 94867839 heartbeat IPC: 0.761513 cumulative IPC: 0.741286 (Simulation time: 0 hr 57 min 46 sec) 
Heartbeat CPU 0 instructions: 86000003 cycles: 96169909 heartbeat IPC: 0.768009 cumulative IPC: 0.742003 (Simulation time: 0 hr 58 min 23 sec) 
Heartbeat CPU 0 instructions: 87000000 cycles: 97550398 heartbeat IPC: 0.724379 cumulative IPC: 0.741515 (Simulation time: 0 hr 58 min 59 sec) 
Heartbeat CPU 0 instructions: 88000000 cycles: 98900519 heartbeat IPC: 0.740674 cumulative IPC: 0.741493 (Simulation time: 0 hr 59 min 38 sec) 
Heartbeat CPU 0 instructions: 89000000 cycles: 100260577 heartbeat IPC: 0.735263 cumulative IPC: 0.741332 (Simulation time: 1 hr 0 min 16 sec) 
Heartbeat CPU 0 instructions: 90000000 cycles: 101577379 heartbeat IPC: 0.759416 cumulative IPC: 0.741774 (Simulation time: 1 hr 0 min 54 sec) 
Heartbeat CPU 0 instructions: 91000001 cycles: 102883173 heartbeat IPC: 0.765818 cumulative IPC: 0.742342 (Simulation time: 1 hr 1 min 30 sec) 
Heartbeat CPU 0 instructions: 92000000 cycles: 104200353 heartbeat IPC: 0.759197 cumulative IPC: 0.742735 (Simulation time: 1 hr 2 min 7 sec) 
Heartbeat CPU 0 instructions: 93000003 cycles: 105583174 heartbeat IPC: 0.723162 cumulative IPC: 0.742268 (Simulation time: 1 hr 2 min 53 sec) 
Heartbeat CPU 0 instructions: 94000000 cycles: 106925581 heartbeat IPC: 0.744928 cumulative IPC: 0.742328 (Simulation time: 1 hr 3 min 34 sec) 
Heartbeat CPU 0 instructions: 95000000 cycles: 108277251 heartbeat IPC: 0.739826 cumulative IPC: 0.742272 (Simulation time: 1 hr 4 min 19 sec) 
Heartbeat CPU 0 instructions: 96000000 cycles: 109609339 heartbeat IPC: 0.750701 cumulative IPC: 0.742453 (Simulation time: 1 hr 5 min 2 sec) 
Heartbeat CPU 0 instructions: 97000000 cycles: 110919966 heartbeat IPC: 0.762994 cumulative IPC: 0.742879 (Simulation time: 1 hr 5 min 46 sec) 
Heartbeat CPU 0 instructions: 98000003 cycles: 112228781 heartbeat IPC: 0.764052 cumulative IPC: 0.743308 (Simulation time: 1 hr 6 min 28 sec) 
Heartbeat CPU 0 instructions: 99000000 cycles: 113615933 heartbeat IPC: 0.720899 cumulative IPC: 0.742837 (Simulation time: 1 hr 7 min 6 sec) 
Heartbeat CPU 0 instructions: 100000000 cycles: 114957685 heartbeat IPC: 0.745294 cumulative IPC: 0.742886 (Simulation time: 1 hr 7 min 50 sec) 
Heartbeat CPU 0 instructions: 101000000 cycles: 116304742 heartbeat IPC: 0.742359 cumulative IPC: 0.742875 (Simulation time: 1 hr 8 min 29 sec) 
Heartbeat CPU 0 instructions: 102000001 cycles: 117618932 heartbeat IPC: 0.760926 cumulative IPC: 0.743214 (Simulation time: 1 hr 9 min 15 sec) 
Heartbeat CPU 0 instructions: 103000001 cycles: 118920862 heartbeat IPC: 0.76809 cumulative IPC: 0.743669 (Simulation time: 1 hr 9 min 52 sec) 
Heartbeat CPU 0 instructions: 104000000 cycles: 120224033 heartbeat IPC: 0.767358 cumulative IPC: 0.744094 (Simulation time: 1 hr 10 min 30 sec) 
Heartbeat CPU 0 instructions: 105000002 cycles: 121602560 heartbeat IPC: 0.725413 cumulative IPC: 0.743746 (Simulation time: 1 hr 11 min 15 sec) 
Heartbeat CPU 0 instructions: 106000000 cycles: 123006547 heartbeat IPC: 0.712256 cumulative IPC: 0.743159 (Simulation time: 1 hr 11 min 49 sec) 
Heartbeat CPU 0 instructions: 107000002 cycles: 124396181 heartbeat IPC: 0.719615 cumulative IPC: 0.742733 (Simulation time: 1 hr 12 min 26 sec) 
Heartbeat CPU 0 instructions: 108000000 cycles: 125752255 heartbeat IPC: 0.737421 cumulative IPC: 0.742641 (Simulation time: 1 hr 13 min 3 sec) 
Heartbeat CPU 0 instructions: 109000000 cycles: 127088528 heartbeat IPC: 0.74835 cumulative IPC: 0.742737 (Simulation time: 1 hr 13 min 39 sec) 
Heartbeat CPU 0 instructions: 110000000 cycles: 128417470 heartbeat IPC: 0.752478 cumulative IPC: 0.742897 (Simulation time: 1 hr 14 min 20 sec) 
Heartbeat CPU 0 instructions: 111000000 cycles: 129753595 heartbeat IPC: 0.748433 cumulative IPC: 0.742987 (Simulation time: 1 hr 14 min 57 sec) 
Heartbeat CPU 0 instructions: 112000000 cycles: 131142866 heartbeat IPC: 0.719802 cumulative IPC: 0.742601 (Simulation time: 1 hr 15 min 36 sec) 
Heartbeat CPU 0 instructions: 113000000 cycles: 132515423 heartbeat IPC: 0.728567 cumulative IPC: 0.742374 (Simulation time: 1 hr 16 min 13 sec) 
Heartbeat CPU 0 instructions: 114000001 cycles: 133843671 heartbeat IPC: 0.752872 cumulative IPC: 0.742536 (Simulation time: 1 hr 16 min 45 sec) 
Heartbeat CPU 0 instructions: 115000000 cycles: 135201983 heartbeat IPC: 0.736207 cumulative IPC: 0.742438 (Simulation time: 1 hr 17 min 17 sec) 
Heartbeat CPU 0 instructions: 116000000 cycles: 136519471 heartbeat IPC: 0.75902 cumulative IPC: 0.742684 (Simulation time: 1 hr 17 min 49 sec) 
Heartbeat CPU 0 instructions: 117000000 cycles: 137828007 heartbeat IPC: 0.764213 cumulative IPC: 0.742996 (Simulation time: 1 hr 18 min 19 sec) 
Heartbeat CPU 0 instructions: 118000002 cycles: 139196665 heartbeat IPC: 0.730644 cumulative IPC: 0.742812 (Simulation time: 1 hr 18 min 46 sec) 
Heartbeat CPU 0 instructions: 119000000 cycles: 140601138 heartbeat IPC: 0.712009 cumulative IPC: 0.742346 (Simulation time: 1 hr 19 min 14 sec) 
Heartbeat CPU 0 instructions: 120000000 cycles: 142032216 heartbeat IPC: 0.698774 cumulative IPC: 0.741685 (Simulation time: 1 hr 19 min 41 sec) 
Heartbeat CPU 0 instructions: 121000000 cycles: 143388269 heartbeat IPC: 0.737434 cumulative IPC: 0.741625 (Simulation time: 1 hr 20 min 12 sec) 
Heartbeat CPU 0 instructions: 122000003 cycles: 144721974 heartbeat IPC: 0.749793 cumulative IPC: 0.741737 (Simulation time: 1 hr 20 min 39 sec) 
Heartbeat CPU 0 instructions: 123000003 cycles: 146050433 heartbeat IPC: 0.752752 cumulative IPC: 0.741886 (Simulation time: 1 hr 21 min 3 sec) 
Heartbeat CPU 0 instructions: 124000000 cycles: 147388754 heartbeat IPC: 0.747203 cumulative IPC: 0.741957 (Simulation time: 1 hr 21 min 26 sec) 
Heartbeat CPU 0 instructions: 125000001 cycles: 148776547 heartbeat IPC: 0.720569 cumulative IPC: 0.741664 (Simulation time: 1 hr 21 min 49 sec) 
Heartbeat CPU 0 instructions: 126000000 cycles: 150106679 heartbeat IPC: 0.751804 cumulative IPC: 0.741796 (Simulation time: 1 hr 22 min 10 sec) 
Heartbeat CPU 0 instructions: 127000003 cycles: 151446846 heartbeat IPC: 0.746178 cumulative IPC: 0.741852 (Simulation time: 1 hr 22 min 32 sec) 
Heartbeat CPU 0 instructions: 128000000 cycles: 152760341 heartbeat IPC: 0.761325 cumulative IPC: 0.742096 (Simulation time: 1 hr 22 min 53 sec) 
Heartbeat CPU 0 instructions: 129000003 cycles: 154062615 heartbeat IPC: 0.76789 cumulative IPC: 0.742411 (Simulation time: 1 hr 23 min 15 sec) 
Heartbeat CPU 0 instructions: 130000000 cycles: 155359314 heartbeat IPC: 0.771187 cumulative IPC: 0.742758 (Simulation time: 1 hr 23 min 34 sec) 
Heartbeat CPU 0 instructions: 131000000 cycles: 156734677 heartbeat IPC: 0.727081 cumulative IPC: 0.74256 (Simulation time: 1 hr 23 min 55 sec) 
Heartbeat CPU 0 instructions: 132000000 cycles: 158131783 heartbeat IPC: 0.715765 cumulative IPC: 0.742221 (Simulation time: 1 hr 24 min 15 sec) 
Heartbeat CPU 0 instructions: 133000003 cycles: 159508111 heartbeat IPC: 0.726573 cumulative IPC: 0.742029 (Simulation time: 1 hr 24 min 36 sec) 
Heartbeat CPU 0 instructions: 134000000 cycles: 160855375 heartbeat IPC: 0.742243 cumulative IPC: 0.742031 (Simulation time: 1 hr 24 min 55 sec) 
Heartbeat CPU 0 instructions: 135000002 cycles: 162175629 heartbeat IPC: 0.757432 cumulative IPC: 0.742209 (Simulation time: 1 hr 25 min 15 sec) 
Heartbeat CPU 0 instructions: 136000000 cycles: 163481831 heartbeat IPC: 0.765577 cumulative IPC: 0.742472 (Simulation time: 1 hr 25 min 34 sec) 
Heartbeat CPU 0 instructions: 137000003 cycles: 164815906 heartbeat IPC: 0.749585 cumulative IPC: 0.742553 (Simulation time: 1 hr 25 min 52 sec) 
Heartbeat CPU 0 instructions: 138000003 cycles: 166165653 heartbeat IPC: 0.74088 cumulative IPC: 0.742534 (Simulation time: 1 hr 26 min 10 sec) 
Heartbeat CPU 0 instructions: 139000000 cycles: 167554579 heartbeat IPC: 0.719979 cumulative IPC: 0.742273 (Simulation time: 1 hr 26 min 27 sec) 
Heartbeat CPU 0 instructions: 140000000 cycles: 168879755 heartbeat IPC: 0.754617 cumulative IPC: 0.742408 (Simulation time: 1 hr 26 min 42 sec) 
Heartbeat CPU 0 instructions: 141000001 cycles: 170201339 heartbeat IPC: 0.756669 cumulative IPC: 0.742562 (Simulation time: 1 hr 26 min 58 sec) 
Heartbeat CPU 0 instructions: 142000000 cycles: 171502183 heartbeat IPC: 0.768731 cumulative IPC: 0.742836 (Simulation time: 1 hr 27 min 13 sec) 
Heartbeat CPU 0 instructions: 143000003 cycles: 172827315 heartbeat IPC: 0.754644 cumulative IPC: 0.742961 (Simulation time: 1 hr 27 min 29 sec) 
Heartbeat CPU 0 instructions: 144000000 cycles: 174172722 heartbeat IPC: 0.743267 cumulative IPC: 0.742965 (Simulation time: 1 hr 27 min 45 sec) 
Heartbeat CPU 0 instructions: 145000001 cycles: 175563858 heartbeat IPC: 0.718838 cumulative IPC: 0.742702 (Simulation time: 1 hr 27 min 59 sec) 
Heartbeat CPU 0 instructions: 146000000 cycles: 176971709 heartbeat IPC: 0.710302 cumulative IPC: 0.74235 (Simulation time: 1 hr 28 min 14 sec) 
Heartbeat CPU 0 instructions: 147000001 cycles: 178327304 heartbeat IPC: 0.737684 cumulative IPC: 0.742301 (Simulation time: 1 hr 28 min 30 sec) 
Heartbeat CPU 0 instructions: 148000000 cycles: 179653529 heartbeat IPC: 0.754019 cumulative IPC: 0.742419 (Simulation time: 1 hr 28 min 46 sec) 
Heartbeat CPU 0 instructions: 149000000 cycles: 180968408 heartbeat IPC: 0.760526 cumulative IPC: 0.742597 (Simulation time: 1 hr 29 min 0 sec) 
Heartbeat CPU 0 instructions: 150000000 cycles: 182289183 heartbeat IPC: 0.757131 cumulative IPC: 0.74274 (Simulation time: 1 hr 29 min 15 sec) 
Finished CPU 0 instructions: 100000000 cycles: 134636615 cummulative IPC: 0.74274 (Simulation time: 1 hr 29 min 15 sec) 

ChampSim completed all CPUs

Region of Interest Statistics

CPU 0 cummulative IPC: 0.74274 instructions: 100000000 cycles: 134636615
LLC TOTAL     ACCESS:   21168195  HIT:   21092249  MISS:      75946
LLC LOAD      ACCESS:     165331  HIT:     129096  MISS:      36235
LLC RFO       ACCESS:   10374956  HIT:   10369314  MISS:       5642
LLC PREFETCH  ACCESS:     183346  HIT:     149598  MISS:      33748
LLC WRITEBACK ACCESS:   10444562  HIT:   10444241  MISS:        321
OPTgen accesses: 250930
OPTgen hits: 251962
OPTgen hit rate: 100.411


