
*** ChampSim Multicore Out-of-Order Simulator ***

Warmup Instructions: 50000000
Simulation Instructions: 100000000
Configuration: 2
Number of CPUs: 1
LLC sets: 2048
LLC ways: 16
Off-chip DRAM Channels: 1 Width: 64-bit Data Rate: 1600 MT/s

CPU 0 runs /datasets/cs240c-wi22-a00-public/data/Assignment2-gz/lbm_1004B.trace.gz
CPU 0 L1D next line prefetcher
CPU 0 L2C IP-based stride prefetcher
Initialize Hawkeye state
Heartbeat CPU 0 instructions: 1000002 cycles: 391414 heartbeat IPC: 2.55484 cumulative IPC: 2.55484 (Simulation time: 0 hr 0 min 31 sec) 
Heartbeat CPU 0 instructions: 2000001 cycles: 782838 heartbeat IPC: 2.55477 cumulative IPC: 2.55481 (Simulation time: 0 hr 1 min 0 sec) 
Heartbeat CPU 0 instructions: 3000001 cycles: 1174187 heartbeat IPC: 2.55526 cumulative IPC: 2.55496 (Simulation time: 0 hr 1 min 34 sec) 
Heartbeat CPU 0 instructions: 4000000 cycles: 1570369 heartbeat IPC: 2.52409 cumulative IPC: 2.54717 (Simulation time: 0 hr 2 min 4 sec) 
Heartbeat CPU 0 instructions: 5000002 cycles: 1961789 heartbeat IPC: 2.55481 cumulative IPC: 2.5487 (Simulation time: 0 hr 2 min 33 sec) 
Heartbeat CPU 0 instructions: 6000002 cycles: 2353157 heartbeat IPC: 2.55514 cumulative IPC: 2.54977 (Simulation time: 0 hr 3 min 4 sec) 
Heartbeat CPU 0 instructions: 7000003 cycles: 2749265 heartbeat IPC: 2.52457 cumulative IPC: 2.54614 (Simulation time: 0 hr 3 min 31 sec) 
Heartbeat CPU 0 instructions: 8000000 cycles: 3140616 heartbeat IPC: 2.55524 cumulative IPC: 2.54727 (Simulation time: 0 hr 4 min 2 sec) 
Heartbeat CPU 0 instructions: 9000003 cycles: 3532040 heartbeat IPC: 2.55478 cumulative IPC: 2.5481 (Simulation time: 0 hr 4 min 32 sec) 
Heartbeat CPU 0 instructions: 10000000 cycles: 3923405 heartbeat IPC: 2.55515 cumulative IPC: 2.54881 (Simulation time: 0 hr 5 min 3 sec) 
Heartbeat CPU 0 instructions: 11000000 cycles: 4319645 heartbeat IPC: 2.52372 cumulative IPC: 2.54651 (Simulation time: 0 hr 5 min 33 sec) 
Heartbeat CPU 0 instructions: 12000000 cycles: 4710973 heartbeat IPC: 2.5554 cumulative IPC: 2.54724 (Simulation time: 0 hr 6 min 3 sec) 
Heartbeat CPU 0 instructions: 13000002 cycles: 5102381 heartbeat IPC: 2.55488 cumulative IPC: 2.54783 (Simulation time: 0 hr 6 min 38 sec) 
Heartbeat CPU 0 instructions: 14000003 cycles: 5498552 heartbeat IPC: 2.52417 cumulative IPC: 2.54613 (Simulation time: 0 hr 7 min 12 sec) 
Heartbeat CPU 0 instructions: 15000003 cycles: 5889984 heartbeat IPC: 2.55472 cumulative IPC: 2.5467 (Simulation time: 0 hr 7 min 44 sec) 
Heartbeat CPU 0 instructions: 16000000 cycles: 6281385 heartbeat IPC: 2.55492 cumulative IPC: 2.54721 (Simulation time: 0 hr 8 min 22 sec) 
Heartbeat CPU 0 instructions: 17000000 cycles: 6677550 heartbeat IPC: 2.5242 cumulative IPC: 2.54584 (Simulation time: 0 hr 8 min 53 sec) 
Heartbeat CPU 0 instructions: 18000000 cycles: 7068933 heartbeat IPC: 2.55504 cumulative IPC: 2.54635 (Simulation time: 0 hr 9 min 26 sec) 
Heartbeat CPU 0 instructions: 19000003 cycles: 7460293 heartbeat IPC: 2.5552 cumulative IPC: 2.54682 (Simulation time: 0 hr 9 min 54 sec) 
Heartbeat CPU 0 instructions: 20000000 cycles: 7851689 heartbeat IPC: 2.55495 cumulative IPC: 2.54722 (Simulation time: 0 hr 10 min 23 sec) 
Heartbeat CPU 0 instructions: 21000003 cycles: 8247850 heartbeat IPC: 2.52423 cumulative IPC: 2.54612 (Simulation time: 0 hr 10 min 53 sec) 
Heartbeat CPU 0 instructions: 22000002 cycles: 8639313 heartbeat IPC: 2.55452 cumulative IPC: 2.5465 (Simulation time: 0 hr 11 min 21 sec) 
Heartbeat CPU 0 instructions: 23000001 cycles: 9030654 heartbeat IPC: 2.55531 cumulative IPC: 2.54688 (Simulation time: 0 hr 11 min 49 sec) 
Heartbeat CPU 0 instructions: 24000000 cycles: 9426872 heartbeat IPC: 2.52386 cumulative IPC: 2.54591 (Simulation time: 0 hr 12 min 18 sec) 
Heartbeat CPU 0 instructions: 25000003 cycles: 9818277 heartbeat IPC: 2.55491 cumulative IPC: 2.54627 (Simulation time: 0 hr 12 min 46 sec) 
Heartbeat CPU 0 instructions: 26000002 cycles: 10209668 heartbeat IPC: 2.55499 cumulative IPC: 2.54661 (Simulation time: 0 hr 13 min 16 sec) 
Heartbeat CPU 0 instructions: 27000001 cycles: 10601034 heartbeat IPC: 2.55515 cumulative IPC: 2.54692 (Simulation time: 0 hr 13 min 48 sec) 
Heartbeat CPU 0 instructions: 28000000 cycles: 10997218 heartbeat IPC: 2.52408 cumulative IPC: 2.5461 (Simulation time: 0 hr 14 min 19 sec) 
Heartbeat CPU 0 instructions: 29000002 cycles: 11388619 heartbeat IPC: 2.55493 cumulative IPC: 2.5464 (Simulation time: 0 hr 14 min 49 sec) 
Heartbeat CPU 0 instructions: 30000003 cycles: 11780012 heartbeat IPC: 2.55498 cumulative IPC: 2.54669 (Simulation time: 0 hr 15 min 16 sec) 
Heartbeat CPU 0 instructions: 31000003 cycles: 12176238 heartbeat IPC: 2.52381 cumulative IPC: 2.54594 (Simulation time: 0 hr 15 min 47 sec) 
Heartbeat CPU 0 instructions: 32000000 cycles: 12567621 heartbeat IPC: 2.55503 cumulative IPC: 2.54623 (Simulation time: 0 hr 16 min 18 sec) 
Heartbeat CPU 0 instructions: 33000003 cycles: 12959058 heartbeat IPC: 2.5547 cumulative IPC: 2.54648 (Simulation time: 0 hr 16 min 49 sec) 
Heartbeat CPU 0 instructions: 34000002 cycles: 13355165 heartbeat IPC: 2.52457 cumulative IPC: 2.54583 (Simulation time: 0 hr 17 min 19 sec) 
Heartbeat CPU 0 instructions: 35000003 cycles: 13746584 heartbeat IPC: 2.55481 cumulative IPC: 2.54609 (Simulation time: 0 hr 17 min 52 sec) 
Heartbeat CPU 0 instructions: 36000000 cycles: 14137986 heartbeat IPC: 2.55491 cumulative IPC: 2.54633 (Simulation time: 0 hr 18 min 19 sec) 
Heartbeat CPU 0 instructions: 37000002 cycles: 14529395 heartbeat IPC: 2.55488 cumulative IPC: 2.54656 (Simulation time: 0 hr 18 min 49 sec) 
Heartbeat CPU 0 instructions: 38000000 cycles: 14925588 heartbeat IPC: 2.52402 cumulative IPC: 2.54596 (Simulation time: 0 hr 19 min 18 sec) 
Heartbeat CPU 0 instructions: 39000003 cycles: 15316911 heartbeat IPC: 2.55544 cumulative IPC: 2.54621 (Simulation time: 0 hr 19 min 48 sec) 
Heartbeat CPU 0 instructions: 40000000 cycles: 15708307 heartbeat IPC: 2.55495 cumulative IPC: 2.54642 (Simulation time: 0 hr 20 min 17 sec) 
Heartbeat CPU 0 instructions: 41000002 cycles: 16104512 heartbeat IPC: 2.52395 cumulative IPC: 2.54587 (Simulation time: 0 hr 20 min 48 sec) 
Heartbeat CPU 0 instructions: 42000003 cycles: 16495949 heartbeat IPC: 2.55469 cumulative IPC: 2.54608 (Simulation time: 0 hr 21 min 17 sec) 
Heartbeat CPU 0 instructions: 43000000 cycles: 16887317 heartbeat IPC: 2.55513 cumulative IPC: 2.54629 (Simulation time: 0 hr 21 min 45 sec) 
Heartbeat CPU 0 instructions: 44000000 cycles: 17283466 heartbeat IPC: 2.5243 cumulative IPC: 2.54579 (Simulation time: 0 hr 22 min 14 sec) 
Heartbeat CPU 0 instructions: 45000003 cycles: 17674848 heartbeat IPC: 2.55506 cumulative IPC: 2.54599 (Simulation time: 0 hr 22 min 43 sec) 
Heartbeat CPU 0 instructions: 46000003 cycles: 18066202 heartbeat IPC: 2.55523 cumulative IPC: 2.54619 (Simulation time: 0 hr 23 min 11 sec) 
Heartbeat CPU 0 instructions: 47000002 cycles: 18457601 heartbeat IPC: 2.55493 cumulative IPC: 2.54638 (Simulation time: 0 hr 23 min 41 sec) 
Heartbeat CPU 0 instructions: 48000000 cycles: 18853774 heartbeat IPC: 2.52414 cumulative IPC: 2.54591 (Simulation time: 0 hr 24 min 11 sec) 
Heartbeat CPU 0 instructions: 49000000 cycles: 19245200 heartbeat IPC: 2.55476 cumulative IPC: 2.54609 (Simulation time: 0 hr 24 min 38 sec) 
Heartbeat CPU 0 instructions: 50000003 cycles: 19636534 heartbeat IPC: 2.55537 cumulative IPC: 2.54627 (Simulation time: 0 hr 25 min 10 sec) 

Warmup complete CPU 0 instructions: 50000003 cycles: 19636534 (Simulation time: 0 hr 25 min 10 sec) 

Heartbeat CPU 0 instructions: 51000001 cycles: 21120621 heartbeat IPC: 0.673814 cumulative IPC: 0.673814 (Simulation time: 0 hr 25 min 45 sec) 
Heartbeat CPU 0 instructions: 52000000 cycles: 22516523 heartbeat IPC: 0.716382 cumulative IPC: 0.694446 (Simulation time: 0 hr 26 min 17 sec) 
Heartbeat CPU 0 instructions: 53000002 cycles: 23941059 heartbeat IPC: 0.701984 cumulative IPC: 0.696941 (Simulation time: 0 hr 26 min 54 sec) 
Heartbeat CPU 0 instructions: 54000002 cycles: 25299950 heartbeat IPC: 0.735894 cumulative IPC: 0.706287 (Simulation time: 0 hr 27 min 26 sec) 
Heartbeat CPU 0 instructions: 55000001 cycles: 26747253 heartbeat IPC: 0.69094 cumulative IPC: 0.703164 (Simulation time: 0 hr 28 min 5 sec) 
Heartbeat CPU 0 instructions: 56000000 cycles: 28221313 heartbeat IPC: 0.678398 cumulative IPC: 0.698911 (Simulation time: 0 hr 28 min 41 sec) 
Heartbeat CPU 0 instructions: 57000003 cycles: 29687461 heartbeat IPC: 0.682061 cumulative IPC: 0.696453 (Simulation time: 0 hr 29 min 20 sec) 
Heartbeat CPU 0 instructions: 58000003 cycles: 31175797 heartbeat IPC: 0.671891 cumulative IPC: 0.693285 (Simulation time: 0 hr 29 min 57 sec) 
Heartbeat CPU 0 instructions: 59000002 cycles: 32621656 heartbeat IPC: 0.69163 cumulative IPC: 0.693101 (Simulation time: 0 hr 30 min 34 sec) 
Heartbeat CPU 0 instructions: 60000000 cycles: 34053921 heartbeat IPC: 0.698193 cumulative IPC: 0.693607 (Simulation time: 0 hr 31 min 11 sec) 
Heartbeat CPU 0 instructions: 61000003 cycles: 35462961 heartbeat IPC: 0.709705 cumulative IPC: 0.69504 (Simulation time: 0 hr 31 min 48 sec) 
Heartbeat CPU 0 instructions: 62000001 cycles: 36838752 heartbeat IPC: 0.726853 cumulative IPC: 0.697584 (Simulation time: 0 hr 32 min 20 sec) 
Heartbeat CPU 0 instructions: 63000001 cycles: 38227428 heartbeat IPC: 0.72011 cumulative IPC: 0.699267 (Simulation time: 0 hr 32 min 53 sec) 
Heartbeat CPU 0 instructions: 64000000 cycles: 39606872 heartbeat IPC: 0.724929 cumulative IPC: 0.70104 (Simulation time: 0 hr 33 min 26 sec) 
Heartbeat CPU 0 instructions: 65000000 cycles: 41030344 heartbeat IPC: 0.702508 cumulative IPC: 0.701137 (Simulation time: 0 hr 33 min 59 sec) 
Heartbeat CPU 0 instructions: 66000000 cycles: 42411473 heartbeat IPC: 0.724045 cumulative IPC: 0.702526 (Simulation time: 0 hr 34 min 39 sec) 
Heartbeat CPU 0 instructions: 67000000 cycles: 43763587 heartbeat IPC: 0.739583 cumulative IPC: 0.704603 (Simulation time: 0 hr 35 min 13 sec) 
Heartbeat CPU 0 instructions: 68000000 cycles: 45184439 heartbeat IPC: 0.703803 cumulative IPC: 0.704559 (Simulation time: 0 hr 35 min 44 sec) 
Heartbeat CPU 0 instructions: 69000000 cycles: 46591340 heartbeat IPC: 0.710782 cumulative IPC: 0.704883 (Simulation time: 0 hr 36 min 18 sec) 
Heartbeat CPU 0 instructions: 70000000 cycles: 48001959 heartbeat IPC: 0.708909 cumulative IPC: 0.705084 (Simulation time: 0 hr 36 min 57 sec) 
Heartbeat CPU 0 instructions: 71000002 cycles: 49426942 heartbeat IPC: 0.701764 cumulative IPC: 0.704925 (Simulation time: 0 hr 37 min 35 sec) 
Heartbeat CPU 0 instructions: 72000000 cycles: 51566019 heartbeat IPC: 0.46749 cumulative IPC: 0.689018 (Simulation time: 0 hr 38 min 20 sec) 
Heartbeat CPU 0 instructions: 73000002 cycles: 54725621 heartbeat IPC: 0.316496 cumulative IPC: 0.655474 (Simulation time: 0 hr 39 min 15 sec) 
Heartbeat CPU 0 instructions: 74000002 cycles: 61342357 heartbeat IPC: 0.151132 cumulative IPC: 0.575459 (Simulation time: 0 hr 40 min 34 sec) 
Heartbeat CPU 0 instructions: 75000003 cycles: 63757180 heartbeat IPC: 0.414109 cumulative IPC: 0.566628 (Simulation time: 0 hr 41 min 24 sec) 
Heartbeat CPU 0 instructions: 76000000 cycles: 65833235 heartbeat IPC: 0.481681 cumulative IPC: 0.562811 (Simulation time: 0 hr 42 min 6 sec) 
Heartbeat CPU 0 instructions: 77000000 cycles: 67292670 heartbeat IPC: 0.685197 cumulative IPC: 0.566559 (Simulation time: 0 hr 42 min 41 sec) 
Heartbeat CPU 0 instructions: 78000002 cycles: 68765377 heartbeat IPC: 0.679023 cumulative IPC: 0.56993 (Simulation time: 0 hr 43 min 21 sec) 
Heartbeat CPU 0 instructions: 79000002 cycles: 70263980 heartbeat IPC: 0.667288 cumulative IPC: 0.572812 (Simulation time: 0 hr 44 min 1 sec) 
Heartbeat CPU 0 instructions: 80000000 cycles: 71695072 heartbeat IPC: 0.698766 cumulative IPC: 0.576274 (Simulation time: 0 hr 44 min 40 sec) 
Heartbeat CPU 0 instructions: 81000001 cycles: 72992552 heartbeat IPC: 0.770726 cumulative IPC: 0.581003 (Simulation time: 0 hr 45 min 13 sec) 
Heartbeat CPU 0 instructions: 82000002 cycles: 74317010 heartbeat IPC: 0.755027 cumulative IPC: 0.585218 (Simulation time: 0 hr 45 min 51 sec) 
Heartbeat CPU 0 instructions: 83000003 cycles: 75875335 heartbeat IPC: 0.641715 cumulative IPC: 0.586783 (Simulation time: 0 hr 46 min 32 sec) 
Heartbeat CPU 0 instructions: 84000000 cycles: 77308502 heartbeat IPC: 0.697753 cumulative IPC: 0.589541 (Simulation time: 0 hr 47 min 5 sec) 
Heartbeat CPU 0 instructions: 85000000 cycles: 78668811 heartbeat IPC: 0.735127 cumulative IPC: 0.592896 (Simulation time: 0 hr 47 min 38 sec) 
Heartbeat CPU 0 instructions: 86000000 cycles: 80163042 heartbeat IPC: 0.669241 cumulative IPC: 0.594781 (Simulation time: 0 hr 48 min 16 sec) 
Heartbeat CPU 0 instructions: 87000002 cycles: 81595717 heartbeat IPC: 0.697996 cumulative IPC: 0.597167 (Simulation time: 0 hr 48 min 55 sec) 
Heartbeat CPU 0 instructions: 88000000 cycles: 82973467 heartbeat IPC: 0.72582 cumulative IPC: 0.599966 (Simulation time: 0 hr 49 min 37 sec) 
Heartbeat CPU 0 instructions: 89000003 cycles: 84360331 heartbeat IPC: 0.721053 cumulative IPC: 0.60256 (Simulation time: 0 hr 50 min 16 sec) 
Heartbeat CPU 0 instructions: 90000002 cycles: 85871312 heartbeat IPC: 0.661821 cumulative IPC: 0.603912 (Simulation time: 0 hr 50 min 59 sec) 
Heartbeat CPU 0 instructions: 91000001 cycles: 87272275 heartbeat IPC: 0.713794 cumulative IPC: 0.606188 (Simulation time: 0 hr 51 min 39 sec) 
Heartbeat CPU 0 instructions: 92000000 cycles: 88555825 heartbeat IPC: 0.779088 cumulative IPC: 0.609408 (Simulation time: 0 hr 52 min 15 sec) 
Heartbeat CPU 0 instructions: 93000003 cycles: 89980745 heartbeat IPC: 0.701796 cumulative IPC: 0.61128 (Simulation time: 0 hr 52 min 53 sec) 
Heartbeat CPU 0 instructions: 94000002 cycles: 91418855 heartbeat IPC: 0.695356 cumulative IPC: 0.612964 (Simulation time: 0 hr 53 min 29 sec) 
Heartbeat CPU 0 instructions: 95000000 cycles: 92835026 heartbeat IPC: 0.706128 cumulative IPC: 0.614767 (Simulation time: 0 hr 54 min 5 sec) 
Heartbeat CPU 0 instructions: 96000000 cycles: 94283376 heartbeat IPC: 0.690441 cumulative IPC: 0.616235 (Simulation time: 0 hr 54 min 45 sec) 
Heartbeat CPU 0 instructions: 97000002 cycles: 95730429 heartbeat IPC: 0.691061 cumulative IPC: 0.617658 (Simulation time: 0 hr 55 min 21 sec) 
Heartbeat CPU 0 instructions: 98000001 cycles: 97159454 heartbeat IPC: 0.699777 cumulative IPC: 0.619172 (Simulation time: 0 hr 56 min 0 sec) 
Heartbeat CPU 0 instructions: 99000000 cycles: 98534058 heartbeat IPC: 0.727482 cumulative IPC: 0.621059 (Simulation time: 0 hr 56 min 34 sec) 
Heartbeat CPU 0 instructions: 100000000 cycles: 99972407 heartbeat IPC: 0.695242 cumulative IPC: 0.622387 (Simulation time: 0 hr 57 min 11 sec) 
Heartbeat CPU 0 instructions: 101000000 cycles: 101423821 heartbeat IPC: 0.688983 cumulative IPC: 0.623569 (Simulation time: 0 hr 57 min 47 sec) 
Heartbeat CPU 0 instructions: 102000000 cycles: 102887953 heartbeat IPC: 0.682999 cumulative IPC: 0.624614 (Simulation time: 0 hr 58 min 19 sec) 
Heartbeat CPU 0 instructions: 103000001 cycles: 104363171 heartbeat IPC: 0.677867 cumulative IPC: 0.625541 (Simulation time: 0 hr 58 min 53 sec) 
Heartbeat CPU 0 instructions: 104000000 cycles: 105789819 heartbeat IPC: 0.700943 cumulative IPC: 0.62679 (Simulation time: 0 hr 59 min 26 sec) 
Heartbeat CPU 0 instructions: 105000001 cycles: 107211852 heartbeat IPC: 0.703219 cumulative IPC: 0.628031 (Simulation time: 1 hr 0 min 0 sec) 
Heartbeat CPU 0 instructions: 106000000 cycles: 108570262 heartbeat IPC: 0.736154 cumulative IPC: 0.629682 (Simulation time: 1 hr 0 min 33 sec) 
Heartbeat CPU 0 instructions: 107000000 cycles: 110018809 heartbeat IPC: 0.690347 cumulative IPC: 0.630655 (Simulation time: 1 hr 1 min 4 sec) 
Heartbeat CPU 0 instructions: 108000000 cycles: 111468589 heartbeat IPC: 0.68976 cumulative IPC: 0.631588 (Simulation time: 1 hr 1 min 39 sec) 
Heartbeat CPU 0 instructions: 109000003 cycles: 112872390 heartbeat IPC: 0.712354 cumulative IPC: 0.632804 (Simulation time: 1 hr 2 min 13 sec) 
Heartbeat CPU 0 instructions: 110000001 cycles: 114280181 heartbeat IPC: 0.710331 cumulative IPC: 0.633957 (Simulation time: 1 hr 2 min 47 sec) 
Heartbeat CPU 0 instructions: 111000003 cycles: 115745696 heartbeat IPC: 0.682355 cumulative IPC: 0.634695 (Simulation time: 1 hr 3 min 21 sec) 
Heartbeat CPU 0 instructions: 112000000 cycles: 117168301 heartbeat IPC: 0.702934 cumulative IPC: 0.63569 (Simulation time: 1 hr 3 min 53 sec) 
Heartbeat CPU 0 instructions: 113000001 cycles: 118641386 heartbeat IPC: 0.678848 cumulative IPC: 0.636332 (Simulation time: 1 hr 4 min 30 sec) 
Heartbeat CPU 0 instructions: 114000001 cycles: 120163191 heartbeat IPC: 0.657114 cumulative IPC: 0.636647 (Simulation time: 1 hr 5 min 6 sec) 
Heartbeat CPU 0 instructions: 115000000 cycles: 121626911 heartbeat IPC: 0.68319 cumulative IPC: 0.637315 (Simulation time: 1 hr 5 min 41 sec) 
Heartbeat CPU 0 instructions: 116000000 cycles: 123107559 heartbeat IPC: 0.67538 cumulative IPC: 0.63786 (Simulation time: 1 hr 6 min 20 sec) 
Heartbeat CPU 0 instructions: 117000000 cycles: 124587369 heartbeat IPC: 0.675762 cumulative IPC: 0.638394 (Simulation time: 1 hr 6 min 55 sec) 
Heartbeat CPU 0 instructions: 118000002 cycles: 125990410 heartbeat IPC: 0.712739 cumulative IPC: 0.639375 (Simulation time: 1 hr 7 min 29 sec) 
Heartbeat CPU 0 instructions: 119000002 cycles: 127431426 heartbeat IPC: 0.693955 cumulative IPC: 0.640105 (Simulation time: 1 hr 7 min 59 sec) 
Heartbeat CPU 0 instructions: 120000000 cycles: 128989584 heartbeat IPC: 0.641782 cumulative IPC: 0.640128 (Simulation time: 1 hr 8 min 33 sec) 
Heartbeat CPU 0 instructions: 121000002 cycles: 130472026 heartbeat IPC: 0.674564 cumulative IPC: 0.640589 (Simulation time: 1 hr 9 min 5 sec) 
Heartbeat CPU 0 instructions: 122000002 cycles: 131894369 heartbeat IPC: 0.703065 cumulative IPC: 0.641381 (Simulation time: 1 hr 9 min 36 sec) 
Heartbeat CPU 0 instructions: 123000002 cycles: 133369788 heartbeat IPC: 0.677774 cumulative IPC: 0.641853 (Simulation time: 1 hr 10 min 10 sec) 
Heartbeat CPU 0 instructions: 124000000 cycles: 134948097 heartbeat IPC: 0.633588 cumulative IPC: 0.64174 (Simulation time: 1 hr 10 min 44 sec) 
Heartbeat CPU 0 instructions: 125000000 cycles: 136393237 heartbeat IPC: 0.691974 cumulative IPC: 0.642361 (Simulation time: 1 hr 11 min 19 sec) 
Heartbeat CPU 0 instructions: 126000002 cycles: 137830475 heartbeat IPC: 0.69578 cumulative IPC: 0.643011 (Simulation time: 1 hr 11 min 53 sec) 
Heartbeat CPU 0 instructions: 127000000 cycles: 139393013 heartbeat IPC: 0.639983 cumulative IPC: 0.642971 (Simulation time: 1 hr 12 min 29 sec) 
Heartbeat CPU 0 instructions: 128000000 cycles: 140754907 heartbeat IPC: 0.734272 cumulative IPC: 0.643998 (Simulation time: 1 hr 13 min 2 sec) 
Heartbeat CPU 0 instructions: 129000000 cycles: 142214992 heartbeat IPC: 0.684892 cumulative IPC: 0.644485 (Simulation time: 1 hr 13 min 31 sec) 
Heartbeat CPU 0 instructions: 130000000 cycles: 143847648 heartbeat IPC: 0.612499 cumulative IPC: 0.644065 (Simulation time: 1 hr 14 min 5 sec) 
Heartbeat CPU 0 instructions: 131000000 cycles: 145276368 heartbeat IPC: 0.699927 cumulative IPC: 0.6447 (Simulation time: 1 hr 14 min 38 sec) 
Heartbeat CPU 0 instructions: 132000000 cycles: 146735517 heartbeat IPC: 0.685331 cumulative IPC: 0.645166 (Simulation time: 1 hr 15 min 10 sec) 
Heartbeat CPU 0 instructions: 133000001 cycles: 148483817 heartbeat IPC: 0.571985 cumulative IPC: 0.644173 (Simulation time: 1 hr 15 min 41 sec) 
Heartbeat CPU 0 instructions: 134000000 cycles: 149930655 heartbeat IPC: 0.691162 cumulative IPC: 0.644695 (Simulation time: 1 hr 16 min 12 sec) 
Heartbeat CPU 0 instructions: 135000003 cycles: 151432382 heartbeat IPC: 0.665902 cumulative IPC: 0.644937 (Simulation time: 1 hr 16 min 42 sec) 
Heartbeat CPU 0 instructions: 136000000 cycles: 153136294 heartbeat IPC: 0.586883 cumulative IPC: 0.644196 (Simulation time: 1 hr 17 min 13 sec) 
Heartbeat CPU 0 instructions: 137000000 cycles: 154600786 heartbeat IPC: 0.682831 cumulative IPC: 0.644615 (Simulation time: 1 hr 17 min 36 sec) 
Heartbeat CPU 0 instructions: 138000003 cycles: 156088942 heartbeat IPC: 0.671975 cumulative IPC: 0.644913 (Simulation time: 1 hr 17 min 59 sec) 
Heartbeat CPU 0 instructions: 139000000 cycles: 157844704 heartbeat IPC: 0.569552 cumulative IPC: 0.643956 (Simulation time: 1 hr 18 min 24 sec) 
Heartbeat CPU 0 instructions: 140000000 cycles: 159256806 heartbeat IPC: 0.708164 cumulative IPC: 0.644606 (Simulation time: 1 hr 18 min 46 sec) 
Heartbeat CPU 0 instructions: 141000001 cycles: 160613514 heartbeat IPC: 0.737079 cumulative IPC: 0.645495 (Simulation time: 1 hr 19 min 10 sec) 
Heartbeat CPU 0 instructions: 142000003 cycles: 162267287 heartbeat IPC: 0.604679 cumulative IPC: 0.645022 (Simulation time: 1 hr 19 min 34 sec) 
Heartbeat CPU 0 instructions: 143000000 cycles: 163733710 heartbeat IPC: 0.681929 cumulative IPC: 0.645398 (Simulation time: 1 hr 19 min 58 sec) 
Heartbeat CPU 0 instructions: 144000000 cycles: 165228292 heartbeat IPC: 0.669083 cumulative IPC: 0.645641 (Simulation time: 1 hr 20 min 22 sec) 
Heartbeat CPU 0 instructions: 145000000 cycles: 166950645 heartbeat IPC: 0.580601 cumulative IPC: 0.64488 (Simulation time: 1 hr 20 min 47 sec) 
Heartbeat CPU 0 instructions: 146000003 cycles: 168344718 heartbeat IPC: 0.717325 cumulative IPC: 0.64556 (Simulation time: 1 hr 21 min 6 sec) 
Heartbeat CPU 0 instructions: 147000000 cycles: 169706457 heartbeat IPC: 0.734353 cumulative IPC: 0.646365 (Simulation time: 1 hr 21 min 26 sec) 
Heartbeat CPU 0 instructions: 148000000 cycles: 171427223 heartbeat IPC: 0.581137 cumulative IPC: 0.645626 (Simulation time: 1 hr 21 min 47 sec) 
Heartbeat CPU 0 instructions: 149000001 cycles: 172859651 heartbeat IPC: 0.698116 cumulative IPC: 0.646117 (Simulation time: 1 hr 22 min 6 sec) 
Heartbeat CPU 0 instructions: 150000000 cycles: 174279961 heartbeat IPC: 0.704071 cumulative IPC: 0.646649 (Simulation time: 1 hr 22 min 26 sec) 
Finished CPU 0 instructions: 100000003 cycles: 154643467 cummulative IPC: 0.646649 (Simulation time: 1 hr 22 min 26 sec) 

ChampSim completed all CPUs

Region of Interest Statistics

CPU 0 cummulative IPC: 0.646649 instructions: 100000003 cycles: 154643467
LLC TOTAL     ACCESS:    5974247  HIT:    1827936  MISS:    4146311
LLC LOAD      ACCESS:     434010  HIT:      16636  MISS:     417374
LLC RFO       ACCESS:    2551826  HIT:     640396  MISS:    1911430
LLC PREFETCH  ACCESS:     436283  HIT:      21730  MISS:     414553
LLC WRITEBACK ACCESS:    2552128  HIT:    1149174  MISS:    1402954
OPTgen accesses: 66955
OPTgen hits: 21006
OPTgen hit rate: 31.3733


