
*** ChampSim Multicore Out-of-Order Simulator ***

Warmup Instructions: 50000000
Simulation Instructions: 100000000
Configuration: 2
Number of CPUs: 1
LLC sets: 2048
LLC ways: 16
Off-chip DRAM Channels: 1 Width: 64-bit Data Rate: 1600 MT/s

CPU 0 runs /datasets/cs240c-wi22-a00-public/data/Assignment2-gz/sphinx3_883B.trace.gz
CPU 0 L1D next line prefetcher
CPU 0 L2C IP-based stride prefetcher
Initialize Hawkeye state
Heartbeat CPU 0 instructions: 1000003 cycles: 414365 heartbeat IPC: 2.41334 cumulative IPC: 2.41334 (Simulation time: 0 hr 0 min 36 sec) 
Heartbeat CPU 0 instructions: 2000000 cycles: 823887 heartbeat IPC: 2.44186 cumulative IPC: 2.42752 (Simulation time: 0 hr 1 min 4 sec) 
Heartbeat CPU 0 instructions: 3000003 cycles: 1298677 heartbeat IPC: 2.1062 cumulative IPC: 2.31005 (Simulation time: 0 hr 1 min 33 sec) 
Heartbeat CPU 0 instructions: 4000000 cycles: 1637567 heartbeat IPC: 2.9508 cumulative IPC: 2.44265 (Simulation time: 0 hr 1 min 59 sec) 
Heartbeat CPU 0 instructions: 5000000 cycles: 1992239 heartbeat IPC: 2.81951 cumulative IPC: 2.50974 (Simulation time: 0 hr 2 min 30 sec) 
Heartbeat CPU 0 instructions: 6000003 cycles: 2406682 heartbeat IPC: 2.41288 cumulative IPC: 2.49306 (Simulation time: 0 hr 2 min 58 sec) 
Heartbeat CPU 0 instructions: 7000002 cycles: 2815442 heartbeat IPC: 2.44642 cumulative IPC: 2.48629 (Simulation time: 0 hr 3 min 30 sec) 
Heartbeat CPU 0 instructions: 8000000 cycles: 3291302 heartbeat IPC: 2.10145 cumulative IPC: 2.43065 (Simulation time: 0 hr 4 min 1 sec) 
Heartbeat CPU 0 instructions: 9000001 cycles: 3630299 heartbeat IPC: 2.94988 cumulative IPC: 2.47913 (Simulation time: 0 hr 4 min 29 sec) 
Heartbeat CPU 0 instructions: 10000000 cycles: 3984391 heartbeat IPC: 2.82412 cumulative IPC: 2.50979 (Simulation time: 0 hr 4 min 57 sec) 
Heartbeat CPU 0 instructions: 11000000 cycles: 4398833 heartbeat IPC: 2.41288 cumulative IPC: 2.50066 (Simulation time: 0 hr 5 min 26 sec) 
Heartbeat CPU 0 instructions: 12000000 cycles: 4811705 heartbeat IPC: 2.42206 cumulative IPC: 2.49392 (Simulation time: 0 hr 6 min 2 sec) 
Heartbeat CPU 0 instructions: 13000001 cycles: 5277019 heartbeat IPC: 2.14909 cumulative IPC: 2.46351 (Simulation time: 0 hr 6 min 32 sec) 
Heartbeat CPU 0 instructions: 14000001 cycles: 5630840 heartbeat IPC: 2.82629 cumulative IPC: 2.48631 (Simulation time: 0 hr 6 min 58 sec) 
Heartbeat CPU 0 instructions: 15000000 cycles: 5977458 heartbeat IPC: 2.88502 cumulative IPC: 2.50943 (Simulation time: 0 hr 7 min 28 sec) 
Heartbeat CPU 0 instructions: 16000000 cycles: 6390942 heartbeat IPC: 2.41847 cumulative IPC: 2.50354 (Simulation time: 0 hr 7 min 57 sec) 
Heartbeat CPU 0 instructions: 17000000 cycles: 6803001 heartbeat IPC: 2.42684 cumulative IPC: 2.4989 (Simulation time: 0 hr 8 min 28 sec) 
Heartbeat CPU 0 instructions: 18000000 cycles: 7219318 heartbeat IPC: 2.40202 cumulative IPC: 2.49331 (Simulation time: 0 hr 9 min 1 sec) 
Heartbeat CPU 0 instructions: 19000003 cycles: 7633868 heartbeat IPC: 2.41226 cumulative IPC: 2.48891 (Simulation time: 0 hr 9 min 28 sec) 
Heartbeat CPU 0 instructions: 20000000 cycles: 7972817 heartbeat IPC: 2.95029 cumulative IPC: 2.50852 (Simulation time: 0 hr 9 min 53 sec) 
Heartbeat CPU 0 instructions: 21000000 cycles: 8382451 heartbeat IPC: 2.4412 cumulative IPC: 2.50523 (Simulation time: 0 hr 10 min 24 sec) 
Heartbeat CPU 0 instructions: 22000003 cycles: 8795950 heartbeat IPC: 2.41839 cumulative IPC: 2.50115 (Simulation time: 0 hr 11 min 1 sec) 
Heartbeat CPU 0 instructions: 23000003 cycles: 9206099 heartbeat IPC: 2.43814 cumulative IPC: 2.49834 (Simulation time: 0 hr 11 min 34 sec) 
Heartbeat CPU 0 instructions: 24000000 cycles: 9656783 heartbeat IPC: 2.21884 cumulative IPC: 2.4853 (Simulation time: 0 hr 12 min 3 sec) 
Heartbeat CPU 0 instructions: 25000000 cycles: 9995820 heartbeat IPC: 2.94953 cumulative IPC: 2.50105 (Simulation time: 0 hr 12 min 34 sec) 
Heartbeat CPU 0 instructions: 26000001 cycles: 10372995 heartbeat IPC: 2.65129 cumulative IPC: 2.50651 (Simulation time: 0 hr 13 min 5 sec) 
Heartbeat CPU 0 instructions: 27000001 cycles: 10788011 heartbeat IPC: 2.40955 cumulative IPC: 2.50278 (Simulation time: 0 hr 13 min 36 sec) 
Heartbeat CPU 0 instructions: 28000000 cycles: 11202826 heartbeat IPC: 2.41071 cumulative IPC: 2.49937 (Simulation time: 0 hr 14 min 10 sec) 
Heartbeat CPU 0 instructions: 29000003 cycles: 11666164 heartbeat IPC: 2.15826 cumulative IPC: 2.48582 (Simulation time: 0 hr 14 min 40 sec) 
Heartbeat CPU 0 instructions: 30000000 cycles: 12005086 heartbeat IPC: 2.95052 cumulative IPC: 2.49894 (Simulation time: 0 hr 15 min 12 sec) 
Heartbeat CPU 0 instructions: 31000003 cycles: 12368407 heartbeat IPC: 2.7524 cumulative IPC: 2.50639 (Simulation time: 0 hr 15 min 42 sec) 
Heartbeat CPU 0 instructions: 32000000 cycles: 12783463 heartbeat IPC: 2.40931 cumulative IPC: 2.50323 (Simulation time: 0 hr 16 min 13 sec) 
Heartbeat CPU 0 instructions: 33000001 cycles: 13193019 heartbeat IPC: 2.44167 cumulative IPC: 2.50132 (Simulation time: 0 hr 16 min 44 sec) 
Heartbeat CPU 0 instructions: 34000000 cycles: 13667222 heartbeat IPC: 2.1088 cumulative IPC: 2.4877 (Simulation time: 0 hr 17 min 12 sec) 
Heartbeat CPU 0 instructions: 35000000 cycles: 14006185 heartbeat IPC: 2.95017 cumulative IPC: 2.4989 (Simulation time: 0 hr 17 min 40 sec) 
Heartbeat CPU 0 instructions: 36000000 cycles: 14364473 heartbeat IPC: 2.79105 cumulative IPC: 2.50618 (Simulation time: 0 hr 18 min 6 sec) 
Heartbeat CPU 0 instructions: 37000001 cycles: 14780533 heartbeat IPC: 2.4035 cumulative IPC: 2.50329 (Simulation time: 0 hr 18 min 39 sec) 
Heartbeat CPU 0 instructions: 38000000 cycles: 15190150 heartbeat IPC: 2.4413 cumulative IPC: 2.50162 (Simulation time: 0 hr 19 min 10 sec) 
Heartbeat CPU 0 instructions: 39000002 cycles: 15665223 heartbeat IPC: 2.10494 cumulative IPC: 2.48959 (Simulation time: 0 hr 19 min 40 sec) 
Heartbeat CPU 0 instructions: 40000000 cycles: 16004201 heartbeat IPC: 2.95004 cumulative IPC: 2.49934 (Simulation time: 0 hr 20 min 7 sec) 
Heartbeat CPU 0 instructions: 41000003 cycles: 16361508 heartbeat IPC: 2.79872 cumulative IPC: 2.50588 (Simulation time: 0 hr 20 min 37 sec) 
Heartbeat CPU 0 instructions: 42000000 cycles: 16777632 heartbeat IPC: 2.40312 cumulative IPC: 2.50333 (Simulation time: 0 hr 21 min 12 sec) 
Heartbeat CPU 0 instructions: 43000001 cycles: 17189013 heartbeat IPC: 2.43084 cumulative IPC: 2.5016 (Simulation time: 0 hr 21 min 49 sec) 
Heartbeat CPU 0 instructions: 44000000 cycles: 17659739 heartbeat IPC: 2.12438 cumulative IPC: 2.49154 (Simulation time: 0 hr 22 min 17 sec) 
Heartbeat CPU 0 instructions: 45000001 cycles: 17998731 heartbeat IPC: 2.94993 cumulative IPC: 2.50018 (Simulation time: 0 hr 22 min 44 sec) 
Heartbeat CPU 0 instructions: 46000001 cycles: 18359085 heartbeat IPC: 2.77505 cumulative IPC: 2.50557 (Simulation time: 0 hr 23 min 14 sec) 
Heartbeat CPU 0 instructions: 47000003 cycles: 18773662 heartbeat IPC: 2.4121 cumulative IPC: 2.50351 (Simulation time: 0 hr 23 min 43 sec) 
Heartbeat CPU 0 instructions: 48000000 cycles: 19189476 heartbeat IPC: 2.40491 cumulative IPC: 2.50137 (Simulation time: 0 hr 24 min 17 sec) 
Heartbeat CPU 0 instructions: 49000001 cycles: 19647579 heartbeat IPC: 2.18292 cumulative IPC: 2.49395 (Simulation time: 0 hr 24 min 42 sec) 
Heartbeat CPU 0 instructions: 50000003 cycles: 19986533 heartbeat IPC: 2.95026 cumulative IPC: 2.50168 (Simulation time: 0 hr 25 min 13 sec) 

Warmup complete CPU 0 instructions: 50000003 cycles: 19986533 (Simulation time: 0 hr 25 min 13 sec) 

Heartbeat CPU 0 instructions: 51000003 cycles: 21102686 heartbeat IPC: 0.895935 cumulative IPC: 0.895935 (Simulation time: 0 hr 25 min 44 sec) 
Heartbeat CPU 0 instructions: 52000000 cycles: 22665035 heartbeat IPC: 0.64006 cumulative IPC: 0.746685 (Simulation time: 0 hr 26 min 16 sec) 
Heartbeat CPU 0 instructions: 53000000 cycles: 24406396 heartbeat IPC: 0.574263 cumulative IPC: 0.678753 (Simulation time: 0 hr 26 min 52 sec) 
Heartbeat CPU 0 instructions: 54000003 cycles: 25688612 heartbeat IPC: 0.779902 cumulative IPC: 0.701499 (Simulation time: 0 hr 27 min 26 sec) 
Heartbeat CPU 0 instructions: 55000003 cycles: 26607470 heartbeat IPC: 1.08831 cumulative IPC: 0.75518 (Simulation time: 0 hr 28 min 1 sec) 
Heartbeat CPU 0 instructions: 56000000 cycles: 27511175 heartbeat IPC: 1.10655 cumulative IPC: 0.79738 (Simulation time: 0 hr 28 min 32 sec) 
Heartbeat CPU 0 instructions: 57000002 cycles: 28687962 heartbeat IPC: 0.849773 cumulative IPC: 0.804465 (Simulation time: 0 hr 29 min 3 sec) 
Heartbeat CPU 0 instructions: 58000001 cycles: 29716077 heartbeat IPC: 0.972653 cumulative IPC: 0.822238 (Simulation time: 0 hr 29 min 35 sec) 
Heartbeat CPU 0 instructions: 59000003 cycles: 30618414 heartbeat IPC: 1.10824 cumulative IPC: 0.846511 (Simulation time: 0 hr 30 min 9 sec) 
Heartbeat CPU 0 instructions: 60000000 cycles: 31520839 heartbeat IPC: 1.10812 cumulative IPC: 0.866979 (Simulation time: 0 hr 30 min 41 sec) 
Heartbeat CPU 0 instructions: 61000001 cycles: 32699757 heartbeat IPC: 0.848236 cumulative IPC: 0.865241 (Simulation time: 0 hr 31 min 17 sec) 
Heartbeat CPU 0 instructions: 62000001 cycles: 33575622 heartbeat IPC: 1.14173 cumulative IPC: 0.883061 (Simulation time: 0 hr 31 min 54 sec) 
Heartbeat CPU 0 instructions: 63000003 cycles: 34432205 heartbeat IPC: 1.16743 cumulative IPC: 0.899924 (Simulation time: 0 hr 32 min 27 sec) 
Heartbeat CPU 0 instructions: 64000000 cycles: 35671555 heartbeat IPC: 0.806872 cumulative IPC: 0.892571 (Simulation time: 0 hr 32 min 58 sec) 
Heartbeat CPU 0 instructions: 65000003 cycles: 36554541 heartbeat IPC: 1.13252 cumulative IPC: 0.905359 (Simulation time: 0 hr 33 min 28 sec) 
Heartbeat CPU 0 instructions: 66000002 cycles: 37436215 heartbeat IPC: 1.1342 cumulative IPC: 0.916922 (Simulation time: 0 hr 33 min 57 sec) 
Heartbeat CPU 0 instructions: 67000000 cycles: 38663507 heartbeat IPC: 0.8148 cumulative IPC: 0.910212 (Simulation time: 0 hr 34 min 28 sec) 
Heartbeat CPU 0 instructions: 68000000 cycles: 40315810 heartbeat IPC: 0.605216 cumulative IPC: 0.885422 (Simulation time: 0 hr 34 min 59 sec) 
Heartbeat CPU 0 instructions: 69000003 cycles: 41203271 heartbeat IPC: 1.12681 cumulative IPC: 0.895519 (Simulation time: 0 hr 35 min 27 sec) 
Heartbeat CPU 0 instructions: 70000000 cycles: 42100071 heartbeat IPC: 1.11507 cumulative IPC: 0.904423 (Simulation time: 0 hr 35 min 56 sec) 
Heartbeat CPU 0 instructions: 71000000 cycles: 43229965 heartbeat IPC: 0.885039 cumulative IPC: 0.903481 (Simulation time: 0 hr 36 min 25 sec) 
Heartbeat CPU 0 instructions: 72000000 cycles: 44626979 heartbeat IPC: 0.715812 cumulative IPC: 0.892841 (Simulation time: 0 hr 36 min 54 sec) 
Heartbeat CPU 0 instructions: 73000000 cycles: 45499161 heartbeat IPC: 1.14655 cumulative IPC: 0.901514 (Simulation time: 0 hr 37 min 21 sec) 
Heartbeat CPU 0 instructions: 74000000 cycles: 46384483 heartbeat IPC: 1.12953 cumulative IPC: 0.909161 (Simulation time: 0 hr 37 min 49 sec) 
Heartbeat CPU 0 instructions: 75000000 cycles: 47549824 heartbeat IPC: 0.858118 cumulative IPC: 0.907003 (Simulation time: 0 hr 38 min 22 sec) 
Heartbeat CPU 0 instructions: 76000000 cycles: 48804906 heartbeat IPC: 0.796761 cumulative IPC: 0.902202 (Simulation time: 0 hr 38 min 52 sec) 
Heartbeat CPU 0 instructions: 77000003 cycles: 49705912 heartbeat IPC: 1.10987 cumulative IPC: 0.908498 (Simulation time: 0 hr 39 min 21 sec) 
Heartbeat CPU 0 instructions: 78000000 cycles: 50590928 heartbeat IPC: 1.12992 cumulative IPC: 0.914901 (Simulation time: 0 hr 39 min 50 sec) 
Heartbeat CPU 0 instructions: 79000001 cycles: 51918031 heartbeat IPC: 0.753522 cumulative IPC: 0.908194 (Simulation time: 0 hr 40 min 22 sec) 
Heartbeat CPU 0 instructions: 80000000 cycles: 53070281 heartbeat IPC: 0.867866 cumulative IPC: 0.90679 (Simulation time: 0 hr 40 min 51 sec) 
Heartbeat CPU 0 instructions: 81000000 cycles: 53993736 heartbeat IPC: 1.08289 cumulative IPC: 0.911572 (Simulation time: 0 hr 41 min 17 sec) 
Heartbeat CPU 0 instructions: 82000000 cycles: 54815763 heartbeat IPC: 1.21651 cumulative IPC: 0.918768 (Simulation time: 0 hr 41 min 46 sec) 
Heartbeat CPU 0 instructions: 83000000 cycles: 56198269 heartbeat IPC: 0.723324 cumulative IPC: 0.911307 (Simulation time: 0 hr 42 min 16 sec) 
Heartbeat CPU 0 instructions: 84000000 cycles: 57100182 heartbeat IPC: 1.10875 cumulative IPC: 0.916105 (Simulation time: 0 hr 42 min 43 sec) 
Heartbeat CPU 0 instructions: 85000001 cycles: 57910607 heartbeat IPC: 1.23392 cumulative IPC: 0.922897 (Simulation time: 0 hr 43 min 10 sec) 
Heartbeat CPU 0 instructions: 86000001 cycles: 58939630 heartbeat IPC: 0.971796 cumulative IPC: 0.924188 (Simulation time: 0 hr 43 min 39 sec) 
Heartbeat CPU 0 instructions: 87000000 cycles: 60102610 heartbeat IPC: 0.859859 cumulative IPC: 0.922323 (Simulation time: 0 hr 44 min 8 sec) 
Heartbeat CPU 0 instructions: 88000000 cycles: 60973265 heartbeat IPC: 1.14856 cumulative IPC: 0.927129 (Simulation time: 0 hr 44 min 37 sec) 
Heartbeat CPU 0 instructions: 89000000 cycles: 61773916 heartbeat IPC: 1.24898 cumulative IPC: 0.933296 (Simulation time: 0 hr 45 min 5 sec) 
Heartbeat CPU 0 instructions: 90000000 cycles: 63028929 heartbeat IPC: 0.796804 cumulative IPC: 0.929316 (Simulation time: 0 hr 45 min 35 sec) 
Heartbeat CPU 0 instructions: 91000003 cycles: 64280336 heartbeat IPC: 0.799103 cumulative IPC: 0.925637 (Simulation time: 0 hr 46 min 7 sec) 
Heartbeat CPU 0 instructions: 92000000 cycles: 65245649 heartbeat IPC: 1.03593 cumulative IPC: 0.92799 (Simulation time: 0 hr 46 min 34 sec) 
Heartbeat CPU 0 instructions: 93000000 cycles: 66115023 heartbeat IPC: 1.15025 cumulative IPC: 0.932179 (Simulation time: 0 hr 47 min 3 sec) 
Heartbeat CPU 0 instructions: 94000002 cycles: 66856605 heartbeat IPC: 1.34847 cumulative IPC: 0.938765 (Simulation time: 0 hr 47 min 30 sec) 
Heartbeat CPU 0 instructions: 95000001 cycles: 68195516 heartbeat IPC: 0.746875 cumulative IPC: 0.933436 (Simulation time: 0 hr 48 min 1 sec) 
Heartbeat CPU 0 instructions: 96000000 cycles: 69069064 heartbeat IPC: 1.14476 cumulative IPC: 0.937197 (Simulation time: 0 hr 48 min 29 sec) 
Heartbeat CPU 0 instructions: 97000000 cycles: 69901957 heartbeat IPC: 1.20063 cumulative IPC: 0.941593 (Simulation time: 0 hr 48 min 59 sec) 
Heartbeat CPU 0 instructions: 98000003 cycles: 71017287 heartbeat IPC: 0.896598 cumulative IPC: 0.940609 (Simulation time: 0 hr 49 min 30 sec) 
Heartbeat CPU 0 instructions: 99000000 cycles: 72069299 heartbeat IPC: 0.950557 cumulative IPC: 0.94081 (Simulation time: 0 hr 49 min 57 sec) 
Heartbeat CPU 0 instructions: 100000000 cycles: 72939665 heartbeat IPC: 1.14894 cumulative IPC: 0.944231 (Simulation time: 0 hr 50 min 25 sec) 
Heartbeat CPU 0 instructions: 101000000 cycles: 73745946 heartbeat IPC: 1.24026 cumulative IPC: 0.948671 (Simulation time: 0 hr 50 min 53 sec) 
Heartbeat CPU 0 instructions: 102000003 cycles: 75165398 heartbeat IPC: 0.704499 cumulative IPC: 0.94239 (Simulation time: 0 hr 51 min 23 sec) 
Heartbeat CPU 0 instructions: 103000001 cycles: 76123856 heartbeat IPC: 1.04334 cumulative IPC: 0.944113 (Simulation time: 0 hr 51 min 53 sec) 
Heartbeat CPU 0 instructions: 104000000 cycles: 76993054 heartbeat IPC: 1.15048 cumulative IPC: 0.94726 (Simulation time: 0 hr 52 min 22 sec) 
Heartbeat CPU 0 instructions: 105000002 cycles: 78030000 heartbeat IPC: 0.964372 cumulative IPC: 0.947566 (Simulation time: 0 hr 52 min 51 sec) 
Heartbeat CPU 0 instructions: 106000003 cycles: 79499166 heartbeat IPC: 0.680659 cumulative IPC: 0.940977 (Simulation time: 0 hr 53 min 26 sec) 
Heartbeat CPU 0 instructions: 107000001 cycles: 80351143 heartbeat IPC: 1.17374 cumulative IPC: 0.944262 (Simulation time: 0 hr 53 min 56 sec) 
Heartbeat CPU 0 instructions: 108000000 cycles: 81132746 heartbeat IPC: 1.27942 cumulative IPC: 0.948546 (Simulation time: 0 hr 54 min 25 sec) 
Heartbeat CPU 0 instructions: 109000001 cycles: 82242335 heartbeat IPC: 0.901236 cumulative IPC: 0.947703 (Simulation time: 0 hr 54 min 55 sec) 
Heartbeat CPU 0 instructions: 110000000 cycles: 83586589 heartbeat IPC: 0.743906 cumulative IPC: 0.943395 (Simulation time: 0 hr 55 min 28 sec) 
Heartbeat CPU 0 instructions: 111000003 cycles: 84436793 heartbeat IPC: 1.17619 cumulative IPC: 0.946466 (Simulation time: 0 hr 55 min 55 sec) 
Heartbeat CPU 0 instructions: 112000000 cycles: 85246383 heartbeat IPC: 1.23519 cumulative IPC: 0.950048 (Simulation time: 0 hr 56 min 21 sec) 
Heartbeat CPU 0 instructions: 113000002 cycles: 86426877 heartbeat IPC: 0.847105 cumulative IPC: 0.948219 (Simulation time: 0 hr 56 min 51 sec) 
Heartbeat CPU 0 instructions: 114000001 cycles: 87622569 heartbeat IPC: 0.836335 cumulative IPC: 0.946241 (Simulation time: 0 hr 57 min 24 sec) 
Heartbeat CPU 0 instructions: 115000002 cycles: 88485074 heartbeat IPC: 1.15941 cumulative IPC: 0.948925 (Simulation time: 0 hr 57 min 53 sec) 
Heartbeat CPU 0 instructions: 116000000 cycles: 89291567 heartbeat IPC: 1.23993 cumulative IPC: 0.952312 (Simulation time: 0 hr 58 min 22 sec) 
Heartbeat CPU 0 instructions: 117000002 cycles: 90683530 heartbeat IPC: 0.718411 cumulative IPC: 0.947706 (Simulation time: 0 hr 58 min 53 sec) 
Heartbeat CPU 0 instructions: 118000002 cycles: 91679968 heartbeat IPC: 1.00357 cumulative IPC: 0.948483 (Simulation time: 0 hr 59 min 22 sec) 
Heartbeat CPU 0 instructions: 119000001 cycles: 92536830 heartbeat IPC: 1.16705 cumulative IPC: 0.951064 (Simulation time: 0 hr 59 min 52 sec) 
Heartbeat CPU 0 instructions: 120000000 cycles: 93392294 heartbeat IPC: 1.16896 cumulative IPC: 0.953604 (Simulation time: 1 hr 0 min 22 sec) 
Heartbeat CPU 0 instructions: 121000000 cycles: 94836244 heartbeat IPC: 0.692545 cumulative IPC: 0.948567 (Simulation time: 1 hr 0 min 53 sec) 
Heartbeat CPU 0 instructions: 122000003 cycles: 95724655 heartbeat IPC: 1.12561 cumulative IPC: 0.950644 (Simulation time: 1 hr 1 min 21 sec) 
Heartbeat CPU 0 instructions: 123000001 cycles: 96572601 heartbeat IPC: 1.17932 cumulative IPC: 0.953176 (Simulation time: 1 hr 1 min 48 sec) 
Heartbeat CPU 0 instructions: 124000000 cycles: 97666747 heartbeat IPC: 0.913954 cumulative IPC: 0.952623 (Simulation time: 1 hr 2 min 19 sec) 
Heartbeat CPU 0 instructions: 125000003 cycles: 98965040 heartbeat IPC: 0.770244 cumulative IPC: 0.949625 (Simulation time: 1 hr 2 min 50 sec) 
Heartbeat CPU 0 instructions: 126000001 cycles: 99852675 heartbeat IPC: 1.12659 cumulative IPC: 0.951592 (Simulation time: 1 hr 3 min 19 sec) 
Heartbeat CPU 0 instructions: 127000000 cycles: 100711256 heartbeat IPC: 1.16471 cumulative IPC: 0.953859 (Simulation time: 1 hr 3 min 47 sec) 
Heartbeat CPU 0 instructions: 128000000 cycles: 101969156 heartbeat IPC: 0.794976 cumulative IPC: 0.951421 (Simulation time: 1 hr 4 min 15 sec) 
Heartbeat CPU 0 instructions: 129000002 cycles: 103270539 heartbeat IPC: 0.768415 cumulative IPC: 0.948561 (Simulation time: 1 hr 4 min 43 sec) 
Heartbeat CPU 0 instructions: 130000002 cycles: 104161946 heartbeat IPC: 1.12182 cumulative IPC: 0.950396 (Simulation time: 1 hr 5 min 9 sec) 
Heartbeat CPU 0 instructions: 131000001 cycles: 105022420 heartbeat IPC: 1.16215 cumulative IPC: 0.952539 (Simulation time: 1 hr 5 min 37 sec) 
Heartbeat CPU 0 instructions: 132000000 cycles: 106347795 heartbeat IPC: 0.754503 cumulative IPC: 0.9495 (Simulation time: 1 hr 6 min 5 sec) 
Heartbeat CPU 0 instructions: 133000001 cycles: 107833112 heartbeat IPC: 0.673258 cumulative IPC: 0.944829 (Simulation time: 1 hr 6 min 38 sec) 
Heartbeat CPU 0 instructions: 134000002 cycles: 108745710 heartbeat IPC: 1.09577 cumulative IPC: 0.946381 (Simulation time: 1 hr 7 min 8 sec) 
Heartbeat CPU 0 instructions: 135000001 cycles: 109612973 heartbeat IPC: 1.15305 cumulative IPC: 0.948381 (Simulation time: 1 hr 7 min 37 sec) 
Heartbeat CPU 0 instructions: 136000000 cycles: 110835367 heartbeat IPC: 0.818066 cumulative IPC: 0.946627 (Simulation time: 1 hr 8 min 5 sec) 
Heartbeat CPU 0 instructions: 137000001 cycles: 112122068 heartbeat IPC: 0.777182 cumulative IPC: 0.944261 (Simulation time: 1 hr 8 min 32 sec) 
Heartbeat CPU 0 instructions: 138000002 cycles: 113026842 heartbeat IPC: 1.10525 cumulative IPC: 0.945827 (Simulation time: 1 hr 8 min 56 sec) 
Heartbeat CPU 0 instructions: 139000001 cycles: 113891680 heartbeat IPC: 1.15628 cumulative IPC: 0.947765 (Simulation time: 1 hr 9 min 20 sec) 
Heartbeat CPU 0 instructions: 140000000 cycles: 115157770 heartbeat IPC: 0.789832 cumulative IPC: 0.945664 (Simulation time: 1 hr 9 min 47 sec) 
Heartbeat CPU 0 instructions: 141000000 cycles: 116632261 heartbeat IPC: 0.6782 cumulative IPC: 0.941583 (Simulation time: 1 hr 10 min 14 sec) 
Heartbeat CPU 0 instructions: 142000002 cycles: 117766351 heartbeat IPC: 0.881766 cumulative IPC: 0.940889 (Simulation time: 1 hr 10 min 39 sec) 
Heartbeat CPU 0 instructions: 143000003 cycles: 118625701 heartbeat IPC: 1.16367 cumulative IPC: 0.94283 (Simulation time: 1 hr 11 min 5 sec) 
Heartbeat CPU 0 instructions: 144000000 cycles: 119495148 heartbeat IPC: 1.15015 cumulative IPC: 0.944642 (Simulation time: 1 hr 11 min 33 sec) 
Heartbeat CPU 0 instructions: 145000000 cycles: 120620719 heartbeat IPC: 0.888438 cumulative IPC: 0.944013 (Simulation time: 1 hr 11 min 59 sec) 
Heartbeat CPU 0 instructions: 146000001 cycles: 122064350 heartbeat IPC: 0.692698 cumulative IPC: 0.940459 (Simulation time: 1 hr 12 min 25 sec) 
Heartbeat CPU 0 instructions: 147000002 cycles: 122942416 heartbeat IPC: 1.13887 cumulative IPC: 0.942151 (Simulation time: 1 hr 12 min 50 sec) 
Heartbeat CPU 0 instructions: 148000000 cycles: 123814459 heartbeat IPC: 1.14673 cumulative IPC: 0.943869 (Simulation time: 1 hr 13 min 17 sec) 
Heartbeat CPU 0 instructions: 149000001 cycles: 124974154 heartbeat IPC: 0.862297 cumulative IPC: 0.942968 (Simulation time: 1 hr 13 min 44 sec) 
Heartbeat CPU 0 instructions: 150000000 cycles: 126297903 heartbeat IPC: 0.755429 cumulative IPC: 0.940633 (Simulation time: 1 hr 14 min 13 sec) 
Finished CPU 0 instructions: 100000001 cycles: 106311371 cummulative IPC: 0.940633 (Simulation time: 1 hr 14 min 13 sec) 

ChampSim completed all CPUs

Region of Interest Statistics

CPU 0 cummulative IPC: 0.940633 instructions: 100000001 cycles: 106311371
LLC TOTAL     ACCESS:    1706388  HIT:     720531  MISS:     985857
LLC LOAD      ACCESS:     272374  HIT:     220014  MISS:      52360
LLC RFO       ACCESS:     107586  HIT:      91592  MISS:      15994
LLC PREFETCH  ACCESS:    1186846  HIT:     271228  MISS:     915618
LLC WRITEBACK ACCESS:     139582  HIT:     137697  MISS:       1885
OPTgen accesses: 9264
OPTgen hits: 8458
OPTgen hit rate: 91.2997


