
*** ChampSim Multicore Out-of-Order Simulator ***

Warmup Instructions: 50000000
Simulation Instructions: 100000000
Configuration: 2
Number of CPUs: 1
LLC sets: 2048
LLC ways: 16
Off-chip DRAM Channels: 1 Width: 64-bit Data Rate: 1600 MT/s

CPU 0 runs /datasets/cs240c-wi22-a00-public/data/Assignment2-gz/lbm_94B.trace.gz
CPU 0 L1D next line prefetcher
CPU 0 L2C IP-based stride prefetcher
Initialize Hawkeye state
Heartbeat CPU 0 instructions: 1000000 cycles: 422068 heartbeat IPC: 2.36929 cumulative IPC: 2.36929 (Simulation time: 0 hr 0 min 40 sec) 
Heartbeat CPU 0 instructions: 2000000 cycles: 812399 heartbeat IPC: 2.56193 cumulative IPC: 2.46184 (Simulation time: 0 hr 1 min 12 sec) 
Heartbeat CPU 0 instructions: 3000000 cycles: 1211539 heartbeat IPC: 2.50539 cumulative IPC: 2.47619 (Simulation time: 0 hr 1 min 55 sec) 
Heartbeat CPU 0 instructions: 4000000 cycles: 1631528 heartbeat IPC: 2.38101 cumulative IPC: 2.45169 (Simulation time: 0 hr 2 min 27 sec) 
Heartbeat CPU 0 instructions: 5000001 cycles: 2021787 heartbeat IPC: 2.5624 cumulative IPC: 2.47306 (Simulation time: 0 hr 2 min 59 sec) 
Heartbeat CPU 0 instructions: 6000000 cycles: 2422466 heartbeat IPC: 2.49576 cumulative IPC: 2.47681 (Simulation time: 0 hr 3 min 27 sec) 
Heartbeat CPU 0 instructions: 7000001 cycles: 2840598 heartbeat IPC: 2.39159 cumulative IPC: 2.46427 (Simulation time: 0 hr 3 min 56 sec) 
Heartbeat CPU 0 instructions: 8000000 cycles: 3230808 heartbeat IPC: 2.56272 cumulative IPC: 2.47616 (Simulation time: 0 hr 4 min 23 sec) 
Heartbeat CPU 0 instructions: 9000003 cycles: 3631834 heartbeat IPC: 2.49361 cumulative IPC: 2.47809 (Simulation time: 0 hr 4 min 51 sec) 
Heartbeat CPU 0 instructions: 10000000 cycles: 4048406 heartbeat IPC: 2.40054 cumulative IPC: 2.47011 (Simulation time: 0 hr 5 min 21 sec) 
Heartbeat CPU 0 instructions: 11000003 cycles: 4438595 heartbeat IPC: 2.56287 cumulative IPC: 2.47826 (Simulation time: 0 hr 5 min 49 sec) 
Heartbeat CPU 0 instructions: 12000000 cycles: 4839136 heartbeat IPC: 2.49662 cumulative IPC: 2.47978 (Simulation time: 0 hr 6 min 15 sec) 
Heartbeat CPU 0 instructions: 13000000 cycles: 5254528 heartbeat IPC: 2.40736 cumulative IPC: 2.47406 (Simulation time: 0 hr 6 min 42 sec) 
Heartbeat CPU 0 instructions: 14000003 cycles: 5644781 heartbeat IPC: 2.56245 cumulative IPC: 2.48017 (Simulation time: 0 hr 7 min 9 sec) 
Heartbeat CPU 0 instructions: 15000001 cycles: 6045167 heartbeat IPC: 2.49758 cumulative IPC: 2.48132 (Simulation time: 0 hr 7 min 38 sec) 
Heartbeat CPU 0 instructions: 16000000 cycles: 6459561 heartbeat IPC: 2.41316 cumulative IPC: 2.47695 (Simulation time: 0 hr 8 min 5 sec) 
Heartbeat CPU 0 instructions: 17000001 cycles: 6849809 heartbeat IPC: 2.56248 cumulative IPC: 2.48182 (Simulation time: 0 hr 8 min 31 sec) 
Heartbeat CPU 0 instructions: 18000001 cycles: 7248671 heartbeat IPC: 2.50713 cumulative IPC: 2.48321 (Simulation time: 0 hr 8 min 57 sec) 
Heartbeat CPU 0 instructions: 19000000 cycles: 7663216 heartbeat IPC: 2.41228 cumulative IPC: 2.47938 (Simulation time: 0 hr 9 min 24 sec) 
Heartbeat CPU 0 instructions: 20000000 cycles: 8053488 heartbeat IPC: 2.56232 cumulative IPC: 2.4834 (Simulation time: 0 hr 9 min 49 sec) 
Heartbeat CPU 0 instructions: 21000003 cycles: 8451571 heartbeat IPC: 2.51205 cumulative IPC: 2.48475 (Simulation time: 0 hr 10 min 15 sec) 
Heartbeat CPU 0 instructions: 22000000 cycles: 8865752 heartbeat IPC: 2.4144 cumulative IPC: 2.48146 (Simulation time: 0 hr 10 min 46 sec) 
Heartbeat CPU 0 instructions: 23000000 cycles: 9255920 heartbeat IPC: 2.563 cumulative IPC: 2.4849 (Simulation time: 0 hr 11 min 12 sec) 
Heartbeat CPU 0 instructions: 24000000 cycles: 9651983 heartbeat IPC: 2.52485 cumulative IPC: 2.48654 (Simulation time: 0 hr 11 min 37 sec) 
Heartbeat CPU 0 instructions: 25000000 cycles: 10065644 heartbeat IPC: 2.41744 cumulative IPC: 2.4837 (Simulation time: 0 hr 12 min 3 sec) 
Heartbeat CPU 0 instructions: 26000003 cycles: 10455888 heartbeat IPC: 2.56251 cumulative IPC: 2.48664 (Simulation time: 0 hr 12 min 31 sec) 
Heartbeat CPU 0 instructions: 27000002 cycles: 10850945 heartbeat IPC: 2.53128 cumulative IPC: 2.48826 (Simulation time: 0 hr 12 min 54 sec) 
Heartbeat CPU 0 instructions: 28000000 cycles: 11264385 heartbeat IPC: 2.41873 cumulative IPC: 2.48571 (Simulation time: 0 hr 13 min 19 sec) 
Heartbeat CPU 0 instructions: 29000000 cycles: 11654569 heartbeat IPC: 2.56289 cumulative IPC: 2.48829 (Simulation time: 0 hr 13 min 45 sec) 
Heartbeat CPU 0 instructions: 30000000 cycles: 12049619 heartbeat IPC: 2.53133 cumulative IPC: 2.48971 (Simulation time: 0 hr 14 min 11 sec) 
Heartbeat CPU 0 instructions: 31000003 cycles: 12460553 heartbeat IPC: 2.43349 cumulative IPC: 2.48785 (Simulation time: 0 hr 14 min 38 sec) 
Heartbeat CPU 0 instructions: 32000000 cycles: 12850836 heartbeat IPC: 2.56224 cumulative IPC: 2.49011 (Simulation time: 0 hr 15 min 1 sec) 
Heartbeat CPU 0 instructions: 33000002 cycles: 13245958 heartbeat IPC: 2.53087 cumulative IPC: 2.49133 (Simulation time: 0 hr 15 min 27 sec) 
Heartbeat CPU 0 instructions: 34000003 cycles: 13653500 heartbeat IPC: 2.45374 cumulative IPC: 2.4902 (Simulation time: 0 hr 15 min 52 sec) 
Heartbeat CPU 0 instructions: 35000002 cycles: 14045165 heartbeat IPC: 2.5532 cumulative IPC: 2.49196 (Simulation time: 0 hr 16 min 16 sec) 
Heartbeat CPU 0 instructions: 36000000 cycles: 14440188 heartbeat IPC: 2.53149 cumulative IPC: 2.49304 (Simulation time: 0 hr 16 min 42 sec) 
Heartbeat CPU 0 instructions: 37000003 cycles: 14842401 heartbeat IPC: 2.48625 cumulative IPC: 2.49286 (Simulation time: 0 hr 17 min 7 sec) 
Heartbeat CPU 0 instructions: 38000002 cycles: 15236923 heartbeat IPC: 2.53471 cumulative IPC: 2.49394 (Simulation time: 0 hr 17 min 33 sec) 
Heartbeat CPU 0 instructions: 39000000 cycles: 15627135 heartbeat IPC: 2.5627 cumulative IPC: 2.49566 (Simulation time: 0 hr 17 min 59 sec) 
Heartbeat CPU 0 instructions: 40000000 cycles: 16027448 heartbeat IPC: 2.49805 cumulative IPC: 2.49572 (Simulation time: 0 hr 18 min 24 sec) 
Heartbeat CPU 0 instructions: 41000003 cycles: 16426116 heartbeat IPC: 2.50836 cumulative IPC: 2.49603 (Simulation time: 0 hr 18 min 51 sec) 
Heartbeat CPU 0 instructions: 42000003 cycles: 16816352 heartbeat IPC: 2.56255 cumulative IPC: 2.49757 (Simulation time: 0 hr 19 min 15 sec) 
Heartbeat CPU 0 instructions: 43000003 cycles: 17211605 heartbeat IPC: 2.53003 cumulative IPC: 2.49831 (Simulation time: 0 hr 19 min 41 sec) 
Heartbeat CPU 0 instructions: 44000000 cycles: 17612576 heartbeat IPC: 2.49394 cumulative IPC: 2.49821 (Simulation time: 0 hr 20 min 8 sec) 
Heartbeat CPU 0 instructions: 45000002 cycles: 18002833 heartbeat IPC: 2.56242 cumulative IPC: 2.49961 (Simulation time: 0 hr 20 min 34 sec) 
Heartbeat CPU 0 instructions: 46000001 cycles: 18397984 heartbeat IPC: 2.53068 cumulative IPC: 2.50027 (Simulation time: 0 hr 20 min 59 sec) 
Heartbeat CPU 0 instructions: 47000003 cycles: 18796389 heartbeat IPC: 2.51001 cumulative IPC: 2.50048 (Simulation time: 0 hr 21 min 27 sec) 
Heartbeat CPU 0 instructions: 48000000 cycles: 19186536 heartbeat IPC: 2.56313 cumulative IPC: 2.50175 (Simulation time: 0 hr 21 min 55 sec) 
Heartbeat CPU 0 instructions: 49000000 cycles: 19581614 heartbeat IPC: 2.53115 cumulative IPC: 2.50235 (Simulation time: 0 hr 22 min 20 sec) 
Heartbeat CPU 0 instructions: 50000003 cycles: 19975904 heartbeat IPC: 2.53621 cumulative IPC: 2.50302 (Simulation time: 0 hr 22 min 46 sec) 

Warmup complete CPU 0 instructions: 50000003 cycles: 19975904 (Simulation time: 0 hr 22 min 46 sec) 

Heartbeat CPU 0 instructions: 51000003 cycles: 21380175 heartbeat IPC: 0.712113 cumulative IPC: 0.712113 (Simulation time: 0 hr 23 min 14 sec) 
Heartbeat CPU 0 instructions: 52000000 cycles: 22851718 heartbeat IPC: 0.679557 cumulative IPC: 0.695454 (Simulation time: 0 hr 23 min 44 sec) 
Heartbeat CPU 0 instructions: 53000001 cycles: 24329667 heartbeat IPC: 0.676614 cumulative IPC: 0.689059 (Simulation time: 0 hr 24 min 14 sec) 
Heartbeat CPU 0 instructions: 54000000 cycles: 25739789 heartbeat IPC: 0.709158 cumulative IPC: 0.693976 (Simulation time: 0 hr 24 min 44 sec) 
Heartbeat CPU 0 instructions: 55000003 cycles: 27132969 heartbeat IPC: 0.717784 cumulative IPC: 0.69861 (Simulation time: 0 hr 25 min 16 sec) 
Heartbeat CPU 0 instructions: 56000000 cycles: 28596246 heartbeat IPC: 0.683396 cumulative IPC: 0.696028 (Simulation time: 0 hr 25 min 48 sec) 
Heartbeat CPU 0 instructions: 57000003 cycles: 30053797 heartbeat IPC: 0.686084 cumulative IPC: 0.69459 (Simulation time: 0 hr 26 min 18 sec) 
Heartbeat CPU 0 instructions: 58000003 cycles: 31523725 heartbeat IPC: 0.680305 cumulative IPC: 0.692771 (Simulation time: 0 hr 26 min 50 sec) 
Heartbeat CPU 0 instructions: 59000002 cycles: 33022090 heartbeat IPC: 0.667393 cumulative IPC: 0.689857 (Simulation time: 0 hr 27 min 22 sec) 
Heartbeat CPU 0 instructions: 60000000 cycles: 34433379 heartbeat IPC: 0.708571 cumulative IPC: 0.691684 (Simulation time: 0 hr 27 min 54 sec) 
Heartbeat CPU 0 instructions: 61000000 cycles: 35827899 heartbeat IPC: 0.717093 cumulative IPC: 0.693919 (Simulation time: 0 hr 28 min 24 sec) 
Heartbeat CPU 0 instructions: 62000000 cycles: 37208050 heartbeat IPC: 0.724558 cumulative IPC: 0.696373 (Simulation time: 0 hr 28 min 57 sec) 
Heartbeat CPU 0 instructions: 63000001 cycles: 38655258 heartbeat IPC: 0.690986 cumulative IPC: 0.695955 (Simulation time: 0 hr 29 min 27 sec) 
Heartbeat CPU 0 instructions: 64000000 cycles: 40060770 heartbeat IPC: 0.711484 cumulative IPC: 0.697042 (Simulation time: 0 hr 29 min 59 sec) 
Heartbeat CPU 0 instructions: 65000003 cycles: 41457042 heartbeat IPC: 0.716195 cumulative IPC: 0.698287 (Simulation time: 0 hr 30 min 30 sec) 
Heartbeat CPU 0 instructions: 66000002 cycles: 42906040 heartbeat IPC: 0.690131 cumulative IPC: 0.697772 (Simulation time: 0 hr 31 min 1 sec) 
Heartbeat CPU 0 instructions: 67000002 cycles: 44344669 heartbeat IPC: 0.695106 cumulative IPC: 0.697614 (Simulation time: 0 hr 31 min 39 sec) 
Heartbeat CPU 0 instructions: 68000000 cycles: 45772872 heartbeat IPC: 0.700179 cumulative IPC: 0.697756 (Simulation time: 0 hr 32 min 12 sec) 
Heartbeat CPU 0 instructions: 69000000 cycles: 47161444 heartbeat IPC: 0.720164 cumulative IPC: 0.698901 (Simulation time: 0 hr 32 min 45 sec) 
Heartbeat CPU 0 instructions: 70000001 cycles: 48585564 heartbeat IPC: 0.702189 cumulative IPC: 0.699064 (Simulation time: 0 hr 33 min 16 sec) 
Heartbeat CPU 0 instructions: 71000001 cycles: 49953396 heartbeat IPC: 0.731084 cumulative IPC: 0.700526 (Simulation time: 0 hr 33 min 47 sec) 
Heartbeat CPU 0 instructions: 72000000 cycles: 51451686 heartbeat IPC: 0.667427 cumulative IPC: 0.69895 (Simulation time: 0 hr 34 min 19 sec) 
Heartbeat CPU 0 instructions: 73000001 cycles: 53004819 heartbeat IPC: 0.643861 cumulative IPC: 0.696359 (Simulation time: 0 hr 34 min 51 sec) 
Heartbeat CPU 0 instructions: 74000001 cycles: 54452067 heartbeat IPC: 0.690967 cumulative IPC: 0.696133 (Simulation time: 0 hr 35 min 23 sec) 
Heartbeat CPU 0 instructions: 75000003 cycles: 55900793 heartbeat IPC: 0.690263 cumulative IPC: 0.695896 (Simulation time: 0 hr 35 min 56 sec) 
Heartbeat CPU 0 instructions: 76000000 cycles: 57320476 heartbeat IPC: 0.704381 cumulative IPC: 0.696219 (Simulation time: 0 hr 36 min 27 sec) 
Heartbeat CPU 0 instructions: 77000002 cycles: 58736007 heartbeat IPC: 0.70645 cumulative IPC: 0.696593 (Simulation time: 0 hr 36 min 57 sec) 
Heartbeat CPU 0 instructions: 78000003 cycles: 60177255 heartbeat IPC: 0.693844 cumulative IPC: 0.696494 (Simulation time: 0 hr 37 min 26 sec) 
Heartbeat CPU 0 instructions: 79000000 cycles: 61600793 heartbeat IPC: 0.702473 cumulative IPC: 0.696698 (Simulation time: 0 hr 37 min 58 sec) 
Heartbeat CPU 0 instructions: 80000000 cycles: 63047807 heartbeat IPC: 0.691078 cumulative IPC: 0.69651 (Simulation time: 0 hr 38 min 32 sec) 
Heartbeat CPU 0 instructions: 81000000 cycles: 64454328 heartbeat IPC: 0.710974 cumulative IPC: 0.696967 (Simulation time: 0 hr 39 min 5 sec) 
Heartbeat CPU 0 instructions: 82000000 cycles: 65908197 heartbeat IPC: 0.68782 cumulative IPC: 0.696678 (Simulation time: 0 hr 39 min 38 sec) 
Heartbeat CPU 0 instructions: 83000003 cycles: 67372098 heartbeat IPC: 0.683108 cumulative IPC: 0.696258 (Simulation time: 0 hr 40 min 9 sec) 
Heartbeat CPU 0 instructions: 84000000 cycles: 68722462 heartbeat IPC: 0.740539 cumulative IPC: 0.697485 (Simulation time: 0 hr 40 min 38 sec) 
Heartbeat CPU 0 instructions: 85000001 cycles: 70086228 heartbeat IPC: 0.733264 cumulative IPC: 0.698459 (Simulation time: 0 hr 41 min 10 sec) 
Heartbeat CPU 0 instructions: 86000003 cycles: 71555925 heartbeat IPC: 0.680414 cumulative IPC: 0.697945 (Simulation time: 0 hr 41 min 39 sec) 
Heartbeat CPU 0 instructions: 87000000 cycles: 72992635 heartbeat IPC: 0.696033 cumulative IPC: 0.697893 (Simulation time: 0 hr 42 min 11 sec) 
Heartbeat CPU 0 instructions: 88000000 cycles: 74413842 heartbeat IPC: 0.703627 cumulative IPC: 0.698043 (Simulation time: 0 hr 42 min 42 sec) 
Heartbeat CPU 0 instructions: 89000003 cycles: 75759719 heartbeat IPC: 0.743012 cumulative IPC: 0.699127 (Simulation time: 0 hr 43 min 15 sec) 
Heartbeat CPU 0 instructions: 90000003 cycles: 77188408 heartbeat IPC: 0.699942 cumulative IPC: 0.699148 (Simulation time: 0 hr 43 min 47 sec) 
Heartbeat CPU 0 instructions: 91000002 cycles: 78665550 heartbeat IPC: 0.676982 cumulative IPC: 0.69859 (Simulation time: 0 hr 44 min 22 sec) 
Heartbeat CPU 0 instructions: 92000000 cycles: 80077060 heartbeat IPC: 0.70846 cumulative IPC: 0.698822 (Simulation time: 0 hr 44 min 51 sec) 
Heartbeat CPU 0 instructions: 93000003 cycles: 81522910 heartbeat IPC: 0.691637 cumulative IPC: 0.698653 (Simulation time: 0 hr 45 min 22 sec) 
Heartbeat CPU 0 instructions: 94000001 cycles: 82936340 heartbeat IPC: 0.707497 cumulative IPC: 0.698852 (Simulation time: 0 hr 45 min 53 sec) 
Heartbeat CPU 0 instructions: 95000001 cycles: 84357651 heartbeat IPC: 0.703576 cumulative IPC: 0.698956 (Simulation time: 0 hr 46 min 24 sec) 
Heartbeat CPU 0 instructions: 96000000 cycles: 85776065 heartbeat IPC: 0.705012 cumulative IPC: 0.699086 (Simulation time: 0 hr 46 min 56 sec) 
Heartbeat CPU 0 instructions: 97000000 cycles: 87195576 heartbeat IPC: 0.704468 cumulative IPC: 0.6992 (Simulation time: 0 hr 47 min 28 sec) 
Heartbeat CPU 0 instructions: 98000002 cycles: 88573681 heartbeat IPC: 0.725636 cumulative IPC: 0.699731 (Simulation time: 0 hr 48 min 1 sec) 
Heartbeat CPU 0 instructions: 99000001 cycles: 89950595 heartbeat IPC: 0.726261 cumulative IPC: 0.700253 (Simulation time: 0 hr 48 min 33 sec) 
Heartbeat CPU 0 instructions: 100000000 cycles: 91446571 heartbeat IPC: 0.668459 cumulative IPC: 0.699588 (Simulation time: 0 hr 49 min 6 sec) 
Heartbeat CPU 0 instructions: 101000003 cycles: 92894351 heartbeat IPC: 0.690715 cumulative IPC: 0.699412 (Simulation time: 0 hr 49 min 37 sec) 
Heartbeat CPU 0 instructions: 102000002 cycles: 94284360 heartbeat IPC: 0.719419 cumulative IPC: 0.699786 (Simulation time: 0 hr 50 min 8 sec) 
Heartbeat CPU 0 instructions: 103000000 cycles: 95690792 heartbeat IPC: 0.711018 cumulative IPC: 0.699994 (Simulation time: 0 hr 50 min 39 sec) 
Heartbeat CPU 0 instructions: 104000000 cycles: 97092558 heartbeat IPC: 0.713386 cumulative IPC: 0.700238 (Simulation time: 0 hr 51 min 14 sec) 
Heartbeat CPU 0 instructions: 105000002 cycles: 98503196 heartbeat IPC: 0.708901 cumulative IPC: 0.700393 (Simulation time: 0 hr 51 min 46 sec) 
Heartbeat CPU 0 instructions: 106000001 cycles: 99903863 heartbeat IPC: 0.713945 cumulative IPC: 0.700631 (Simulation time: 0 hr 52 min 17 sec) 
Heartbeat CPU 0 instructions: 107000000 cycles: 101412277 heartbeat IPC: 0.662947 cumulative IPC: 0.699933 (Simulation time: 0 hr 52 min 49 sec) 
Heartbeat CPU 0 instructions: 108000000 cycles: 102862928 heartbeat IPC: 0.689346 cumulative IPC: 0.699748 (Simulation time: 0 hr 53 min 25 sec) 
Heartbeat CPU 0 instructions: 109000002 cycles: 104297308 heartbeat IPC: 0.697167 cumulative IPC: 0.699704 (Simulation time: 0 hr 53 min 59 sec) 
Heartbeat CPU 0 instructions: 110000000 cycles: 105716780 heartbeat IPC: 0.704486 cumulative IPC: 0.699783 (Simulation time: 0 hr 54 min 31 sec) 
Heartbeat CPU 0 instructions: 111000003 cycles: 107060745 heartbeat IPC: 0.744069 cumulative IPC: 0.700466 (Simulation time: 0 hr 55 min 4 sec) 
Heartbeat CPU 0 instructions: 112000000 cycles: 108525105 heartbeat IPC: 0.68289 cumulative IPC: 0.700176 (Simulation time: 0 hr 55 min 41 sec) 
Heartbeat CPU 0 instructions: 113000001 cycles: 110020147 heartbeat IPC: 0.668878 cumulative IPC: 0.699656 (Simulation time: 0 hr 56 min 16 sec) 
Heartbeat CPU 0 instructions: 114000003 cycles: 111464744 heartbeat IPC: 0.692236 cumulative IPC: 0.699539 (Simulation time: 0 hr 56 min 47 sec) 
Heartbeat CPU 0 instructions: 115000003 cycles: 112880108 heartbeat IPC: 0.706532 cumulative IPC: 0.699645 (Simulation time: 0 hr 57 min 20 sec) 
Heartbeat CPU 0 instructions: 116000000 cycles: 114213624 heartbeat IPC: 0.749895 cumulative IPC: 0.700356 (Simulation time: 0 hr 57 min 52 sec) 
Heartbeat CPU 0 instructions: 117000003 cycles: 115622496 heartbeat IPC: 0.70979 cumulative IPC: 0.700495 (Simulation time: 0 hr 58 min 23 sec) 
Heartbeat CPU 0 instructions: 118000003 cycles: 117020008 heartbeat IPC: 0.715557 cumulative IPC: 0.700712 (Simulation time: 0 hr 58 min 53 sec) 
Heartbeat CPU 0 instructions: 119000000 cycles: 118452575 heartbeat IPC: 0.698046 cumulative IPC: 0.700674 (Simulation time: 0 hr 59 min 28 sec) 
Heartbeat CPU 0 instructions: 120000000 cycles: 119914835 heartbeat IPC: 0.683873 cumulative IPC: 0.700428 (Simulation time: 1 hr 0 min 0 sec) 
Heartbeat CPU 0 instructions: 121000002 cycles: 121279264 heartbeat IPC: 0.732909 cumulative IPC: 0.700865 (Simulation time: 1 hr 0 min 32 sec) 
Heartbeat CPU 0 instructions: 122000003 cycles: 122660539 heartbeat IPC: 0.72397 cumulative IPC: 0.701176 (Simulation time: 1 hr 1 min 3 sec) 
Heartbeat CPU 0 instructions: 123000002 cycles: 124068591 heartbeat IPC: 0.7102 cumulative IPC: 0.701298 (Simulation time: 1 hr 1 min 36 sec) 
Heartbeat CPU 0 instructions: 124000000 cycles: 125522342 heartbeat IPC: 0.687874 cumulative IPC: 0.701113 (Simulation time: 1 hr 2 min 9 sec) 
Heartbeat CPU 0 instructions: 125000001 cycles: 126939877 heartbeat IPC: 0.705451 cumulative IPC: 0.701171 (Simulation time: 1 hr 2 min 40 sec) 
Heartbeat CPU 0 instructions: 126000003 cycles: 128371915 heartbeat IPC: 0.698307 cumulative IPC: 0.701133 (Simulation time: 1 hr 3 min 10 sec) 
Heartbeat CPU 0 instructions: 127000002 cycles: 129855633 heartbeat IPC: 0.673982 cumulative IPC: 0.700766 (Simulation time: 1 hr 3 min 40 sec) 
Heartbeat CPU 0 instructions: 128000000 cycles: 131247136 heartbeat IPC: 0.718646 cumulative IPC: 0.70099 (Simulation time: 1 hr 4 min 10 sec) 
Heartbeat CPU 0 instructions: 129000003 cycles: 132625167 heartbeat IPC: 0.725675 cumulative IPC: 0.701292 (Simulation time: 1 hr 4 min 40 sec) 
Heartbeat CPU 0 instructions: 130000000 cycles: 134028481 heartbeat IPC: 0.712597 cumulative IPC: 0.701431 (Simulation time: 1 hr 5 min 10 sec) 
Heartbeat CPU 0 instructions: 131000001 cycles: 135399054 heartbeat IPC: 0.729623 cumulative IPC: 0.701766 (Simulation time: 1 hr 5 min 39 sec) 
Heartbeat CPU 0 instructions: 132000000 cycles: 136824126 heartbeat IPC: 0.701718 cumulative IPC: 0.701765 (Simulation time: 1 hr 6 min 10 sec) 
Heartbeat CPU 0 instructions: 133000003 cycles: 138237168 heartbeat IPC: 0.707695 cumulative IPC: 0.701836 (Simulation time: 1 hr 6 min 43 sec) 
Heartbeat CPU 0 instructions: 134000001 cycles: 139749308 heartbeat IPC: 0.661313 cumulative IPC: 0.701324 (Simulation time: 1 hr 7 min 18 sec) 
Heartbeat CPU 0 instructions: 135000000 cycles: 141102368 heartbeat IPC: 0.739065 cumulative IPC: 0.701746 (Simulation time: 1 hr 7 min 47 sec) 
Heartbeat CPU 0 instructions: 136000000 cycles: 142453827 heartbeat IPC: 0.739941 cumulative IPC: 0.702167 (Simulation time: 1 hr 8 min 17 sec) 
Heartbeat CPU 0 instructions: 137000002 cycles: 143895158 heartbeat IPC: 0.693805 cumulative IPC: 0.70207 (Simulation time: 1 hr 8 min 47 sec) 
Heartbeat CPU 0 instructions: 138000001 cycles: 145357832 heartbeat IPC: 0.683679 cumulative IPC: 0.701856 (Simulation time: 1 hr 9 min 15 sec) 
Heartbeat CPU 0 instructions: 139000000 cycles: 146800212 heartbeat IPC: 0.693298 cumulative IPC: 0.701758 (Simulation time: 1 hr 9 min 43 sec) 
Heartbeat CPU 0 instructions: 140000000 cycles: 148264579 heartbeat IPC: 0.682889 cumulative IPC: 0.701543 (Simulation time: 1 hr 10 min 12 sec) 
Heartbeat CPU 0 instructions: 141000001 cycles: 149723120 heartbeat IPC: 0.685617 cumulative IPC: 0.701364 (Simulation time: 1 hr 10 min 41 sec) 
Heartbeat CPU 0 instructions: 142000003 cycles: 151105141 heartbeat IPC: 0.723579 cumulative IPC: 0.701598 (Simulation time: 1 hr 11 min 10 sec) 
Heartbeat CPU 0 instructions: 143000003 cycles: 152493985 heartbeat IPC: 0.720023 cumulative IPC: 0.701791 (Simulation time: 1 hr 11 min 43 sec) 
Heartbeat CPU 0 instructions: 144000000 cycles: 153928290 heartbeat IPC: 0.6972 cumulative IPC: 0.701742 (Simulation time: 1 hr 12 min 12 sec) 
Heartbeat CPU 0 instructions: 145000002 cycles: 155339873 heartbeat IPC: 0.708426 cumulative IPC: 0.701812 (Simulation time: 1 hr 12 min 41 sec) 
Heartbeat CPU 0 instructions: 146000000 cycles: 156769547 heartbeat IPC: 0.699459 cumulative IPC: 0.701787 (Simulation time: 1 hr 13 min 9 sec) 
Heartbeat CPU 0 instructions: 147000000 cycles: 158208196 heartbeat IPC: 0.695097 cumulative IPC: 0.701717 (Simulation time: 1 hr 13 min 37 sec) 
Heartbeat CPU 0 instructions: 148000000 cycles: 159639823 heartbeat IPC: 0.698506 cumulative IPC: 0.701684 (Simulation time: 1 hr 14 min 6 sec) 
Heartbeat CPU 0 instructions: 149000001 cycles: 161084802 heartbeat IPC: 0.692052 cumulative IPC: 0.701586 (Simulation time: 1 hr 14 min 42 sec) 
Heartbeat CPU 0 instructions: 150000003 cycles: 162515816 heartbeat IPC: 0.698807 cumulative IPC: 0.701558 (Simulation time: 1 hr 15 min 13 sec) 
Finished CPU 0 instructions: 100000000 cycles: 142539912 cummulative IPC: 0.701558 (Simulation time: 1 hr 15 min 13 sec) 

ChampSim completed all CPUs

Region of Interest Statistics

CPU 0 cummulative IPC: 0.701558 instructions: 100000000 cycles: 142539912
LLC TOTAL     ACCESS:    5314932  HIT:    1721394  MISS:    3593538
LLC LOAD      ACCESS:     373124  HIT:      14740  MISS:     358384
LLC RFO       ACCESS:    2270811  HIT:     610230  MISS:    1660581
LLC PREFETCH  ACCESS:     400240  HIT:      18856  MISS:     381384
LLC WRITEBACK ACCESS:    2270757  HIT:    1077568  MISS:    1193189
OPTgen accesses: 63493
OPTgen hits: 20294
OPTgen hit rate: 31.9626


