
*** ChampSim Multicore Out-of-Order Simulator ***

Warmup Instructions: 50000000
Simulation Instructions: 100000000
Configuration: 2
Number of CPUs: 1
LLC sets: 2048
LLC ways: 16
Off-chip DRAM Channels: 1 Width: 64-bit Data Rate: 1600 MT/s

CPU 0 runs /datasets/cs240c-wi22-a00-public/data/Assignment2-gz/cactusADM_1495B.trace.gz
CPU 0 L1D next line prefetcher
CPU 0 L2C IP-based stride prefetcher
Initialize Hawkeye state
Heartbeat CPU 0 instructions: 1000003 cycles: 593383 heartbeat IPC: 1.68526 cumulative IPC: 1.68526 (Simulation time: 0 hr 0 min 45 sec) 
Heartbeat CPU 0 instructions: 2000000 cycles: 1186345 heartbeat IPC: 1.68644 cumulative IPC: 1.68585 (Simulation time: 0 hr 1 min 26 sec) 
Heartbeat CPU 0 instructions: 3000003 cycles: 1779703 heartbeat IPC: 1.68533 cumulative IPC: 1.68568 (Simulation time: 0 hr 2 min 8 sec) 
Heartbeat CPU 0 instructions: 4000000 cycles: 2372522 heartbeat IPC: 1.68685 cumulative IPC: 1.68597 (Simulation time: 0 hr 2 min 53 sec) 
Heartbeat CPU 0 instructions: 5000000 cycles: 2965579 heartbeat IPC: 1.68618 cumulative IPC: 1.68601 (Simulation time: 0 hr 3 min 30 sec) 
Heartbeat CPU 0 instructions: 6000001 cycles: 3558796 heartbeat IPC: 1.68573 cumulative IPC: 1.68596 (Simulation time: 0 hr 4 min 9 sec) 
Heartbeat CPU 0 instructions: 7000000 cycles: 4151738 heartbeat IPC: 1.6865 cumulative IPC: 1.68604 (Simulation time: 0 hr 4 min 48 sec) 
Heartbeat CPU 0 instructions: 8000000 cycles: 4906753 heartbeat IPC: 1.32448 cumulative IPC: 1.63041 (Simulation time: 0 hr 5 min 38 sec) 
Heartbeat CPU 0 instructions: 9000002 cycles: 5499948 heartbeat IPC: 1.68579 cumulative IPC: 1.63638 (Simulation time: 0 hr 6 min 21 sec) 
Heartbeat CPU 0 instructions: 10000002 cycles: 6092872 heartbeat IPC: 1.68656 cumulative IPC: 1.64126 (Simulation time: 0 hr 7 min 3 sec) 
Heartbeat CPU 0 instructions: 11000001 cycles: 6686000 heartbeat IPC: 1.68598 cumulative IPC: 1.64523 (Simulation time: 0 hr 7 min 47 sec) 
Heartbeat CPU 0 instructions: 12000000 cycles: 7279157 heartbeat IPC: 1.68589 cumulative IPC: 1.64854 (Simulation time: 0 hr 8 min 34 sec) 
Heartbeat CPU 0 instructions: 13000001 cycles: 7872063 heartbeat IPC: 1.68661 cumulative IPC: 1.65141 (Simulation time: 0 hr 9 min 18 sec) 
Heartbeat CPU 0 instructions: 14000003 cycles: 8465330 heartbeat IPC: 1.68559 cumulative IPC: 1.6538 (Simulation time: 0 hr 9 min 56 sec) 
Heartbeat CPU 0 instructions: 15000001 cycles: 9058420 heartbeat IPC: 1.68608 cumulative IPC: 1.65592 (Simulation time: 0 hr 10 min 32 sec) 
Heartbeat CPU 0 instructions: 16000000 cycles: 9651689 heartbeat IPC: 1.68557 cumulative IPC: 1.65774 (Simulation time: 0 hr 11 min 15 sec) 
Heartbeat CPU 0 instructions: 17000002 cycles: 10244675 heartbeat IPC: 1.68638 cumulative IPC: 1.6594 (Simulation time: 0 hr 11 min 55 sec) 
Heartbeat CPU 0 instructions: 18000000 cycles: 10837658 heartbeat IPC: 1.68639 cumulative IPC: 1.66088 (Simulation time: 0 hr 12 min 35 sec) 
Heartbeat CPU 0 instructions: 19000002 cycles: 11430670 heartbeat IPC: 1.68631 cumulative IPC: 1.66219 (Simulation time: 0 hr 13 min 16 sec) 
Heartbeat CPU 0 instructions: 20000000 cycles: 12024037 heartbeat IPC: 1.68529 cumulative IPC: 1.66333 (Simulation time: 0 hr 13 min 54 sec) 
Heartbeat CPU 0 instructions: 21000002 cycles: 12765397 heartbeat IPC: 1.34888 cumulative IPC: 1.64507 (Simulation time: 0 hr 14 min 40 sec) 
Heartbeat CPU 0 instructions: 22000003 cycles: 13370379 heartbeat IPC: 1.65294 cumulative IPC: 1.64543 (Simulation time: 0 hr 15 min 20 sec) 
Heartbeat CPU 0 instructions: 23000000 cycles: 13963070 heartbeat IPC: 1.68721 cumulative IPC: 1.6472 (Simulation time: 0 hr 16 min 0 sec) 
Heartbeat CPU 0 instructions: 24000000 cycles: 14556759 heartbeat IPC: 1.68438 cumulative IPC: 1.64872 (Simulation time: 0 hr 16 min 43 sec) 
Heartbeat CPU 0 instructions: 25000002 cycles: 15149905 heartbeat IPC: 1.68593 cumulative IPC: 1.65018 (Simulation time: 0 hr 17 min 26 sec) 
Heartbeat CPU 0 instructions: 26000003 cycles: 15742474 heartbeat IPC: 1.68757 cumulative IPC: 1.65158 (Simulation time: 0 hr 18 min 5 sec) 
Heartbeat CPU 0 instructions: 27000001 cycles: 16335564 heartbeat IPC: 1.68608 cumulative IPC: 1.65284 (Simulation time: 0 hr 18 min 43 sec) 
Heartbeat CPU 0 instructions: 28000000 cycles: 16928654 heartbeat IPC: 1.68608 cumulative IPC: 1.654 (Simulation time: 0 hr 19 min 23 sec) 
Heartbeat CPU 0 instructions: 29000002 cycles: 17521813 heartbeat IPC: 1.68589 cumulative IPC: 1.65508 (Simulation time: 0 hr 20 min 0 sec) 
Heartbeat CPU 0 instructions: 30000002 cycles: 18114917 heartbeat IPC: 1.68604 cumulative IPC: 1.65609 (Simulation time: 0 hr 20 min 39 sec) 
Heartbeat CPU 0 instructions: 31000002 cycles: 18708186 heartbeat IPC: 1.68558 cumulative IPC: 1.65703 (Simulation time: 0 hr 21 min 22 sec) 
Heartbeat CPU 0 instructions: 32000000 cycles: 19301557 heartbeat IPC: 1.68528 cumulative IPC: 1.6579 (Simulation time: 0 hr 22 min 2 sec) 
Heartbeat CPU 0 instructions: 33000001 cycles: 19894281 heartbeat IPC: 1.68713 cumulative IPC: 1.65877 (Simulation time: 0 hr 22 min 44 sec) 
Heartbeat CPU 0 instructions: 34000002 cycles: 20606286 heartbeat IPC: 1.40449 cumulative IPC: 1.64998 (Simulation time: 0 hr 23 min 30 sec) 
Heartbeat CPU 0 instructions: 35000001 cycles: 21242243 heartbeat IPC: 1.57243 cumulative IPC: 1.64766 (Simulation time: 0 hr 24 min 8 sec) 
Heartbeat CPU 0 instructions: 36000000 cycles: 21835313 heartbeat IPC: 1.68614 cumulative IPC: 1.64871 (Simulation time: 0 hr 24 min 46 sec) 
Heartbeat CPU 0 instructions: 37000000 cycles: 22428120 heartbeat IPC: 1.68689 cumulative IPC: 1.64971 (Simulation time: 0 hr 25 min 29 sec) 
Heartbeat CPU 0 instructions: 38000003 cycles: 23021071 heartbeat IPC: 1.68649 cumulative IPC: 1.65066 (Simulation time: 0 hr 26 min 8 sec) 
Heartbeat CPU 0 instructions: 39000002 cycles: 23614382 heartbeat IPC: 1.68545 cumulative IPC: 1.65154 (Simulation time: 0 hr 26 min 48 sec) 
Heartbeat CPU 0 instructions: 40000000 cycles: 24207280 heartbeat IPC: 1.68663 cumulative IPC: 1.6524 (Simulation time: 0 hr 27 min 28 sec) 
Heartbeat CPU 0 instructions: 41000002 cycles: 24800180 heartbeat IPC: 1.68663 cumulative IPC: 1.65321 (Simulation time: 0 hr 28 min 7 sec) 
Heartbeat CPU 0 instructions: 42000000 cycles: 25393101 heartbeat IPC: 1.68656 cumulative IPC: 1.65399 (Simulation time: 0 hr 28 min 43 sec) 
Heartbeat CPU 0 instructions: 43000000 cycles: 25986098 heartbeat IPC: 1.68635 cumulative IPC: 1.65473 (Simulation time: 0 hr 29 min 21 sec) 
Heartbeat CPU 0 instructions: 44000000 cycles: 26578942 heartbeat IPC: 1.68678 cumulative IPC: 1.65545 (Simulation time: 0 hr 30 min 7 sec) 
Heartbeat CPU 0 instructions: 45000003 cycles: 27171926 heartbeat IPC: 1.68639 cumulative IPC: 1.65612 (Simulation time: 0 hr 30 min 48 sec) 
Heartbeat CPU 0 instructions: 46000001 cycles: 27765054 heartbeat IPC: 1.68597 cumulative IPC: 1.65676 (Simulation time: 0 hr 31 min 30 sec) 
Heartbeat CPU 0 instructions: 47000001 cycles: 28445132 heartbeat IPC: 1.47042 cumulative IPC: 1.6523 (Simulation time: 0 hr 32 min 22 sec) 
Heartbeat CPU 0 instructions: 48000000 cycles: 29112077 heartbeat IPC: 1.49937 cumulative IPC: 1.6488 (Simulation time: 0 hr 33 min 9 sec) 
Heartbeat CPU 0 instructions: 49000001 cycles: 29705027 heartbeat IPC: 1.68648 cumulative IPC: 1.64955 (Simulation time: 0 hr 33 min 48 sec) 
Heartbeat CPU 0 instructions: 50000003 cycles: 30297945 heartbeat IPC: 1.68658 cumulative IPC: 1.65028 (Simulation time: 0 hr 34 min 37 sec) 

Warmup complete CPU 0 instructions: 50000003 cycles: 30297945 (Simulation time: 0 hr 34 min 37 sec) 

Heartbeat CPU 0 instructions: 51000000 cycles: 31985382 heartbeat IPC: 0.592613 cumulative IPC: 0.592613 (Simulation time: 0 hr 35 min 24 sec) 
Heartbeat CPU 0 instructions: 52000000 cycles: 33666001 heartbeat IPC: 0.595019 cumulative IPC: 0.593813 (Simulation time: 0 hr 36 min 6 sec) 
Heartbeat CPU 0 instructions: 53000003 cycles: 35404704 heartbeat IPC: 0.575143 cumulative IPC: 0.587457 (Simulation time: 0 hr 36 min 51 sec) 
Heartbeat CPU 0 instructions: 54000001 cycles: 37143832 heartbeat IPC: 0.575 cumulative IPC: 0.584292 (Simulation time: 0 hr 37 min 36 sec) 
Heartbeat CPU 0 instructions: 55000000 cycles: 38880171 heartbeat IPC: 0.575924 cumulative IPC: 0.582599 (Simulation time: 0 hr 38 min 27 sec) 
Heartbeat CPU 0 instructions: 56000000 cycles: 40539188 heartbeat IPC: 0.602767 cumulative IPC: 0.585866 (Simulation time: 0 hr 39 min 9 sec) 
Heartbeat CPU 0 instructions: 57000000 cycles: 42253101 heartbeat IPC: 0.58346 cumulative IPC: 0.585521 (Simulation time: 0 hr 39 min 54 sec) 
Heartbeat CPU 0 instructions: 58000002 cycles: 43993851 heartbeat IPC: 0.574466 cumulative IPC: 0.584116 (Simulation time: 0 hr 40 min 35 sec) 
Heartbeat CPU 0 instructions: 59000001 cycles: 45735952 heartbeat IPC: 0.574019 cumulative IPC: 0.582977 (Simulation time: 0 hr 41 min 19 sec) 
Heartbeat CPU 0 instructions: 60000000 cycles: 49094712 heartbeat IPC: 0.297729 cumulative IPC: 0.532006 (Simulation time: 0 hr 42 min 3 sec) 
Heartbeat CPU 0 instructions: 61000001 cycles: 54052726 heartbeat IPC: 0.201694 cumulative IPC: 0.463065 (Simulation time: 0 hr 42 min 54 sec) 
Heartbeat CPU 0 instructions: 62000000 cycles: 55789321 heartbeat IPC: 0.575839 cumulative IPC: 0.470747 (Simulation time: 0 hr 43 min 38 sec) 
Heartbeat CPU 0 instructions: 63000000 cycles: 57530013 heartbeat IPC: 0.574484 cumulative IPC: 0.477378 (Simulation time: 0 hr 44 min 23 sec) 
Heartbeat CPU 0 instructions: 64000000 cycles: 59264877 heartbeat IPC: 0.576414 cumulative IPC: 0.48331 (Simulation time: 0 hr 45 min 11 sec) 
Heartbeat CPU 0 instructions: 65000002 cycles: 60926938 heartbeat IPC: 0.601664 cumulative IPC: 0.489732 (Simulation time: 0 hr 46 min 6 sec) 
Heartbeat CPU 0 instructions: 66000003 cycles: 62633556 heartbeat IPC: 0.585955 cumulative IPC: 0.49481 (Simulation time: 0 hr 46 min 57 sec) 
Heartbeat CPU 0 instructions: 67000001 cycles: 64373697 heartbeat IPC: 0.574665 cumulative IPC: 0.498888 (Simulation time: 0 hr 47 min 44 sec) 
Heartbeat CPU 0 instructions: 68000000 cycles: 66114671 heartbeat IPC: 0.574391 cumulative IPC: 0.502558 (Simulation time: 0 hr 48 min 31 sec) 
Heartbeat CPU 0 instructions: 69000003 cycles: 67833202 heartbeat IPC: 0.581894 cumulative IPC: 0.506191 (Simulation time: 0 hr 49 min 15 sec) 
Heartbeat CPU 0 instructions: 70000000 cycles: 69487693 heartbeat IPC: 0.604414 cumulative IPC: 0.510337 (Simulation time: 0 hr 50 min 9 sec) 
Heartbeat CPU 0 instructions: 71000002 cycles: 71217792 heartbeat IPC: 0.578003 cumulative IPC: 0.513198 (Simulation time: 0 hr 51 min 2 sec) 
Heartbeat CPU 0 instructions: 72000000 cycles: 72958922 heartbeat IPC: 0.574338 cumulative IPC: 0.515694 (Simulation time: 0 hr 51 min 51 sec) 
Heartbeat CPU 0 instructions: 73000001 cycles: 75429057 heartbeat IPC: 0.404837 cumulative IPC: 0.509626 (Simulation time: 0 hr 52 min 41 sec) 
Heartbeat CPU 0 instructions: 74000002 cycles: 81342565 heartbeat IPC: 0.169105 cumulative IPC: 0.470177 (Simulation time: 0 hr 53 min 35 sec) 
Heartbeat CPU 0 instructions: 75000002 cycles: 83041885 heartbeat IPC: 0.588471 cumulative IPC: 0.473988 (Simulation time: 0 hr 54 min 19 sec) 
Heartbeat CPU 0 instructions: 76000000 cycles: 84781929 heartbeat IPC: 0.574697 cumulative IPC: 0.477204 (Simulation time: 0 hr 55 min 7 sec) 
Heartbeat CPU 0 instructions: 77000001 cycles: 86521238 heartbeat IPC: 0.574942 cumulative IPC: 0.480228 (Simulation time: 0 hr 55 min 55 sec) 
Heartbeat CPU 0 instructions: 78000000 cycles: 88245170 heartbeat IPC: 0.580069 cumulative IPC: 0.483198 (Simulation time: 0 hr 56 min 41 sec) 
Heartbeat CPU 0 instructions: 79000003 cycles: 89892910 heartbeat IPC: 0.606894 cumulative IPC: 0.486618 (Simulation time: 0 hr 57 min 23 sec) 
Heartbeat CPU 0 instructions: 80000000 cycles: 91624213 heartbeat IPC: 0.577598 cumulative IPC: 0.489187 (Simulation time: 0 hr 58 min 7 sec) 
Heartbeat CPU 0 instructions: 81000002 cycles: 93364865 heartbeat IPC: 0.574499 cumulative IPC: 0.491541 (Simulation time: 0 hr 58 min 48 sec) 
Heartbeat CPU 0 instructions: 82000000 cycles: 95105503 heartbeat IPC: 0.574501 cumulative IPC: 0.49377 (Simulation time: 0 hr 59 min 31 sec) 
Heartbeat CPU 0 instructions: 83000000 cycles: 96794471 heartbeat IPC: 0.592078 cumulative IPC: 0.496266 (Simulation time: 1 hr 0 min 12 sec) 
Heartbeat CPU 0 instructions: 84000000 cycles: 98471255 heartbeat IPC: 0.59638 cumulative IPC: 0.498729 (Simulation time: 1 hr 0 min 51 sec) 
Heartbeat CPU 0 instructions: 85000003 cycles: 100234970 heartbeat IPC: 0.566987 cumulative IPC: 0.50045 (Simulation time: 1 hr 1 min 31 sec) 
Heartbeat CPU 0 instructions: 86000000 cycles: 101977514 heartbeat IPC: 0.573872 cumulative IPC: 0.502235 (Simulation time: 1 hr 2 min 13 sec) 
Heartbeat CPU 0 instructions: 87000001 cycles: 108714891 heartbeat IPC: 0.148426 cumulative IPC: 0.471837 (Simulation time: 1 hr 3 min 9 sec) 
Heartbeat CPU 0 instructions: 88000000 cycles: 110360798 heartbeat IPC: 0.607567 cumulative IPC: 0.474627 (Simulation time: 1 hr 3 min 51 sec) 
Heartbeat CPU 0 instructions: 89000002 cycles: 112088735 heartbeat IPC: 0.578726 cumulative IPC: 0.476826 (Simulation time: 1 hr 4 min 39 sec) 
Heartbeat CPU 0 instructions: 90000001 cycles: 113854601 heartbeat IPC: 0.566294 cumulative IPC: 0.478717 (Simulation time: 1 hr 5 min 25 sec) 
Heartbeat CPU 0 instructions: 91000002 cycles: 115593301 heartbeat IPC: 0.575143 cumulative IPC: 0.480683 (Simulation time: 1 hr 6 min 7 sec) 
Heartbeat CPU 0 instructions: 92000000 cycles: 117289488 heartbeat IPC: 0.589556 cumulative IPC: 0.482806 (Simulation time: 1 hr 6 min 47 sec) 
Heartbeat CPU 0 instructions: 93000002 cycles: 118960533 heartbeat IPC: 0.598429 cumulative IPC: 0.484985 (Simulation time: 1 hr 7 min 33 sec) 
Heartbeat CPU 0 instructions: 94000002 cycles: 120695993 heartbeat IPC: 0.576216 cumulative IPC: 0.486736 (Simulation time: 1 hr 8 min 21 sec) 
Heartbeat CPU 0 instructions: 95000003 cycles: 122437230 heartbeat IPC: 0.574305 cumulative IPC: 0.488391 (Simulation time: 1 hr 9 min 2 sec) 
Heartbeat CPU 0 instructions: 96000000 cycles: 124173284 heartbeat IPC: 0.576017 cumulative IPC: 0.490012 (Simulation time: 1 hr 9 min 45 sec) 
Heartbeat CPU 0 instructions: 97000003 cycles: 125836451 heartbeat IPC: 0.601264 cumulative IPC: 0.491948 (Simulation time: 1 hr 10 min 27 sec) 
Heartbeat CPU 0 instructions: 98000003 cycles: 127538803 heartbeat IPC: 0.587423 cumulative IPC: 0.49362 (Simulation time: 1 hr 11 min 13 sec) 
Heartbeat CPU 0 instructions: 99000000 cycles: 129279242 heartbeat IPC: 0.574566 cumulative IPC: 0.495043 (Simulation time: 1 hr 11 min 59 sec) 
Heartbeat CPU 0 instructions: 100000000 cycles: 136024870 heartbeat IPC: 0.148244 cumulative IPC: 0.472916 (Simulation time: 1 hr 12 min 48 sec) 
Heartbeat CPU 0 instructions: 101000000 cycles: 137723817 heartbeat IPC: 0.5886 cumulative IPC: 0.474746 (Simulation time: 1 hr 13 min 24 sec) 
Heartbeat CPU 0 instructions: 102000003 cycles: 139392185 heartbeat IPC: 0.59939 cumulative IPC: 0.476652 (Simulation time: 1 hr 14 min 3 sec) 
Heartbeat CPU 0 instructions: 103000000 cycles: 141125500 heartbeat IPC: 0.576927 cumulative IPC: 0.47822 (Simulation time: 1 hr 14 min 43 sec) 
Heartbeat CPU 0 instructions: 104000000 cycles: 142865193 heartbeat IPC: 0.574814 cumulative IPC: 0.479713 (Simulation time: 1 hr 15 min 21 sec) 
Heartbeat CPU 0 instructions: 105000001 cycles: 144600828 heartbeat IPC: 0.576159 cumulative IPC: 0.481178 (Simulation time: 1 hr 16 min 0 sec) 
Heartbeat CPU 0 instructions: 106000000 cycles: 146269235 heartbeat IPC: 0.599374 cumulative IPC: 0.482878 (Simulation time: 1 hr 16 min 35 sec) 
Heartbeat CPU 0 instructions: 107000001 cycles: 147966607 heartbeat IPC: 0.589147 cumulative IPC: 0.484411 (Simulation time: 1 hr 17 min 9 sec) 
Heartbeat CPU 0 instructions: 108000000 cycles: 149707239 heartbeat IPC: 0.574503 cumulative IPC: 0.485724 (Simulation time: 1 hr 17 min 41 sec) 
Heartbeat CPU 0 instructions: 109000002 cycles: 151447660 heartbeat IPC: 0.574575 cumulative IPC: 0.487001 (Simulation time: 1 hr 18 min 12 sec) 
Heartbeat CPU 0 instructions: 110000001 cycles: 153173431 heartbeat IPC: 0.579451 cumulative IPC: 0.488299 (Simulation time: 1 hr 18 min 44 sec) 
Heartbeat CPU 0 instructions: 111000003 cycles: 154822566 heartbeat IPC: 0.60638 cumulative IPC: 0.489863 (Simulation time: 1 hr 19 min 14 sec) 
Heartbeat CPU 0 instructions: 112000000 cycles: 156551369 heartbeat IPC: 0.578433 cumulative IPC: 0.491076 (Simulation time: 1 hr 19 min 45 sec) 
Heartbeat CPU 0 instructions: 113000001 cycles: 163238021 heartbeat IPC: 0.149552 cumulative IPC: 0.473898 (Simulation time: 1 hr 20 min 19 sec) 
Heartbeat CPU 0 instructions: 114000003 cycles: 164974811 heartbeat IPC: 0.575776 cumulative IPC: 0.475212 (Simulation time: 1 hr 20 min 46 sec) 
Heartbeat CPU 0 instructions: 115000003 cycles: 166648240 heartbeat IPC: 0.597575 cumulative IPC: 0.476713 (Simulation time: 1 hr 21 min 12 sec) 
Heartbeat CPU 0 instructions: 116000000 cycles: 168341428 heartbeat IPC: 0.5906 cumulative IPC: 0.47811 (Simulation time: 1 hr 21 min 39 sec) 
Heartbeat CPU 0 instructions: 117000002 cycles: 170080891 heartbeat IPC: 0.574891 cumulative IPC: 0.479315 (Simulation time: 1 hr 22 min 3 sec) 
Heartbeat CPU 0 instructions: 118000001 cycles: 171821883 heartbeat IPC: 0.574385 cumulative IPC: 0.480484 (Simulation time: 1 hr 22 min 29 sec) 
Heartbeat CPU 0 instructions: 119000000 cycles: 173549822 heartbeat IPC: 0.578724 cumulative IPC: 0.481669 (Simulation time: 1 hr 22 min 53 sec) 
Heartbeat CPU 0 instructions: 120000000 cycles: 175197932 heartbeat IPC: 0.606756 cumulative IPC: 0.483092 (Simulation time: 1 hr 23 min 16 sec) 
Heartbeat CPU 0 instructions: 121000003 cycles: 176924476 heartbeat IPC: 0.579193 cumulative IPC: 0.484223 (Simulation time: 1 hr 23 min 40 sec) 
Heartbeat CPU 0 instructions: 122000003 cycles: 178665294 heartbeat IPC: 0.574443 cumulative IPC: 0.485282 (Simulation time: 1 hr 24 min 4 sec) 
Heartbeat CPU 0 instructions: 123000001 cycles: 180405937 heartbeat IPC: 0.574499 cumulative IPC: 0.486317 (Simulation time: 1 hr 24 min 25 sec) 
Heartbeat CPU 0 instructions: 124000000 cycles: 182104656 heartbeat IPC: 0.588678 cumulative IPC: 0.487462 (Simulation time: 1 hr 24 min 45 sec) 
Heartbeat CPU 0 instructions: 125000000 cycles: 183776038 heartbeat IPC: 0.598307 cumulative IPC: 0.488669 (Simulation time: 1 hr 25 min 6 sec) 
Heartbeat CPU 0 instructions: 126000002 cycles: 190215597 heartbeat IPC: 0.15529 cumulative IPC: 0.475245 (Simulation time: 1 hr 25 min 29 sec) 
Heartbeat CPU 0 instructions: 127000002 cycles: 192206535 heartbeat IPC: 0.502276 cumulative IPC: 0.475577 (Simulation time: 1 hr 25 min 49 sec) 
Heartbeat CPU 0 instructions: 128000000 cycles: 193936393 heartbeat IPC: 0.578081 cumulative IPC: 0.476661 (Simulation time: 1 hr 26 min 8 sec) 
Heartbeat CPU 0 instructions: 129000001 cycles: 195588177 heartbeat IPC: 0.605407 cumulative IPC: 0.477947 (Simulation time: 1 hr 26 min 27 sec) 
Heartbeat CPU 0 instructions: 130000001 cycles: 197310548 heartbeat IPC: 0.580595 cumulative IPC: 0.479006 (Simulation time: 1 hr 26 min 44 sec) 
Heartbeat CPU 0 instructions: 131000002 cycles: 199051024 heartbeat IPC: 0.574556 cumulative IPC: 0.479991 (Simulation time: 1 hr 27 min 1 sec) 
Heartbeat CPU 0 instructions: 132000000 cycles: 200789664 heartbeat IPC: 0.575161 cumulative IPC: 0.480962 (Simulation time: 1 hr 27 min 18 sec) 
Heartbeat CPU 0 instructions: 133000002 cycles: 202489602 heartbeat IPC: 0.588258 cumulative IPC: 0.482021 (Simulation time: 1 hr 27 min 35 sec) 
Heartbeat CPU 0 instructions: 134000000 cycles: 204153744 heartbeat IPC: 0.600909 cumulative IPC: 0.483159 (Simulation time: 1 hr 27 min 52 sec) 
Heartbeat CPU 0 instructions: 135000003 cycles: 205889427 heartbeat IPC: 0.576144 cumulative IPC: 0.484078 (Simulation time: 1 hr 28 min 9 sec) 
Heartbeat CPU 0 instructions: 136000000 cycles: 207628559 heartbeat IPC: 0.574998 cumulative IPC: 0.48497 (Simulation time: 1 hr 28 min 26 sec) 
Heartbeat CPU 0 instructions: 137000003 cycles: 209365335 heartbeat IPC: 0.575781 cumulative IPC: 0.485851 (Simulation time: 1 hr 28 min 42 sec) 
Heartbeat CPU 0 instructions: 138000003 cycles: 211037522 heartbeat IPC: 0.598019 cumulative IPC: 0.486888 (Simulation time: 1 hr 28 min 58 sec) 
Heartbeat CPU 0 instructions: 139000000 cycles: 216442966 heartbeat IPC: 0.184998 cumulative IPC: 0.478122 (Simulation time: 1 hr 29 min 16 sec) 
Heartbeat CPU 0 instructions: 140000000 cycles: 219409494 heartbeat IPC: 0.337094 cumulative IPC: 0.47591 (Simulation time: 1 hr 29 min 31 sec) 
Heartbeat CPU 0 instructions: 141000001 cycles: 221146775 heartbeat IPC: 0.575613 cumulative IPC: 0.476817 (Simulation time: 1 hr 29 min 44 sec) 
Heartbeat CPU 0 instructions: 142000000 cycles: 222853565 heartbeat IPC: 0.585895 cumulative IPC: 0.477784 (Simulation time: 1 hr 29 min 57 sec) 
Heartbeat CPU 0 instructions: 143000003 cycles: 224514048 heartbeat IPC: 0.602236 cumulative IPC: 0.478848 (Simulation time: 1 hr 30 min 8 sec) 
Heartbeat CPU 0 instructions: 144000000 cycles: 226246016 heartbeat IPC: 0.577376 cumulative IPC: 0.479719 (Simulation time: 1 hr 30 min 18 sec) 
Heartbeat CPU 0 instructions: 145000002 cycles: 227999722 heartbeat IPC: 0.570222 cumulative IPC: 0.480522 (Simulation time: 1 hr 30 min 26 sec) 
Heartbeat CPU 0 instructions: 146000001 cycles: 229736170 heartbeat IPC: 0.575888 cumulative IPC: 0.481352 (Simulation time: 1 hr 30 min 34 sec) 
Heartbeat CPU 0 instructions: 147000000 cycles: 231409418 heartbeat IPC: 0.597639 cumulative IPC: 0.48232 (Simulation time: 1 hr 30 min 40 sec) 
Heartbeat CPU 0 instructions: 148000000 cycles: 233097390 heartbeat IPC: 0.592427 cumulative IPC: 0.483236 (Simulation time: 1 hr 30 min 48 sec) 
Heartbeat CPU 0 instructions: 149000000 cycles: 234851232 heartbeat IPC: 0.570177 cumulative IPC: 0.483981 (Simulation time: 1 hr 30 min 55 sec) 
Heartbeat CPU 0 instructions: 150000002 cycles: 236609098 heartbeat IPC: 0.568873 cumulative IPC: 0.484705 (Simulation time: 1 hr 31 min 2 sec) 
Finished CPU 0 instructions: 100000003 cycles: 206311154 cummulative IPC: 0.484705 (Simulation time: 1 hr 31 min 2 sec) 

ChampSim completed all CPUs

Region of Interest Statistics

CPU 0 cummulative IPC: 0.484705 instructions: 100000003 cycles: 206311154
LLC TOTAL     ACCESS:    1106865  HIT:     315661  MISS:     791204
LLC LOAD      ACCESS:      21696  HIT:       3032  MISS:      18664
LLC RFO       ACCESS:     245174  HIT:      87335  MISS:     157839
LLC PREFETCH  ACCESS:     594432  HIT:     115541  MISS:     478891
LLC WRITEBACK ACCESS:     245563  HIT:     109753  MISS:     135810
OPTgen accesses: 6539
OPTgen hits: 2316
OPTgen hit rate: 35.4183


