
*** ChampSim Multicore Out-of-Order Simulator ***

Warmup Instructions: 50000000
Simulation Instructions: 100000000
Configuration: 2
Number of CPUs: 1
LLC sets: 2048
LLC ways: 16
Off-chip DRAM Channels: 1 Width: 64-bit Data Rate: 1600 MT/s

CPU 0 runs /datasets/cs240c-wi22-a00-public/data/Assignment2-gz/soplex_205B.trace.gz
CPU 0 L1D next line prefetcher
CPU 0 L2C IP-based stride prefetcher
Initialize Hawkeye state
Heartbeat CPU 0 instructions: 1000000 cycles: 395620 heartbeat IPC: 2.52768 cumulative IPC: 2.52768 (Simulation time: 0 hr 0 min 28 sec) 
Heartbeat CPU 0 instructions: 2000002 cycles: 928717 heartbeat IPC: 1.87583 cumulative IPC: 2.15351 (Simulation time: 0 hr 1 min 1 sec) 
Heartbeat CPU 0 instructions: 3000000 cycles: 1400487 heartbeat IPC: 2.11967 cumulative IPC: 2.14211 (Simulation time: 0 hr 1 min 40 sec) 
Heartbeat CPU 0 instructions: 4000000 cycles: 1761654 heartbeat IPC: 2.7688 cumulative IPC: 2.27059 (Simulation time: 0 hr 2 min 10 sec) 
Heartbeat CPU 0 instructions: 5000003 cycles: 2205047 heartbeat IPC: 2.25534 cumulative IPC: 2.26753 (Simulation time: 0 hr 2 min 42 sec) 
Heartbeat CPU 0 instructions: 6000003 cycles: 2624712 heartbeat IPC: 2.38285 cumulative IPC: 2.28597 (Simulation time: 0 hr 3 min 20 sec) 
Heartbeat CPU 0 instructions: 7000000 cycles: 3009146 heartbeat IPC: 2.60122 cumulative IPC: 2.32624 (Simulation time: 0 hr 3 min 48 sec) 
Heartbeat CPU 0 instructions: 8000000 cycles: 3401640 heartbeat IPC: 2.54781 cumulative IPC: 2.35181 (Simulation time: 0 hr 4 min 14 sec) 
Heartbeat CPU 0 instructions: 9000003 cycles: 3923165 heartbeat IPC: 1.91746 cumulative IPC: 2.29407 (Simulation time: 0 hr 4 min 50 sec) 
Heartbeat CPU 0 instructions: 10000000 cycles: 4408435 heartbeat IPC: 2.0607 cumulative IPC: 2.26838 (Simulation time: 0 hr 5 min 26 sec) 
Heartbeat CPU 0 instructions: 11000001 cycles: 4778367 heartbeat IPC: 2.7032 cumulative IPC: 2.30204 (Simulation time: 0 hr 5 min 55 sec) 
Heartbeat CPU 0 instructions: 12000000 cycles: 5215232 heartbeat IPC: 2.28903 cumulative IPC: 2.30095 (Simulation time: 0 hr 6 min 26 sec) 
Heartbeat CPU 0 instructions: 13000001 cycles: 5637683 heartbeat IPC: 2.36714 cumulative IPC: 2.30591 (Simulation time: 0 hr 7 min 1 sec) 
Heartbeat CPU 0 instructions: 14000003 cycles: 6022003 heartbeat IPC: 2.602 cumulative IPC: 2.32481 (Simulation time: 0 hr 7 min 31 sec) 
Heartbeat CPU 0 instructions: 15000000 cycles: 6432788 heartbeat IPC: 2.43436 cumulative IPC: 2.3318 (Simulation time: 0 hr 7 min 58 sec) 
Heartbeat CPU 0 instructions: 16000000 cycles: 6965072 heartbeat IPC: 1.8787 cumulative IPC: 2.29718 (Simulation time: 0 hr 8 min 33 sec) 
Heartbeat CPU 0 instructions: 17000001 cycles: 7521546 heartbeat IPC: 1.79703 cumulative IPC: 2.26017 (Simulation time: 0 hr 9 min 12 sec) 
Heartbeat CPU 0 instructions: 18000000 cycles: 8033635 heartbeat IPC: 1.95278 cumulative IPC: 2.24058 (Simulation time: 0 hr 9 min 47 sec) 
Heartbeat CPU 0 instructions: 19000002 cycles: 8708878 heartbeat IPC: 1.48095 cumulative IPC: 2.18168 (Simulation time: 0 hr 10 min 24 sec) 
Heartbeat CPU 0 instructions: 20000000 cycles: 9464969 heartbeat IPC: 1.32259 cumulative IPC: 2.11305 (Simulation time: 0 hr 11 min 1 sec) 
Heartbeat CPU 0 instructions: 21000001 cycles: 9911271 heartbeat IPC: 2.24064 cumulative IPC: 2.1188 (Simulation time: 0 hr 11 min 37 sec) 
Heartbeat CPU 0 instructions: 22000000 cycles: 10356661 heartbeat IPC: 2.24522 cumulative IPC: 2.12424 (Simulation time: 0 hr 12 min 14 sec) 
Heartbeat CPU 0 instructions: 23000000 cycles: 10798411 heartbeat IPC: 2.26372 cumulative IPC: 2.12994 (Simulation time: 0 hr 12 min 51 sec) 
Heartbeat CPU 0 instructions: 24000000 cycles: 11299738 heartbeat IPC: 1.99471 cumulative IPC: 2.12394 (Simulation time: 0 hr 13 min 30 sec) 
Heartbeat CPU 0 instructions: 25000002 cycles: 11840793 heartbeat IPC: 1.84824 cumulative IPC: 2.11135 (Simulation time: 0 hr 14 min 9 sec) 
Heartbeat CPU 0 instructions: 26000002 cycles: 12480374 heartbeat IPC: 1.56352 cumulative IPC: 2.08327 (Simulation time: 0 hr 14 min 53 sec) 
Heartbeat CPU 0 instructions: 27000003 cycles: 13067127 heartbeat IPC: 1.7043 cumulative IPC: 2.06625 (Simulation time: 0 hr 15 min 30 sec) 
Heartbeat CPU 0 instructions: 28000000 cycles: 13837174 heartbeat IPC: 1.29862 cumulative IPC: 2.02353 (Simulation time: 0 hr 16 min 12 sec) 
Heartbeat CPU 0 instructions: 29000002 cycles: 14418975 heartbeat IPC: 1.7188 cumulative IPC: 2.01124 (Simulation time: 0 hr 16 min 47 sec) 
Heartbeat CPU 0 instructions: 30000003 cycles: 14839316 heartbeat IPC: 2.37902 cumulative IPC: 2.02166 (Simulation time: 0 hr 17 min 13 sec) 
Heartbeat CPU 0 instructions: 31000003 cycles: 15305839 heartbeat IPC: 2.14352 cumulative IPC: 2.02537 (Simulation time: 0 hr 17 min 49 sec) 
Heartbeat CPU 0 instructions: 32000000 cycles: 15813162 heartbeat IPC: 1.97112 cumulative IPC: 2.02363 (Simulation time: 0 hr 18 min 25 sec) 
Heartbeat CPU 0 instructions: 33000000 cycles: 16346448 heartbeat IPC: 1.87517 cumulative IPC: 2.01879 (Simulation time: 0 hr 19 min 4 sec) 
Heartbeat CPU 0 instructions: 34000003 cycles: 16845773 heartbeat IPC: 2.00271 cumulative IPC: 2.01831 (Simulation time: 0 hr 19 min 35 sec) 
Heartbeat CPU 0 instructions: 35000003 cycles: 17213698 heartbeat IPC: 2.71795 cumulative IPC: 2.03326 (Simulation time: 0 hr 20 min 6 sec) 
Heartbeat CPU 0 instructions: 36000000 cycles: 17655221 heartbeat IPC: 2.26488 cumulative IPC: 2.03906 (Simulation time: 0 hr 20 min 39 sec) 
Heartbeat CPU 0 instructions: 37000000 cycles: 18076398 heartbeat IPC: 2.3743 cumulative IPC: 2.04687 (Simulation time: 0 hr 21 min 12 sec) 
Heartbeat CPU 0 instructions: 38000003 cycles: 18460430 heartbeat IPC: 2.60396 cumulative IPC: 2.05846 (Simulation time: 0 hr 21 min 37 sec) 
Heartbeat CPU 0 instructions: 39000003 cycles: 18850972 heartbeat IPC: 2.56054 cumulative IPC: 2.06886 (Simulation time: 0 hr 22 min 6 sec) 
Heartbeat CPU 0 instructions: 40000000 cycles: 19374477 heartbeat IPC: 1.9102 cumulative IPC: 2.06457 (Simulation time: 0 hr 22 min 38 sec) 
Heartbeat CPU 0 instructions: 41000000 cycles: 19770049 heartbeat IPC: 2.52798 cumulative IPC: 2.07384 (Simulation time: 0 hr 23 min 11 sec) 
Heartbeat CPU 0 instructions: 42000001 cycles: 20188336 heartbeat IPC: 2.39071 cumulative IPC: 2.08041 (Simulation time: 0 hr 23 min 42 sec) 
Heartbeat CPU 0 instructions: 43000001 cycles: 20612941 heartbeat IPC: 2.35513 cumulative IPC: 2.08607 (Simulation time: 0 hr 24 min 16 sec) 
Heartbeat CPU 0 instructions: 44000000 cycles: 21012149 heartbeat IPC: 2.50496 cumulative IPC: 2.09403 (Simulation time: 0 hr 24 min 43 sec) 
Heartbeat CPU 0 instructions: 45000001 cycles: 21396849 heartbeat IPC: 2.59943 cumulative IPC: 2.10311 (Simulation time: 0 hr 25 min 12 sec) 
Heartbeat CPU 0 instructions: 46000000 cycles: 21882518 heartbeat IPC: 2.05901 cumulative IPC: 2.10213 (Simulation time: 0 hr 25 min 40 sec) 
Heartbeat CPU 0 instructions: 47000000 cycles: 22338371 heartbeat IPC: 2.19369 cumulative IPC: 2.104 (Simulation time: 0 hr 26 min 13 sec) 
Heartbeat CPU 0 instructions: 48000000 cycles: 22779955 heartbeat IPC: 2.26457 cumulative IPC: 2.10712 (Simulation time: 0 hr 26 min 50 sec) 
Heartbeat CPU 0 instructions: 49000001 cycles: 23195517 heartbeat IPC: 2.40638 cumulative IPC: 2.11248 (Simulation time: 0 hr 27 min 20 sec) 
Heartbeat CPU 0 instructions: 50000003 cycles: 23616789 heartbeat IPC: 2.37377 cumulative IPC: 2.11714 (Simulation time: 0 hr 27 min 58 sec) 

Warmup complete CPU 0 instructions: 50000003 cycles: 23616789 (Simulation time: 0 hr 27 min 58 sec) 

Heartbeat CPU 0 instructions: 51000003 cycles: 25868395 heartbeat IPC: 0.444127 cumulative IPC: 0.444127 (Simulation time: 0 hr 28 min 33 sec) 
Heartbeat CPU 0 instructions: 52000000 cycles: 26984502 heartbeat IPC: 0.895969 cumulative IPC: 0.593874 (Simulation time: 0 hr 28 min 58 sec) 
Heartbeat CPU 0 instructions: 53000001 cycles: 29841185 heartbeat IPC: 0.350057 cumulative IPC: 0.481974 (Simulation time: 0 hr 29 min 35 sec) 
Heartbeat CPU 0 instructions: 54000001 cycles: 33071222 heartbeat IPC: 0.309594 cumulative IPC: 0.423082 (Simulation time: 0 hr 30 min 25 sec) 
Heartbeat CPU 0 instructions: 55000001 cycles: 36212191 heartbeat IPC: 0.318373 cumulative IPC: 0.39697 (Simulation time: 0 hr 31 min 12 sec) 
Heartbeat CPU 0 instructions: 56000000 cycles: 37994938 heartbeat IPC: 0.560932 cumulative IPC: 0.4173 (Simulation time: 0 hr 31 min 47 sec) 
Heartbeat CPU 0 instructions: 57000000 cycles: 41290331 heartbeat IPC: 0.303454 cumulative IPC: 0.396072 (Simulation time: 0 hr 32 min 32 sec) 
Heartbeat CPU 0 instructions: 58000000 cycles: 43427153 heartbeat IPC: 0.467985 cumulative IPC: 0.403829 (Simulation time: 0 hr 33 min 3 sec) 
Heartbeat CPU 0 instructions: 59000001 cycles: 44530586 heartbeat IPC: 0.906263 cumulative IPC: 0.430338 (Simulation time: 0 hr 33 min 28 sec) 
Heartbeat CPU 0 instructions: 60000000 cycles: 47418189 heartbeat IPC: 0.346308 cumulative IPC: 0.420143 (Simulation time: 0 hr 34 min 7 sec) 
Heartbeat CPU 0 instructions: 61000003 cycles: 50679584 heartbeat IPC: 0.306618 cumulative IPC: 0.406462 (Simulation time: 0 hr 34 min 56 sec) 
Heartbeat CPU 0 instructions: 62000002 cycles: 53982543 heartbeat IPC: 0.302759 cumulative IPC: 0.395182 (Simulation time: 0 hr 35 min 41 sec) 
Heartbeat CPU 0 instructions: 63000001 cycles: 55543061 heartbeat IPC: 0.640812 cumulative IPC: 0.407188 (Simulation time: 0 hr 36 min 18 sec) 
Heartbeat CPU 0 instructions: 64000000 cycles: 59206719 heartbeat IPC: 0.272951 cumulative IPC: 0.39337 (Simulation time: 0 hr 37 min 3 sec) 
Heartbeat CPU 0 instructions: 65000001 cycles: 60981933 heartbeat IPC: 0.563313 cumulative IPC: 0.401444 (Simulation time: 0 hr 37 min 31 sec) 
Heartbeat CPU 0 instructions: 66000000 cycles: 62079829 heartbeat IPC: 0.910832 cumulative IPC: 0.415984 (Simulation time: 0 hr 37 min 55 sec) 
Heartbeat CPU 0 instructions: 67000003 cycles: 65076687 heartbeat IPC: 0.333684 cumulative IPC: 0.410035 (Simulation time: 0 hr 38 min 37 sec) 
Heartbeat CPU 0 instructions: 68000000 cycles: 68292268 heartbeat IPC: 0.310985 cumulative IPC: 0.402906 (Simulation time: 0 hr 39 min 22 sec) 
Heartbeat CPU 0 instructions: 69000001 cycles: 71310444 heartbeat IPC: 0.331326 cumulative IPC: 0.398376 (Simulation time: 0 hr 40 min 4 sec) 
Heartbeat CPU 0 instructions: 70000000 cycles: 73131258 heartbeat IPC: 0.549204 cumulative IPC: 0.403922 (Simulation time: 0 hr 40 min 45 sec) 
Heartbeat CPU 0 instructions: 71000001 cycles: 76481426 heartbeat IPC: 0.298493 cumulative IPC: 0.397241 (Simulation time: 0 hr 41 min 35 sec) 
Heartbeat CPU 0 instructions: 72000000 cycles: 78611410 heartbeat IPC: 0.469487 cumulative IPC: 0.400039 (Simulation time: 0 hr 42 min 7 sec) 
Heartbeat CPU 0 instructions: 73000000 cycles: 79719922 heartbeat IPC: 0.90211 cumulative IPC: 0.409959 (Simulation time: 0 hr 42 min 35 sec) 
Heartbeat CPU 0 instructions: 74000001 cycles: 82715720 heartbeat IPC: 0.333801 cumulative IPC: 0.406099 (Simulation time: 0 hr 43 min 18 sec) 
Heartbeat CPU 0 instructions: 75000003 cycles: 86056220 heartbeat IPC: 0.299357 cumulative IPC: 0.400388 (Simulation time: 0 hr 44 min 9 sec) 
Heartbeat CPU 0 instructions: 76000000 cycles: 89312733 heartbeat IPC: 0.307076 cumulative IPC: 0.395763 (Simulation time: 0 hr 44 min 56 sec) 
Heartbeat CPU 0 instructions: 77000000 cycles: 90819843 heartbeat IPC: 0.663522 cumulative IPC: 0.401767 (Simulation time: 0 hr 45 min 35 sec) 
Heartbeat CPU 0 instructions: 78000000 cycles: 94562934 heartbeat IPC: 0.267159 cumulative IPC: 0.394666 (Simulation time: 0 hr 46 min 27 sec) 
Heartbeat CPU 0 instructions: 79000002 cycles: 96254026 heartbeat IPC: 0.591335 cumulative IPC: 0.399244 (Simulation time: 0 hr 46 min 57 sec) 
Heartbeat CPU 0 instructions: 80000000 cycles: 97344814 heartbeat IPC: 0.916767 cumulative IPC: 0.406901 (Simulation time: 0 hr 47 min 25 sec) 
Heartbeat CPU 0 instructions: 81000000 cycles: 100346509 heartbeat IPC: 0.333145 cumulative IPC: 0.404016 (Simulation time: 0 hr 48 min 9 sec) 
Heartbeat CPU 0 instructions: 82000000 cycles: 103605987 heartbeat IPC: 0.306798 cumulative IPC: 0.400054 (Simulation time: 0 hr 48 min 54 sec) 
Heartbeat CPU 0 instructions: 83000000 cycles: 107106994 heartbeat IPC: 0.285632 cumulative IPC: 0.395256 (Simulation time: 0 hr 49 min 40 sec) 
Heartbeat CPU 0 instructions: 84000000 cycles: 108750538 heartbeat IPC: 0.608441 cumulative IPC: 0.399372 (Simulation time: 0 hr 50 min 21 sec) 
Heartbeat CPU 0 instructions: 85000000 cycles: 112579497 heartbeat IPC: 0.261168 cumulative IPC: 0.393423 (Simulation time: 0 hr 51 min 15 sec) 
Heartbeat CPU 0 instructions: 86000002 cycles: 113921805 heartbeat IPC: 0.744987 cumulative IPC: 0.398649 (Simulation time: 0 hr 51 min 42 sec) 
Heartbeat CPU 0 instructions: 87000002 cycles: 115007598 heartbeat IPC: 0.920986 cumulative IPC: 0.404855 (Simulation time: 0 hr 52 min 11 sec) 
Heartbeat CPU 0 instructions: 88000000 cycles: 118029929 heartbeat IPC: 0.33087 cumulative IPC: 0.402486 (Simulation time: 0 hr 52 min 53 sec) 
Heartbeat CPU 0 instructions: 89000003 cycles: 121749871 heartbeat IPC: 0.268822 cumulative IPC: 0.397419 (Simulation time: 0 hr 53 min 50 sec) 
Heartbeat CPU 0 instructions: 90000001 cycles: 124894942 heartbeat IPC: 0.317957 cumulative IPC: 0.394952 (Simulation time: 0 hr 54 min 31 sec) 
Heartbeat CPU 0 instructions: 91000002 cycles: 126683730 heartbeat IPC: 0.559038 cumulative IPC: 0.3978 (Simulation time: 0 hr 55 min 12 sec) 
Heartbeat CPU 0 instructions: 92000000 cycles: 130308734 heartbeat IPC: 0.275861 cumulative IPC: 0.393657 (Simulation time: 0 hr 55 min 59 sec) 
Heartbeat CPU 0 instructions: 93000000 cycles: 131497503 heartbeat IPC: 0.841206 cumulative IPC: 0.398588 (Simulation time: 0 hr 56 min 23 sec) 
Heartbeat CPU 0 instructions: 94000000 cycles: 132775458 heartbeat IPC: 0.7825 cumulative IPC: 0.403083 (Simulation time: 0 hr 56 min 48 sec) 
Heartbeat CPU 0 instructions: 95000002 cycles: 136003620 heartbeat IPC: 0.309774 cumulative IPC: 0.400403 (Simulation time: 0 hr 57 min 29 sec) 
Heartbeat CPU 0 instructions: 96000000 cycles: 138951098 heartbeat IPC: 0.339272 cumulative IPC: 0.398841 (Simulation time: 0 hr 58 min 11 sec) 
Heartbeat CPU 0 instructions: 97000003 cycles: 141682319 heartbeat IPC: 0.366138 cumulative IPC: 0.398084 (Simulation time: 0 hr 58 min 46 sec) 
Heartbeat CPU 0 instructions: 98000003 cycles: 143925440 heartbeat IPC: 0.445807 cumulative IPC: 0.398974 (Simulation time: 0 hr 59 min 24 sec) 
Heartbeat CPU 0 instructions: 99000000 cycles: 147143956 heartbeat IPC: 0.310701 cumulative IPC: 0.396674 (Simulation time: 1 hr 0 min 3 sec) 
Heartbeat CPU 0 instructions: 100000000 cycles: 148313042 heartbeat IPC: 0.855369 cumulative IPC: 0.400974 (Simulation time: 1 hr 0 min 27 sec) 
Heartbeat CPU 0 instructions: 101000003 cycles: 150163416 heartbeat IPC: 0.540433 cumulative IPC: 0.403013 (Simulation time: 1 hr 0 min 55 sec) 
Heartbeat CPU 0 instructions: 102000002 cycles: 153461858 heartbeat IPC: 0.303173 cumulative IPC: 0.400477 (Simulation time: 1 hr 1 min 39 sec) 
Heartbeat CPU 0 instructions: 103000000 cycles: 155574214 heartbeat IPC: 0.473404 cumulative IPC: 0.401645 (Simulation time: 1 hr 2 min 23 sec) 
Heartbeat CPU 0 instructions: 104000000 cycles: 164306224 heartbeat IPC: 0.114521 cumulative IPC: 0.383824 (Simulation time: 1 hr 3 min 14 sec) 
Heartbeat CPU 0 instructions: 105000000 cycles: 166335894 heartbeat IPC: 0.492691 cumulative IPC: 0.385372 (Simulation time: 1 hr 3 min 58 sec) 
Heartbeat CPU 0 instructions: 106000002 cycles: 170462109 heartbeat IPC: 0.242353 cumulative IPC: 0.381354 (Simulation time: 1 hr 4 min 45 sec) 
Heartbeat CPU 0 instructions: 107000003 cycles: 174775789 heartbeat IPC: 0.231821 cumulative IPC: 0.377086 (Simulation time: 1 hr 5 min 30 sec) 
Heartbeat CPU 0 instructions: 108000000 cycles: 178086852 heartbeat IPC: 0.302017 cumulative IPC: 0.375477 (Simulation time: 1 hr 6 min 13 sec) 
Heartbeat CPU 0 instructions: 109000000 cycles: 181494624 heartbeat IPC: 0.293447 cumulative IPC: 0.373707 (Simulation time: 1 hr 7 min 0 sec) 
Heartbeat CPU 0 instructions: 110000003 cycles: 185103736 heartbeat IPC: 0.277077 cumulative IPC: 0.371547 (Simulation time: 1 hr 7 min 39 sec) 
Heartbeat CPU 0 instructions: 111000002 cycles: 188662134 heartbeat IPC: 0.281025 cumulative IPC: 0.369595 (Simulation time: 1 hr 8 min 22 sec) 
Heartbeat CPU 0 instructions: 112000000 cycles: 191292119 heartbeat IPC: 0.38023 cumulative IPC: 0.369762 (Simulation time: 1 hr 9 min 2 sec) 
Heartbeat CPU 0 instructions: 113000001 cycles: 194633973 heartbeat IPC: 0.299235 cumulative IPC: 0.368384 (Simulation time: 1 hr 9 min 49 sec) 
Heartbeat CPU 0 instructions: 114000000 cycles: 196599786 heartbeat IPC: 0.508695 cumulative IPC: 0.369979 (Simulation time: 1 hr 10 min 28 sec) 
Heartbeat CPU 0 instructions: 115000002 cycles: 197899225 heartbeat IPC: 0.769564 cumulative IPC: 0.372958 (Simulation time: 1 hr 11 min 5 sec) 
Heartbeat CPU 0 instructions: 116000000 cycles: 199274395 heartbeat IPC: 0.727181 cumulative IPC: 0.375731 (Simulation time: 1 hr 11 min 37 sec) 
Heartbeat CPU 0 instructions: 117000003 cycles: 201909344 heartbeat IPC: 0.379515 cumulative IPC: 0.375787 (Simulation time: 1 hr 12 min 15 sec) 
Heartbeat CPU 0 instructions: 118000002 cycles: 204709875 heartbeat IPC: 0.357075 cumulative IPC: 0.375497 (Simulation time: 1 hr 13 min 2 sec) 
Heartbeat CPU 0 instructions: 119000001 cycles: 206669223 heartbeat IPC: 0.510373 cumulative IPC: 0.376941 (Simulation time: 1 hr 13 min 36 sec) 
Heartbeat CPU 0 instructions: 120000000 cycles: 209335550 heartbeat IPC: 0.375047 cumulative IPC: 0.376914 (Simulation time: 1 hr 14 min 8 sec) 
Heartbeat CPU 0 instructions: 121000000 cycles: 211063660 heartbeat IPC: 0.578667 cumulative IPC: 0.378774 (Simulation time: 1 hr 14 min 39 sec) 
Heartbeat CPU 0 instructions: 122000000 cycles: 214934862 heartbeat IPC: 0.258318 cumulative IPC: 0.376337 (Simulation time: 1 hr 15 min 21 sec) 
Heartbeat CPU 0 instructions: 123000001 cycles: 216159297 heartbeat IPC: 0.816704 cumulative IPC: 0.379137 (Simulation time: 1 hr 15 min 41 sec) 
Heartbeat CPU 0 instructions: 124000000 cycles: 217396445 heartbeat IPC: 0.80831 cumulative IPC: 0.381877 (Simulation time: 1 hr 16 min 3 sec) 
Heartbeat CPU 0 instructions: 125000001 cycles: 220387157 heartbeat IPC: 0.334369 cumulative IPC: 0.381155 (Simulation time: 1 hr 16 min 34 sec) 
Heartbeat CPU 0 instructions: 126000000 cycles: 224392453 heartbeat IPC: 0.249669 cumulative IPC: 0.378532 (Simulation time: 1 hr 17 min 9 sec) 
Heartbeat CPU 0 instructions: 127000003 cycles: 226767851 heartbeat IPC: 0.420983 cumulative IPC: 0.379028 (Simulation time: 1 hr 17 min 32 sec) 
Heartbeat CPU 0 instructions: 128000000 cycles: 229583394 heartbeat IPC: 0.35517 cumulative IPC: 0.378702 (Simulation time: 1 hr 18 min 1 sec) 
Heartbeat CPU 0 instructions: 129000000 cycles: 232247238 heartbeat IPC: 0.375397 cumulative IPC: 0.37866 (Simulation time: 1 hr 18 min 29 sec) 
Heartbeat CPU 0 instructions: 130000003 cycles: 233390162 heartbeat IPC: 0.874951 cumulative IPC: 0.381364 (Simulation time: 1 hr 18 min 46 sec) 
Heartbeat CPU 0 instructions: 131000001 cycles: 235888597 heartbeat IPC: 0.40025 cumulative IPC: 0.381586 (Simulation time: 1 hr 19 min 11 sec) 
Heartbeat CPU 0 instructions: 132000000 cycles: 239110990 heartbeat IPC: 0.310328 cumulative IPC: 0.380521 (Simulation time: 1 hr 19 min 39 sec) 
Heartbeat CPU 0 instructions: 133000000 cycles: 241917426 heartbeat IPC: 0.356324 cumulative IPC: 0.38021 (Simulation time: 1 hr 20 min 2 sec) 
Heartbeat CPU 0 instructions: 134000002 cycles: 243461247 heartbeat IPC: 0.647745 cumulative IPC: 0.382088 (Simulation time: 1 hr 20 min 26 sec) 
Heartbeat CPU 0 instructions: 135000002 cycles: 247253774 heartbeat IPC: 0.263676 cumulative IPC: 0.38008 (Simulation time: 1 hr 20 min 56 sec) 
Heartbeat CPU 0 instructions: 136000000 cycles: 249012843 heartbeat IPC: 0.568481 cumulative IPC: 0.381551 (Simulation time: 1 hr 21 min 14 sec) 
Heartbeat CPU 0 instructions: 137000000 cycles: 250111439 heartbeat IPC: 0.910253 cumulative IPC: 0.384115 (Simulation time: 1 hr 21 min 28 sec) 
Heartbeat CPU 0 instructions: 138000003 cycles: 253129215 heartbeat IPC: 0.331371 cumulative IPC: 0.383422 (Simulation time: 1 hr 21 min 53 sec) 
Heartbeat CPU 0 instructions: 139000000 cycles: 256339253 heartbeat IPC: 0.311522 cumulative IPC: 0.38243 (Simulation time: 1 hr 22 min 18 sec) 
Heartbeat CPU 0 instructions: 140000000 cycles: 258440796 heartbeat IPC: 0.475841 cumulative IPC: 0.383266 (Simulation time: 1 hr 22 min 36 sec) 
Heartbeat CPU 0 instructions: 141000002 cycles: 260139943 heartbeat IPC: 0.588532 cumulative IPC: 0.38474 (Simulation time: 1 hr 22 min 55 sec) 
Heartbeat CPU 0 instructions: 142000003 cycles: 263662690 heartbeat IPC: 0.28387 cumulative IPC: 0.38326 (Simulation time: 1 hr 23 min 18 sec) 
Heartbeat CPU 0 instructions: 143000003 cycles: 265640430 heartbeat IPC: 0.505628 cumulative IPC: 0.38426 (Simulation time: 1 hr 23 min 33 sec) 
Heartbeat CPU 0 instructions: 144000000 cycles: 266737767 heartbeat IPC: 0.911294 cumulative IPC: 0.386639 (Simulation time: 1 hr 23 min 46 sec) 
Heartbeat CPU 0 instructions: 145000000 cycles: 269695615 heartbeat IPC: 0.338084 cumulative IPC: 0.386055 (Simulation time: 1 hr 24 min 5 sec) 
Heartbeat CPU 0 instructions: 146000003 cycles: 272908973 heartbeat IPC: 0.311202 cumulative IPC: 0.38509 (Simulation time: 1 hr 24 min 28 sec) 
Heartbeat CPU 0 instructions: 147000000 cycles: 274968765 heartbeat IPC: 0.485484 cumulative IPC: 0.385913 (Simulation time: 1 hr 24 min 45 sec) 
Heartbeat CPU 0 instructions: 148000000 cycles: 276457198 heartbeat IPC: 0.671848 cumulative IPC: 0.387596 (Simulation time: 1 hr 25 min 2 sec) 
Heartbeat CPU 0 instructions: 149000001 cycles: 280311388 heartbeat IPC: 0.259458 cumulative IPC: 0.385672 (Simulation time: 1 hr 25 min 25 sec) 
Heartbeat CPU 0 instructions: 150000002 cycles: 282006480 heartbeat IPC: 0.589939 cumulative IPC: 0.387012 (Simulation time: 1 hr 25 min 38 sec) 
Finished CPU 0 instructions: 100000002 cycles: 258389693 cummulative IPC: 0.387012 (Simulation time: 1 hr 25 min 38 sec) 

ChampSim completed all CPUs

Region of Interest Statistics

CPU 0 cummulative IPC: 0.387012 instructions: 100000002 cycles: 258389693
LLC TOTAL     ACCESS:    8438573  HIT:    4602763  MISS:    3835810
LLC LOAD      ACCESS:    2159495  HIT:    1020065  MISS:    1139430
LLC RFO       ACCESS:     775962  HIT:     250933  MISS:     525029
LLC PREFETCH  ACCESS:    3417220  HIT:    1618643  MISS:    1798577
LLC WRITEBACK ACCESS:    2085896  HIT:    1713122  MISS:     372774
OPTgen accesses: 69960
OPTgen hits: 48883
OPTgen hit rate: 69.8728


