
*** ChampSim Multicore Out-of-Order Simulator ***

Warmup Instructions: 50000000
Simulation Instructions: 100000000
Configuration: 2
Number of CPUs: 1
LLC sets: 2048
LLC ways: 16
Off-chip DRAM Channels: 1 Width: 64-bit Data Rate: 1600 MT/s

CPU 0 runs /datasets/cs240c-wi22-a00-public/data/Assignment2-gz/libquantum_1210B.trace.gz
CPU 0 L1D next line prefetcher
CPU 0 L2C IP-based stride prefetcher
Initialize Hawkeye state
Heartbeat CPU 0 instructions: 1000003 cycles: 314916 heartbeat IPC: 3.17546 cumulative IPC: 3.17546 (Simulation time: 0 hr 0 min 24 sec) 
Heartbeat CPU 0 instructions: 2000000 cycles: 630170 heartbeat IPC: 3.17204 cumulative IPC: 3.17375 (Simulation time: 0 hr 0 min 45 sec) 
Heartbeat CPU 0 instructions: 3000001 cycles: 945979 heartbeat IPC: 3.16647 cumulative IPC: 3.17132 (Simulation time: 0 hr 1 min 6 sec) 
Heartbeat CPU 0 instructions: 4000000 cycles: 1260333 heartbeat IPC: 3.18112 cumulative IPC: 3.17376 (Simulation time: 0 hr 1 min 28 sec) 
Heartbeat CPU 0 instructions: 5000001 cycles: 1576818 heartbeat IPC: 3.15971 cumulative IPC: 3.17094 (Simulation time: 0 hr 1 min 47 sec) 
Heartbeat CPU 0 instructions: 6000002 cycles: 1891318 heartbeat IPC: 3.17965 cumulative IPC: 3.17239 (Simulation time: 0 hr 2 min 6 sec) 
Heartbeat CPU 0 instructions: 7000001 cycles: 2206981 heartbeat IPC: 3.16793 cumulative IPC: 3.17175 (Simulation time: 0 hr 2 min 25 sec) 
Heartbeat CPU 0 instructions: 8000000 cycles: 2522385 heartbeat IPC: 3.17053 cumulative IPC: 3.1716 (Simulation time: 0 hr 2 min 43 sec) 
Heartbeat CPU 0 instructions: 9000002 cycles: 2837144 heartbeat IPC: 3.17704 cumulative IPC: 3.1722 (Simulation time: 0 hr 3 min 1 sec) 
Heartbeat CPU 0 instructions: 10000003 cycles: 3153454 heartbeat IPC: 3.16146 cumulative IPC: 3.17113 (Simulation time: 0 hr 3 min 19 sec) 
Heartbeat CPU 0 instructions: 11000001 cycles: 3467723 heartbeat IPC: 3.18198 cumulative IPC: 3.17211 (Simulation time: 0 hr 3 min 38 sec) 
Heartbeat CPU 0 instructions: 12000000 cycles: 3783792 heartbeat IPC: 3.16386 cumulative IPC: 3.17142 (Simulation time: 0 hr 3 min 58 sec) 
Heartbeat CPU 0 instructions: 13000003 cycles: 4264651 heartbeat IPC: 2.07962 cumulative IPC: 3.04832 (Simulation time: 0 hr 4 min 23 sec) 
Heartbeat CPU 0 instructions: 14000001 cycles: 4772750 heartbeat IPC: 1.96812 cumulative IPC: 2.93332 (Simulation time: 0 hr 4 min 50 sec) 
Heartbeat CPU 0 instructions: 15000001 cycles: 5279404 heartbeat IPC: 1.97373 cumulative IPC: 2.84123 (Simulation time: 0 hr 5 min 16 sec) 
Heartbeat CPU 0 instructions: 16000000 cycles: 5788628 heartbeat IPC: 1.96377 cumulative IPC: 2.76404 (Simulation time: 0 hr 5 min 46 sec) 
Heartbeat CPU 0 instructions: 17000000 cycles: 6300340 heartbeat IPC: 1.95422 cumulative IPC: 2.69827 (Simulation time: 0 hr 6 min 14 sec) 
Heartbeat CPU 0 instructions: 18000000 cycles: 6813181 heartbeat IPC: 1.94992 cumulative IPC: 2.64194 (Simulation time: 0 hr 6 min 41 sec) 
Heartbeat CPU 0 instructions: 19000000 cycles: 7329886 heartbeat IPC: 1.93534 cumulative IPC: 2.59213 (Simulation time: 0 hr 7 min 8 sec) 
Heartbeat CPU 0 instructions: 20000000 cycles: 7838604 heartbeat IPC: 1.96573 cumulative IPC: 2.55147 (Simulation time: 0 hr 7 min 34 sec) 
Heartbeat CPU 0 instructions: 21000000 cycles: 8346694 heartbeat IPC: 1.96816 cumulative IPC: 2.51597 (Simulation time: 0 hr 8 min 1 sec) 
Heartbeat CPU 0 instructions: 22000003 cycles: 8854702 heartbeat IPC: 1.96848 cumulative IPC: 2.48456 (Simulation time: 0 hr 8 min 28 sec) 
Heartbeat CPU 0 instructions: 23000000 cycles: 9359706 heartbeat IPC: 1.98018 cumulative IPC: 2.45734 (Simulation time: 0 hr 8 min 52 sec) 
Heartbeat CPU 0 instructions: 24000000 cycles: 9870274 heartbeat IPC: 1.9586 cumulative IPC: 2.43154 (Simulation time: 0 hr 9 min 20 sec) 
Heartbeat CPU 0 instructions: 25000000 cycles: 10381727 heartbeat IPC: 1.95521 cumulative IPC: 2.40808 (Simulation time: 0 hr 9 min 47 sec) 
Heartbeat CPU 0 instructions: 26000000 cycles: 10894380 heartbeat IPC: 1.95064 cumulative IPC: 2.38655 (Simulation time: 0 hr 10 min 11 sec) 
Heartbeat CPU 0 instructions: 27000000 cycles: 11402733 heartbeat IPC: 1.96714 cumulative IPC: 2.36785 (Simulation time: 0 hr 10 min 37 sec) 
Heartbeat CPU 0 instructions: 28000000 cycles: 11888716 heartbeat IPC: 2.05769 cumulative IPC: 2.35517 (Simulation time: 0 hr 11 min 2 sec) 
Heartbeat CPU 0 instructions: 29000002 cycles: 12228025 heartbeat IPC: 2.94717 cumulative IPC: 2.3716 (Simulation time: 0 hr 11 min 23 sec) 
Heartbeat CPU 0 instructions: 30000001 cycles: 12567434 heartbeat IPC: 2.94629 cumulative IPC: 2.38712 (Simulation time: 0 hr 11 min 44 sec) 
Heartbeat CPU 0 instructions: 31000000 cycles: 12906848 heartbeat IPC: 2.94625 cumulative IPC: 2.40183 (Simulation time: 0 hr 12 min 6 sec) 
Heartbeat CPU 0 instructions: 32000000 cycles: 13246253 heartbeat IPC: 2.94633 cumulative IPC: 2.41578 (Simulation time: 0 hr 12 min 29 sec) 
Heartbeat CPU 0 instructions: 33000000 cycles: 13585663 heartbeat IPC: 2.94629 cumulative IPC: 2.42903 (Simulation time: 0 hr 12 min 53 sec) 
Heartbeat CPU 0 instructions: 34000002 cycles: 13925073 heartbeat IPC: 2.9463 cumulative IPC: 2.44164 (Simulation time: 0 hr 13 min 16 sec) 
Heartbeat CPU 0 instructions: 35000001 cycles: 14264485 heartbeat IPC: 2.94627 cumulative IPC: 2.45365 (Simulation time: 0 hr 13 min 37 sec) 
Heartbeat CPU 0 instructions: 36000000 cycles: 14603662 heartbeat IPC: 2.94831 cumulative IPC: 2.46514 (Simulation time: 0 hr 13 min 57 sec) 
Heartbeat CPU 0 instructions: 37000003 cycles: 14943006 heartbeat IPC: 2.94687 cumulative IPC: 2.47607 (Simulation time: 0 hr 14 min 18 sec) 
Heartbeat CPU 0 instructions: 38000002 cycles: 15282415 heartbeat IPC: 2.94629 cumulative IPC: 2.48652 (Simulation time: 0 hr 14 min 43 sec) 
Heartbeat CPU 0 instructions: 39000001 cycles: 15621824 heartbeat IPC: 2.94629 cumulative IPC: 2.49651 (Simulation time: 0 hr 15 min 5 sec) 
Heartbeat CPU 0 instructions: 40000000 cycles: 15961233 heartbeat IPC: 2.94629 cumulative IPC: 2.50607 (Simulation time: 0 hr 15 min 26 sec) 
Heartbeat CPU 0 instructions: 41000001 cycles: 16300645 heartbeat IPC: 2.94627 cumulative IPC: 2.51524 (Simulation time: 0 hr 15 min 47 sec) 
Heartbeat CPU 0 instructions: 42000000 cycles: 16640054 heartbeat IPC: 2.94629 cumulative IPC: 2.52403 (Simulation time: 0 hr 16 min 10 sec) 
Heartbeat CPU 0 instructions: 43000002 cycles: 16979464 heartbeat IPC: 2.9463 cumulative IPC: 2.53247 (Simulation time: 0 hr 16 min 30 sec) 
Heartbeat CPU 0 instructions: 44000000 cycles: 17318873 heartbeat IPC: 2.94629 cumulative IPC: 2.54058 (Simulation time: 0 hr 16 min 52 sec) 
Heartbeat CPU 0 instructions: 45000000 cycles: 17658282 heartbeat IPC: 2.9463 cumulative IPC: 2.54838 (Simulation time: 0 hr 17 min 14 sec) 
Heartbeat CPU 0 instructions: 46000003 cycles: 17997692 heartbeat IPC: 2.9463 cumulative IPC: 2.55588 (Simulation time: 0 hr 17 min 36 sec) 
Heartbeat CPU 0 instructions: 47000001 cycles: 18375968 heartbeat IPC: 2.64357 cumulative IPC: 2.55769 (Simulation time: 0 hr 17 min 58 sec) 
Heartbeat CPU 0 instructions: 48000000 cycles: 18872115 heartbeat IPC: 2.01553 cumulative IPC: 2.54344 (Simulation time: 0 hr 18 min 21 sec) 
Heartbeat CPU 0 instructions: 49000000 cycles: 19364909 heartbeat IPC: 2.02925 cumulative IPC: 2.53035 (Simulation time: 0 hr 18 min 45 sec) 
Heartbeat CPU 0 instructions: 50000001 cycles: 19865544 heartbeat IPC: 1.99747 cumulative IPC: 2.51692 (Simulation time: 0 hr 19 min 9 sec) 

Warmup complete CPU 0 instructions: 50000001 cycles: 19865544 (Simulation time: 0 hr 19 min 9 sec) 

Heartbeat CPU 0 instructions: 51000000 cycles: 22173520 heartbeat IPC: 0.43328 cumulative IPC: 0.43328 (Simulation time: 0 hr 19 min 41 sec) 
Heartbeat CPU 0 instructions: 52000000 cycles: 24499326 heartbeat IPC: 0.429958 cumulative IPC: 0.431613 (Simulation time: 0 hr 20 min 17 sec) 
Heartbeat CPU 0 instructions: 53000003 cycles: 26794924 heartbeat IPC: 0.435618 cumulative IPC: 0.432939 (Simulation time: 0 hr 20 min 50 sec) 
Heartbeat CPU 0 instructions: 54000003 cycles: 29055819 heartbeat IPC: 0.442303 cumulative IPC: 0.435243 (Simulation time: 0 hr 21 min 25 sec) 
Heartbeat CPU 0 instructions: 55000002 cycles: 31354355 heartbeat IPC: 0.435059 cumulative IPC: 0.435206 (Simulation time: 0 hr 21 min 59 sec) 
Heartbeat CPU 0 instructions: 56000000 cycles: 33671088 heartbeat IPC: 0.431641 cumulative IPC: 0.434608 (Simulation time: 0 hr 22 min 34 sec) 
Heartbeat CPU 0 instructions: 57000001 cycles: 35990793 heartbeat IPC: 0.43109 cumulative IPC: 0.434102 (Simulation time: 0 hr 23 min 7 sec) 
Heartbeat CPU 0 instructions: 58000000 cycles: 38291720 heartbeat IPC: 0.434607 cumulative IPC: 0.434165 (Simulation time: 0 hr 23 min 41 sec) 
Heartbeat CPU 0 instructions: 59000000 cycles: 40588518 heartbeat IPC: 0.435389 cumulative IPC: 0.434301 (Simulation time: 0 hr 24 min 12 sec) 
Heartbeat CPU 0 instructions: 60000000 cycles: 42881167 heartbeat IPC: 0.436177 cumulative IPC: 0.434487 (Simulation time: 0 hr 24 min 44 sec) 
Heartbeat CPU 0 instructions: 61000001 cycles: 45194094 heartbeat IPC: 0.432353 cumulative IPC: 0.434293 (Simulation time: 0 hr 25 min 22 sec) 
Heartbeat CPU 0 instructions: 62000000 cycles: 47503158 heartbeat IPC: 0.433075 cumulative IPC: 0.434191 (Simulation time: 0 hr 25 min 56 sec) 
Heartbeat CPU 0 instructions: 63000001 cycles: 49622678 heartbeat IPC: 0.471805 cumulative IPC: 0.43687 (Simulation time: 0 hr 26 min 27 sec) 
Heartbeat CPU 0 instructions: 64000000 cycles: 51765337 heartbeat IPC: 0.466709 cumulative IPC: 0.438874 (Simulation time: 0 hr 27 min 2 sec) 
Heartbeat CPU 0 instructions: 65000000 cycles: 53668294 heartbeat IPC: 0.525498 cumulative IPC: 0.443751 (Simulation time: 0 hr 27 min 33 sec) 
Heartbeat CPU 0 instructions: 66000001 cycles: 55172975 heartbeat IPC: 0.664593 cumulative IPC: 0.453162 (Simulation time: 0 hr 28 min 0 sec) 
Heartbeat CPU 0 instructions: 67000000 cycles: 57259979 heartbeat IPC: 0.479155 cumulative IPC: 0.454613 (Simulation time: 0 hr 28 min 31 sec) 
Heartbeat CPU 0 instructions: 68000000 cycles: 59414082 heartbeat IPC: 0.46423 cumulative IPC: 0.455137 (Simulation time: 0 hr 29 min 1 sec) 
Heartbeat CPU 0 instructions: 69000002 cycles: 61559635 heartbeat IPC: 0.466081 cumulative IPC: 0.4557 (Simulation time: 0 hr 29 min 32 sec) 
Heartbeat CPU 0 instructions: 70000001 cycles: 63696861 heartbeat IPC: 0.467896 cumulative IPC: 0.456295 (Simulation time: 0 hr 30 min 2 sec) 
Heartbeat CPU 0 instructions: 71000000 cycles: 65828475 heartbeat IPC: 0.469128 cumulative IPC: 0.45689 (Simulation time: 0 hr 30 min 31 sec) 
Heartbeat CPU 0 instructions: 72000000 cycles: 67933174 heartbeat IPC: 0.475127 cumulative IPC: 0.457688 (Simulation time: 0 hr 31 min 1 sec) 
Heartbeat CPU 0 instructions: 73000002 cycles: 70065604 heartbeat IPC: 0.468949 cumulative IPC: 0.458167 (Simulation time: 0 hr 31 min 31 sec) 
Heartbeat CPU 0 instructions: 74000002 cycles: 72180145 heartbeat IPC: 0.472916 cumulative IPC: 0.458763 (Simulation time: 0 hr 32 min 1 sec) 
Heartbeat CPU 0 instructions: 75000001 cycles: 74322309 heartbeat IPC: 0.466817 cumulative IPC: 0.45908 (Simulation time: 0 hr 32 min 33 sec) 
Heartbeat CPU 0 instructions: 76000000 cycles: 76462822 heartbeat IPC: 0.467177 cumulative IPC: 0.459386 (Simulation time: 0 hr 33 min 6 sec) 
Heartbeat CPU 0 instructions: 77000000 cycles: 78565896 heartbeat IPC: 0.475494 cumulative IPC: 0.459963 (Simulation time: 0 hr 33 min 36 sec) 
Heartbeat CPU 0 instructions: 78000002 cycles: 80727508 heartbeat IPC: 0.462619 cumulative IPC: 0.460057 (Simulation time: 0 hr 34 min 9 sec) 
Heartbeat CPU 0 instructions: 79000001 cycles: 82843201 heartbeat IPC: 0.472658 cumulative IPC: 0.460481 (Simulation time: 0 hr 34 min 39 sec) 
Heartbeat CPU 0 instructions: 80000000 cycles: 85011952 heartbeat IPC: 0.461094 cumulative IPC: 0.460501 (Simulation time: 0 hr 35 min 6 sec) 
Heartbeat CPU 0 instructions: 81000000 cycles: 87139310 heartbeat IPC: 0.470067 cumulative IPC: 0.460804 (Simulation time: 0 hr 35 min 38 sec) 
Heartbeat CPU 0 instructions: 82000000 cycles: 89278474 heartbeat IPC: 0.467472 cumulative IPC: 0.461009 (Simulation time: 0 hr 36 min 7 sec) 
Heartbeat CPU 0 instructions: 83000001 cycles: 91567183 heartbeat IPC: 0.436928 cumulative IPC: 0.460241 (Simulation time: 0 hr 36 min 38 sec) 
Heartbeat CPU 0 instructions: 84000000 cycles: 94061681 heartbeat IPC: 0.400882 cumulative IPC: 0.458245 (Simulation time: 0 hr 37 min 10 sec) 
Heartbeat CPU 0 instructions: 85000001 cycles: 95752523 heartbeat IPC: 0.591422 cumulative IPC: 0.461212 (Simulation time: 0 hr 37 min 39 sec) 
Heartbeat CPU 0 instructions: 86000001 cycles: 98214589 heartbeat IPC: 0.406163 cumulative IPC: 0.459482 (Simulation time: 0 hr 38 min 11 sec) 
Heartbeat CPU 0 instructions: 87000003 cycles: 100726132 heartbeat IPC: 0.398162 cumulative IPC: 0.457578 (Simulation time: 0 hr 38 min 42 sec) 
Heartbeat CPU 0 instructions: 88000000 cycles: 103238212 heartbeat IPC: 0.398075 cumulative IPC: 0.455785 (Simulation time: 0 hr 39 min 15 sec) 
Heartbeat CPU 0 instructions: 89000001 cycles: 105725722 heartbeat IPC: 0.402009 cumulative IPC: 0.454227 (Simulation time: 0 hr 39 min 47 sec) 
Heartbeat CPU 0 instructions: 90000000 cycles: 108209962 heartbeat IPC: 0.402537 cumulative IPC: 0.452773 (Simulation time: 0 hr 40 min 19 sec) 
Heartbeat CPU 0 instructions: 91000002 cycles: 110671237 heartbeat IPC: 0.406294 cumulative IPC: 0.451514 (Simulation time: 0 hr 40 min 51 sec) 
Heartbeat CPU 0 instructions: 92000000 cycles: 113148917 heartbeat IPC: 0.403603 cumulative IPC: 0.450241 (Simulation time: 0 hr 41 min 22 sec) 
Heartbeat CPU 0 instructions: 93000003 cycles: 115645588 heartbeat IPC: 0.400535 cumulative IPC: 0.448945 (Simulation time: 0 hr 41 min 52 sec) 
Heartbeat CPU 0 instructions: 94000000 cycles: 118123998 heartbeat IPC: 0.403483 cumulative IPC: 0.447799 (Simulation time: 0 hr 42 min 25 sec) 
Heartbeat CPU 0 instructions: 95000002 cycles: 120637208 heartbeat IPC: 0.397898 cumulative IPC: 0.446554 (Simulation time: 0 hr 42 min 57 sec) 
Heartbeat CPU 0 instructions: 96000000 cycles: 123157087 heartbeat IPC: 0.396844 cumulative IPC: 0.445341 (Simulation time: 0 hr 43 min 31 sec) 
Heartbeat CPU 0 instructions: 97000001 cycles: 125676791 heartbeat IPC: 0.396872 cumulative IPC: 0.444187 (Simulation time: 0 hr 44 min 7 sec) 
Heartbeat CPU 0 instructions: 98000002 cycles: 128180318 heartbeat IPC: 0.399437 cumulative IPC: 0.443153 (Simulation time: 0 hr 44 min 48 sec) 
Heartbeat CPU 0 instructions: 99000002 cycles: 129728307 heartbeat IPC: 0.645999 cumulative IPC: 0.446011 (Simulation time: 0 hr 45 min 25 sec) 
Heartbeat CPU 0 instructions: 100000000 cycles: 131154939 heartbeat IPC: 0.70095 cumulative IPC: 0.449279 (Simulation time: 0 hr 46 min 6 sec) 
Heartbeat CPU 0 instructions: 101000000 cycles: 132205575 heartbeat IPC: 0.951804 cumulative IPC: 0.453979 (Simulation time: 0 hr 46 min 39 sec) 
Heartbeat CPU 0 instructions: 102000003 cycles: 133506679 heartbeat IPC: 0.76858 cumulative IPC: 0.457581 (Simulation time: 0 hr 47 min 16 sec) 
Heartbeat CPU 0 instructions: 103000002 cycles: 134933298 heartbeat IPC: 0.700957 cumulative IPC: 0.460598 (Simulation time: 0 hr 47 min 50 sec) 
Heartbeat CPU 0 instructions: 104000000 cycles: 136358799 heartbeat IPC: 0.701506 cumulative IPC: 0.463546 (Simulation time: 0 hr 48 min 26 sec) 
Heartbeat CPU 0 instructions: 105000000 cycles: 137785513 heartbeat IPC: 0.700911 cumulative IPC: 0.466418 (Simulation time: 0 hr 48 min 57 sec) 
Heartbeat CPU 0 instructions: 106000001 cycles: 139206264 heartbeat IPC: 0.703854 cumulative IPC: 0.469245 (Simulation time: 0 hr 49 min 35 sec) 
Heartbeat CPU 0 instructions: 107000000 cycles: 140629576 heartbeat IPC: 0.702586 cumulative IPC: 0.471995 (Simulation time: 0 hr 50 min 9 sec) 
Heartbeat CPU 0 instructions: 108000000 cycles: 142049149 heartbeat IPC: 0.704437 cumulative IPC: 0.474695 (Simulation time: 0 hr 50 min 45 sec) 
Heartbeat CPU 0 instructions: 109000001 cycles: 143473001 heartbeat IPC: 0.702321 cumulative IPC: 0.477317 (Simulation time: 0 hr 51 min 19 sec) 
Heartbeat CPU 0 instructions: 110000000 cycles: 144899593 heartbeat IPC: 0.700971 cumulative IPC: 0.479869 (Simulation time: 0 hr 51 min 51 sec) 
Heartbeat CPU 0 instructions: 111000001 cycles: 146326193 heartbeat IPC: 0.700968 cumulative IPC: 0.482363 (Simulation time: 0 hr 52 min 26 sec) 
Heartbeat CPU 0 instructions: 112000000 cycles: 147735819 heartbeat IPC: 0.709407 cumulative IPC: 0.484866 (Simulation time: 0 hr 53 min 5 sec) 
Heartbeat CPU 0 instructions: 113000001 cycles: 149162550 heartbeat IPC: 0.700904 cumulative IPC: 0.48725 (Simulation time: 0 hr 53 min 41 sec) 
Heartbeat CPU 0 instructions: 114000000 cycles: 150589331 heartbeat IPC: 0.700878 cumulative IPC: 0.489582 (Simulation time: 0 hr 54 min 18 sec) 
Heartbeat CPU 0 instructions: 115000000 cycles: 152015922 heartbeat IPC: 0.700972 cumulative IPC: 0.491864 (Simulation time: 0 hr 54 min 50 sec) 
Heartbeat CPU 0 instructions: 116000000 cycles: 153442513 heartbeat IPC: 0.700972 cumulative IPC: 0.494097 (Simulation time: 0 hr 55 min 22 sec) 
Heartbeat CPU 0 instructions: 117000000 cycles: 154868320 heartbeat IPC: 0.701357 cumulative IPC: 0.496286 (Simulation time: 0 hr 55 min 55 sec) 
Heartbeat CPU 0 instructions: 118000000 cycles: 157052573 heartbeat IPC: 0.457822 cumulative IPC: 0.495674 (Simulation time: 0 hr 56 min 26 sec) 
Heartbeat CPU 0 instructions: 119000000 cycles: 159184768 heartbeat IPC: 0.469 cumulative IPC: 0.495265 (Simulation time: 0 hr 57 min 0 sec) 
Heartbeat CPU 0 instructions: 120000000 cycles: 160922840 heartbeat IPC: 0.57535 cumulative IPC: 0.496252 (Simulation time: 0 hr 57 min 30 sec) 
Heartbeat CPU 0 instructions: 121000003 cycles: 163223745 heartbeat IPC: 0.434613 cumulative IPC: 0.495263 (Simulation time: 0 hr 58 min 2 sec) 
Heartbeat CPU 0 instructions: 122000000 cycles: 165541131 heartbeat IPC: 0.431519 cumulative IPC: 0.494249 (Simulation time: 0 hr 58 min 34 sec) 
Heartbeat CPU 0 instructions: 123000001 cycles: 167855139 heartbeat IPC: 0.432151 cumulative IPC: 0.493278 (Simulation time: 0 hr 59 min 10 sec) 
Heartbeat CPU 0 instructions: 124000000 cycles: 170126328 heartbeat IPC: 0.440298 cumulative IPC: 0.492477 (Simulation time: 0 hr 59 min 42 sec) 
Heartbeat CPU 0 instructions: 125000001 cycles: 172402257 heartbeat IPC: 0.439381 cumulative IPC: 0.491685 (Simulation time: 1 hr 0 min 15 sec) 
Heartbeat CPU 0 instructions: 126000001 cycles: 174707171 heartbeat IPC: 0.433856 cumulative IPC: 0.490824 (Simulation time: 1 hr 0 min 46 sec) 
Heartbeat CPU 0 instructions: 127000003 cycles: 177013906 heartbeat IPC: 0.433514 cumulative IPC: 0.489983 (Simulation time: 1 hr 1 min 18 sec) 
Heartbeat CPU 0 instructions: 128000000 cycles: 179335683 heartbeat IPC: 0.430703 cumulative IPC: 0.48912 (Simulation time: 1 hr 1 min 50 sec) 
Heartbeat CPU 0 instructions: 129000002 cycles: 181619758 heartbeat IPC: 0.437815 cumulative IPC: 0.488395 (Simulation time: 1 hr 2 min 22 sec) 
Heartbeat CPU 0 instructions: 130000002 cycles: 183920759 heartbeat IPC: 0.434593 cumulative IPC: 0.487641 (Simulation time: 1 hr 2 min 55 sec) 
Heartbeat CPU 0 instructions: 131000002 cycles: 186226421 heartbeat IPC: 0.433715 cumulative IPC: 0.486893 (Simulation time: 1 hr 3 min 27 sec) 
Heartbeat CPU 0 instructions: 132000000 cycles: 188549195 heartbeat IPC: 0.430519 cumulative IPC: 0.486117 (Simulation time: 1 hr 3 min 59 sec) 
Heartbeat CPU 0 instructions: 133000000 cycles: 190576787 heartbeat IPC: 0.493196 cumulative IPC: 0.486201 (Simulation time: 1 hr 4 min 35 sec) 
Heartbeat CPU 0 instructions: 134000003 cycles: 192079900 heartbeat IPC: 0.665288 cumulative IPC: 0.487764 (Simulation time: 1 hr 5 min 8 sec) 
Heartbeat CPU 0 instructions: 135000002 cycles: 193501111 heartbeat IPC: 0.703625 cumulative IPC: 0.489531 (Simulation time: 1 hr 5 min 41 sec) 
Heartbeat CPU 0 instructions: 136000000 cycles: 194532184 heartbeat IPC: 0.969862 cumulative IPC: 0.492366 (Simulation time: 1 hr 6 min 9 sec) 
Heartbeat CPU 0 instructions: 137000000 cycles: 196034682 heartbeat IPC: 0.665558 cumulative IPC: 0.493844 (Simulation time: 1 hr 6 min 42 sec) 
Heartbeat CPU 0 instructions: 138000001 cycles: 197543382 heartbeat IPC: 0.662823 cumulative IPC: 0.495278 (Simulation time: 1 hr 7 min 18 sec) 
Heartbeat CPU 0 instructions: 139000000 cycles: 199053302 heartbeat IPC: 0.662286 cumulative IPC: 0.496686 (Simulation time: 1 hr 7 min 54 sec) 
Heartbeat CPU 0 instructions: 140000000 cycles: 200562309 heartbeat IPC: 0.662687 cumulative IPC: 0.498072 (Simulation time: 1 hr 8 min 28 sec) 
Heartbeat CPU 0 instructions: 141000001 cycles: 202010681 heartbeat IPC: 0.690431 cumulative IPC: 0.499602 (Simulation time: 1 hr 8 min 56 sec) 
Heartbeat CPU 0 instructions: 142000000 cycles: 203509338 heartbeat IPC: 0.667263 cumulative IPC: 0.50097 (Simulation time: 1 hr 9 min 24 sec) 
Heartbeat CPU 0 instructions: 143000003 cycles: 205015971 heartbeat IPC: 0.663734 cumulative IPC: 0.502294 (Simulation time: 1 hr 9 min 57 sec) 
Heartbeat CPU 0 instructions: 144000000 cycles: 206525963 heartbeat IPC: 0.662253 cumulative IPC: 0.503588 (Simulation time: 1 hr 10 min 33 sec) 
Heartbeat CPU 0 instructions: 145000001 cycles: 208036005 heartbeat IPC: 0.662234 cumulative IPC: 0.504861 (Simulation time: 1 hr 11 min 8 sec) 
Heartbeat CPU 0 instructions: 146000000 cycles: 209545925 heartbeat IPC: 0.662286 cumulative IPC: 0.506115 (Simulation time: 1 hr 11 min 37 sec) 
Heartbeat CPU 0 instructions: 147000001 cycles: 211036017 heartbeat IPC: 0.6711 cumulative IPC: 0.507401 (Simulation time: 1 hr 12 min 7 sec) 
Heartbeat CPU 0 instructions: 148000000 cycles: 212546009 heartbeat IPC: 0.662255 cumulative IPC: 0.508614 (Simulation time: 1 hr 12 min 36 sec) 
Heartbeat CPU 0 instructions: 149000002 cycles: 214056053 heartbeat IPC: 0.662234 cumulative IPC: 0.509809 (Simulation time: 1 hr 13 min 4 sec) 
Heartbeat CPU 0 instructions: 150000001 cycles: 215565973 heartbeat IPC: 0.662286 cumulative IPC: 0.510985 (Simulation time: 1 hr 13 min 33 sec) 
Finished CPU 0 instructions: 100000000 cycles: 195700429 cummulative IPC: 0.510985 (Simulation time: 1 hr 13 min 33 sec) 

ChampSim completed all CPUs

Region of Interest Statistics

CPU 0 cummulative IPC: 0.510985 instructions: 100000000 cycles: 195700429
LLC TOTAL     ACCESS:    3948315  HIT:     242100  MISS:    3706215
LLC LOAD      ACCESS:     889678  HIT:      44503  MISS:     845175
LLC RFO       ACCESS:         21  HIT:         16  MISS:          5
LLC PREFETCH  ACCESS:    2104226  HIT:     111022  MISS:    1993204
LLC WRITEBACK ACCESS:     954390  HIT:      86559  MISS:     867831
OPTgen accesses: 15143
OPTgen hits: 194
OPTgen hit rate: 1.28112


