
*** ChampSim Multicore Out-of-Order Simulator ***

Warmup Instructions: 50000000
Simulation Instructions: 100000000
Configuration: 2
Number of CPUs: 1
LLC sets: 2048
LLC ways: 16
Off-chip DRAM Channels: 1 Width: 64-bit Data Rate: 1600 MT/s

CPU 0 runs /datasets/cs240c-wi22-a00-public/data/Assignment2-gz/mcf_250B.trace.gz
CPU 0 L1D next line prefetcher
CPU 0 L2C IP-based stride prefetcher
Initialize Hawkeye state
Heartbeat CPU 0 instructions: 1000000 cycles: 532172 heartbeat IPC: 1.87909 cumulative IPC: 1.87909 (Simulation time: 0 hr 0 min 50 sec) 
Heartbeat CPU 0 instructions: 2000003 cycles: 1045447 heartbeat IPC: 1.94828 cumulative IPC: 1.91306 (Simulation time: 0 hr 1 min 45 sec) 
Heartbeat CPU 0 instructions: 3000002 cycles: 1542331 heartbeat IPC: 2.01254 cumulative IPC: 1.94511 (Simulation time: 0 hr 2 min 35 sec) 
Heartbeat CPU 0 instructions: 4000000 cycles: 2053798 heartbeat IPC: 1.95516 cumulative IPC: 1.94761 (Simulation time: 0 hr 3 min 29 sec) 
Heartbeat CPU 0 instructions: 5000002 cycles: 2560076 heartbeat IPC: 1.9752 cumulative IPC: 1.95307 (Simulation time: 0 hr 4 min 22 sec) 
Heartbeat CPU 0 instructions: 6000002 cycles: 3065772 heartbeat IPC: 1.97747 cumulative IPC: 1.95709 (Simulation time: 0 hr 5 min 13 sec) 
Heartbeat CPU 0 instructions: 7000002 cycles: 3605489 heartbeat IPC: 1.85282 cumulative IPC: 1.94148 (Simulation time: 0 hr 6 min 0 sec) 
Heartbeat CPU 0 instructions: 8000000 cycles: 4120497 heartbeat IPC: 1.94171 cumulative IPC: 1.94151 (Simulation time: 0 hr 6 min 51 sec) 
Heartbeat CPU 0 instructions: 9000002 cycles: 4635104 heartbeat IPC: 1.94323 cumulative IPC: 1.9417 (Simulation time: 0 hr 7 min 37 sec) 
Heartbeat CPU 0 instructions: 10000000 cycles: 5146402 heartbeat IPC: 1.9558 cumulative IPC: 1.94311 (Simulation time: 0 hr 8 min 25 sec) 
Heartbeat CPU 0 instructions: 11000001 cycles: 5658651 heartbeat IPC: 1.95218 cumulative IPC: 1.94393 (Simulation time: 0 hr 9 min 13 sec) 
Heartbeat CPU 0 instructions: 12000000 cycles: 6193162 heartbeat IPC: 1.87087 cumulative IPC: 1.93762 (Simulation time: 0 hr 9 min 56 sec) 
Heartbeat CPU 0 instructions: 13000001 cycles: 6712950 heartbeat IPC: 1.92386 cumulative IPC: 1.93656 (Simulation time: 0 hr 10 min 45 sec) 
Heartbeat CPU 0 instructions: 14000003 cycles: 7225827 heartbeat IPC: 1.94979 cumulative IPC: 1.93749 (Simulation time: 0 hr 11 min 33 sec) 
Heartbeat CPU 0 instructions: 15000002 cycles: 7738904 heartbeat IPC: 1.94902 cumulative IPC: 1.93826 (Simulation time: 0 hr 12 min 22 sec) 
Heartbeat CPU 0 instructions: 16000000 cycles: 8248055 heartbeat IPC: 1.96405 cumulative IPC: 1.93985 (Simulation time: 0 hr 13 min 5 sec) 
Heartbeat CPU 0 instructions: 17000000 cycles: 8759859 heartbeat IPC: 1.95387 cumulative IPC: 1.94067 (Simulation time: 0 hr 13 min 55 sec) 
Heartbeat CPU 0 instructions: 18000002 cycles: 9269472 heartbeat IPC: 1.96228 cumulative IPC: 1.94186 (Simulation time: 0 hr 14 min 44 sec) 
Heartbeat CPU 0 instructions: 19000001 cycles: 9781168 heartbeat IPC: 1.95428 cumulative IPC: 1.94251 (Simulation time: 0 hr 15 min 31 sec) 
Heartbeat CPU 0 instructions: 20000000 cycles: 10292222 heartbeat IPC: 1.95674 cumulative IPC: 1.94322 (Simulation time: 0 hr 16 min 22 sec) 
Heartbeat CPU 0 instructions: 21000001 cycles: 10799147 heartbeat IPC: 1.97268 cumulative IPC: 1.9446 (Simulation time: 0 hr 17 min 11 sec) 
Heartbeat CPU 0 instructions: 22000000 cycles: 11303665 heartbeat IPC: 1.98209 cumulative IPC: 1.94627 (Simulation time: 0 hr 17 min 59 sec) 
Heartbeat CPU 0 instructions: 23000003 cycles: 11812486 heartbeat IPC: 1.96533 cumulative IPC: 1.94709 (Simulation time: 0 hr 18 min 46 sec) 
Heartbeat CPU 0 instructions: 24000000 cycles: 12319856 heartbeat IPC: 1.97094 cumulative IPC: 1.94807 (Simulation time: 0 hr 19 min 29 sec) 
Heartbeat CPU 0 instructions: 25000002 cycles: 12829433 heartbeat IPC: 1.96242 cumulative IPC: 1.94864 (Simulation time: 0 hr 20 min 17 sec) 
Heartbeat CPU 0 instructions: 26000000 cycles: 13342946 heartbeat IPC: 1.94737 cumulative IPC: 1.9486 (Simulation time: 0 hr 21 min 8 sec) 
Heartbeat CPU 0 instructions: 27000003 cycles: 13857256 heartbeat IPC: 1.94436 cumulative IPC: 1.94844 (Simulation time: 0 hr 21 min 52 sec) 
Heartbeat CPU 0 instructions: 28000000 cycles: 14371399 heartbeat IPC: 1.94498 cumulative IPC: 1.94831 (Simulation time: 0 hr 22 min 35 sec) 
Heartbeat CPU 0 instructions: 29000000 cycles: 14886033 heartbeat IPC: 1.94313 cumulative IPC: 1.94813 (Simulation time: 0 hr 23 min 20 sec) 
Heartbeat CPU 0 instructions: 30000000 cycles: 15400360 heartbeat IPC: 1.94429 cumulative IPC: 1.94801 (Simulation time: 0 hr 24 min 9 sec) 
Heartbeat CPU 0 instructions: 31000000 cycles: 15913914 heartbeat IPC: 1.94721 cumulative IPC: 1.94798 (Simulation time: 0 hr 24 min 51 sec) 
Heartbeat CPU 0 instructions: 32000000 cycles: 16422407 heartbeat IPC: 1.9666 cumulative IPC: 1.94856 (Simulation time: 0 hr 25 min 36 sec) 
Heartbeat CPU 0 instructions: 33000002 cycles: 16935532 heartbeat IPC: 1.94885 cumulative IPC: 1.94857 (Simulation time: 0 hr 26 min 18 sec) 
Heartbeat CPU 0 instructions: 34000000 cycles: 17449456 heartbeat IPC: 1.94581 cumulative IPC: 1.94848 (Simulation time: 0 hr 27 min 3 sec) 
Heartbeat CPU 0 instructions: 35000000 cycles: 17974879 heartbeat IPC: 1.90323 cumulative IPC: 1.94716 (Simulation time: 0 hr 27 min 45 sec) 
Heartbeat CPU 0 instructions: 36000000 cycles: 18504308 heartbeat IPC: 1.88883 cumulative IPC: 1.94549 (Simulation time: 0 hr 28 min 30 sec) 
Heartbeat CPU 0 instructions: 37000002 cycles: 19017385 heartbeat IPC: 1.94903 cumulative IPC: 1.94559 (Simulation time: 0 hr 29 min 15 sec) 
Heartbeat CPU 0 instructions: 38000000 cycles: 19530657 heartbeat IPC: 1.94828 cumulative IPC: 1.94566 (Simulation time: 0 hr 30 min 1 sec) 
Heartbeat CPU 0 instructions: 39000002 cycles: 20044145 heartbeat IPC: 1.94747 cumulative IPC: 1.94571 (Simulation time: 0 hr 30 min 49 sec) 
Heartbeat CPU 0 instructions: 40000000 cycles: 20558605 heartbeat IPC: 1.94378 cumulative IPC: 1.94566 (Simulation time: 0 hr 31 min 32 sec) 
Heartbeat CPU 0 instructions: 41000000 cycles: 21073033 heartbeat IPC: 1.94391 cumulative IPC: 1.94561 (Simulation time: 0 hr 32 min 18 sec) 
Heartbeat CPU 0 instructions: 42000000 cycles: 21588210 heartbeat IPC: 1.94108 cumulative IPC: 1.94551 (Simulation time: 0 hr 33 min 4 sec) 
Heartbeat CPU 0 instructions: 43000000 cycles: 22101431 heartbeat IPC: 1.94848 cumulative IPC: 1.94558 (Simulation time: 0 hr 33 min 48 sec) 
Heartbeat CPU 0 instructions: 44000000 cycles: 22614494 heartbeat IPC: 1.94908 cumulative IPC: 1.94565 (Simulation time: 0 hr 34 min 31 sec) 
Heartbeat CPU 0 instructions: 45000001 cycles: 23128548 heartbeat IPC: 1.94532 cumulative IPC: 1.94565 (Simulation time: 0 hr 35 min 13 sec) 
Heartbeat CPU 0 instructions: 46000002 cycles: 23642944 heartbeat IPC: 1.94403 cumulative IPC: 1.94561 (Simulation time: 0 hr 35 min 57 sec) 
Heartbeat CPU 0 instructions: 47000002 cycles: 24157301 heartbeat IPC: 1.94418 cumulative IPC: 1.94558 (Simulation time: 0 hr 36 min 40 sec) 
Heartbeat CPU 0 instructions: 48000000 cycles: 24671475 heartbeat IPC: 1.94486 cumulative IPC: 1.94557 (Simulation time: 0 hr 37 min 29 sec) 
Heartbeat CPU 0 instructions: 49000000 cycles: 25185582 heartbeat IPC: 1.94512 cumulative IPC: 1.94556 (Simulation time: 0 hr 38 min 15 sec) 
Heartbeat CPU 0 instructions: 50000002 cycles: 25699091 heartbeat IPC: 1.94739 cumulative IPC: 1.94559 (Simulation time: 0 hr 38 min 57 sec) 

Warmup complete CPU 0 instructions: 50000002 cycles: 25699091 (Simulation time: 0 hr 38 min 57 sec) 

Heartbeat CPU 0 instructions: 51000002 cycles: 34924764 heartbeat IPC: 0.108393 cumulative IPC: 0.108393 (Simulation time: 0 hr 40 min 0 sec) 
Heartbeat CPU 0 instructions: 52000000 cycles: 44140692 heartbeat IPC: 0.108508 cumulative IPC: 0.10845 (Simulation time: 0 hr 41 min 1 sec) 
Heartbeat CPU 0 instructions: 53000000 cycles: 53306238 heartbeat IPC: 0.109104 cumulative IPC: 0.108667 (Simulation time: 0 hr 42 min 7 sec) 
Heartbeat CPU 0 instructions: 54000000 cycles: 62551258 heartbeat IPC: 0.108166 cumulative IPC: 0.108542 (Simulation time: 0 hr 43 min 11 sec) 
Heartbeat CPU 0 instructions: 55000000 cycles: 71852985 heartbeat IPC: 0.107507 cumulative IPC: 0.108333 (Simulation time: 0 hr 44 min 21 sec) 
Heartbeat CPU 0 instructions: 56000000 cycles: 80954757 heartbeat IPC: 0.109869 cumulative IPC: 0.108586 (Simulation time: 0 hr 45 min 28 sec) 
Heartbeat CPU 0 instructions: 57000000 cycles: 90137784 heartbeat IPC: 0.108897 cumulative IPC: 0.10863 (Simulation time: 0 hr 46 min 43 sec) 
Heartbeat CPU 0 instructions: 58000000 cycles: 99188873 heartbeat IPC: 0.110484 cumulative IPC: 0.108859 (Simulation time: 0 hr 47 min 52 sec) 
Heartbeat CPU 0 instructions: 59000001 cycles: 108321072 heartbeat IPC: 0.109503 cumulative IPC: 0.10893 (Simulation time: 0 hr 49 min 3 sec) 
Heartbeat CPU 0 instructions: 60000000 cycles: 117342834 heartbeat IPC: 0.110843 cumulative IPC: 0.109118 (Simulation time: 0 hr 50 min 21 sec) 
Heartbeat CPU 0 instructions: 61000001 cycles: 126359720 heartbeat IPC: 0.110903 cumulative IPC: 0.109278 (Simulation time: 0 hr 51 min 38 sec) 
Heartbeat CPU 0 instructions: 62000000 cycles: 134003359 heartbeat IPC: 0.130828 cumulative IPC: 0.110799 (Simulation time: 0 hr 52 min 38 sec) 
Heartbeat CPU 0 instructions: 63000001 cycles: 142704693 heartbeat IPC: 0.114925 cumulative IPC: 0.111106 (Simulation time: 0 hr 53 min 39 sec) 
Heartbeat CPU 0 instructions: 64000000 cycles: 151800992 heartbeat IPC: 0.109935 cumulative IPC: 0.111021 (Simulation time: 0 hr 54 min 58 sec) 
Heartbeat CPU 0 instructions: 65000000 cycles: 160174972 heartbeat IPC: 0.119418 cumulative IPC: 0.111544 (Simulation time: 0 hr 56 min 5 sec) 
Heartbeat CPU 0 instructions: 66000000 cycles: 169102095 heartbeat IPC: 0.112018 cumulative IPC: 0.111574 (Simulation time: 0 hr 57 min 5 sec) 
Heartbeat CPU 0 instructions: 67000000 cycles: 178161823 heartbeat IPC: 0.110379 cumulative IPC: 0.111503 (Simulation time: 0 hr 58 min 4 sec) 
Heartbeat CPU 0 instructions: 68000000 cycles: 187223013 heartbeat IPC: 0.110361 cumulative IPC: 0.111439 (Simulation time: 0 hr 59 min 6 sec) 
Heartbeat CPU 0 instructions: 69000000 cycles: 196108978 heartbeat IPC: 0.112537 cumulative IPC: 0.111496 (Simulation time: 1 hr 0 min 7 sec) 
Heartbeat CPU 0 instructions: 70000000 cycles: 205129222 heartbeat IPC: 0.110862 cumulative IPC: 0.111464 (Simulation time: 1 hr 1 min 11 sec) 
Heartbeat CPU 0 instructions: 71000000 cycles: 214105355 heartbeat IPC: 0.111407 cumulative IPC: 0.111461 (Simulation time: 1 hr 2 min 15 sec) 
Heartbeat CPU 0 instructions: 72000000 cycles: 222903510 heartbeat IPC: 0.11366 cumulative IPC: 0.111559 (Simulation time: 1 hr 3 min 16 sec) 
Heartbeat CPU 0 instructions: 73000001 cycles: 231869720 heartbeat IPC: 0.11153 cumulative IPC: 0.111558 (Simulation time: 1 hr 4 min 27 sec) 
Heartbeat CPU 0 instructions: 74000001 cycles: 240766614 heartbeat IPC: 0.112399 cumulative IPC: 0.111593 (Simulation time: 1 hr 5 min 39 sec) 
Heartbeat CPU 0 instructions: 75000002 cycles: 249563748 heartbeat IPC: 0.113674 cumulative IPC: 0.111675 (Simulation time: 1 hr 6 min 51 sec) 
Heartbeat CPU 0 instructions: 76000000 cycles: 258629841 heartbeat IPC: 0.110301 cumulative IPC: 0.111621 (Simulation time: 1 hr 8 min 5 sec) 
Heartbeat CPU 0 instructions: 77000003 cycles: 272904663 heartbeat IPC: 0.0700536 cumulative IPC: 0.109221 (Simulation time: 1 hr 9 min 27 sec) 
Heartbeat CPU 0 instructions: 78000000 cycles: 283305634 heartbeat IPC: 0.0961446 cumulative IPC: 0.108693 (Simulation time: 1 hr 10 min 36 sec) 
Heartbeat CPU 0 instructions: 79000000 cycles: 292111188 heartbeat IPC: 0.113565 cumulative IPC: 0.108854 (Simulation time: 1 hr 11 min 40 sec) 
Heartbeat CPU 0 instructions: 80000000 cycles: 300880362 heartbeat IPC: 0.114036 cumulative IPC: 0.109019 (Simulation time: 1 hr 12 min 48 sec) 
Heartbeat CPU 0 instructions: 81000001 cycles: 309834571 heartbeat IPC: 0.111679 cumulative IPC: 0.109103 (Simulation time: 1 hr 13 min 43 sec) 
Heartbeat CPU 0 instructions: 82000001 cycles: 317888342 heartbeat IPC: 0.124165 cumulative IPC: 0.109518 (Simulation time: 1 hr 14 min 37 sec) 
Heartbeat CPU 0 instructions: 83000002 cycles: 325423694 heartbeat IPC: 0.132708 cumulative IPC: 0.110101 (Simulation time: 1 hr 15 min 26 sec) 
Heartbeat CPU 0 instructions: 84000000 cycles: 332810808 heartbeat IPC: 0.135371 cumulative IPC: 0.110709 (Simulation time: 1 hr 16 min 19 sec) 
Heartbeat CPU 0 instructions: 85000000 cycles: 340734396 heartbeat IPC: 0.126205 cumulative IPC: 0.111099 (Simulation time: 1 hr 17 min 6 sec) 
Heartbeat CPU 0 instructions: 86000001 cycles: 348307537 heartbeat IPC: 0.132046 cumulative IPC: 0.11159 (Simulation time: 1 hr 17 min 51 sec) 
Heartbeat CPU 0 instructions: 87000001 cycles: 361598942 heartbeat IPC: 0.0752366 cumulative IPC: 0.110152 (Simulation time: 1 hr 18 min 46 sec) 
Heartbeat CPU 0 instructions: 88000000 cycles: 372142733 heartbeat IPC: 0.0948425 cumulative IPC: 0.109686 (Simulation time: 1 hr 19 min 29 sec) 
Heartbeat CPU 0 instructions: 89000001 cycles: 380142051 heartbeat IPC: 0.125011 cumulative IPC: 0.110032 (Simulation time: 1 hr 20 min 6 sec) 
Heartbeat CPU 0 instructions: 90000001 cycles: 386912889 heartbeat IPC: 0.147692 cumulative IPC: 0.110738 (Simulation time: 1 hr 20 min 44 sec) 
Heartbeat CPU 0 instructions: 91000000 cycles: 396713768 heartbeat IPC: 0.102032 cumulative IPC: 0.110508 (Simulation time: 1 hr 21 min 20 sec) 
Heartbeat CPU 0 instructions: 92000000 cycles: 404956963 heartbeat IPC: 0.121312 cumulative IPC: 0.110743 (Simulation time: 1 hr 21 min 52 sec) 
Heartbeat CPU 0 instructions: 93000000 cycles: 414130507 heartbeat IPC: 0.109009 cumulative IPC: 0.110702 (Simulation time: 1 hr 22 min 27 sec) 
Heartbeat CPU 0 instructions: 94000000 cycles: 423193484 heartbeat IPC: 0.110339 cumulative IPC: 0.110693 (Simulation time: 1 hr 23 min 0 sec) 
Heartbeat CPU 0 instructions: 95000000 cycles: 432326524 heartbeat IPC: 0.109493 cumulative IPC: 0.110666 (Simulation time: 1 hr 23 min 32 sec) 
Heartbeat CPU 0 instructions: 96000000 cycles: 441608022 heartbeat IPC: 0.107741 cumulative IPC: 0.110601 (Simulation time: 1 hr 24 min 4 sec) 
Heartbeat CPU 0 instructions: 97000000 cycles: 450618535 heartbeat IPC: 0.110981 cumulative IPC: 0.110609 (Simulation time: 1 hr 24 min 35 sec) 
Heartbeat CPU 0 instructions: 98000000 cycles: 459913748 heartbeat IPC: 0.107582 cumulative IPC: 0.110544 (Simulation time: 1 hr 25 min 5 sec) 
Heartbeat CPU 0 instructions: 99000000 cycles: 469028883 heartbeat IPC: 0.109708 cumulative IPC: 0.110527 (Simulation time: 1 hr 25 min 35 sec) 
Heartbeat CPU 0 instructions: 100000000 cycles: 478064220 heartbeat IPC: 0.110677 cumulative IPC: 0.11053 (Simulation time: 1 hr 26 min 2 sec) 
Heartbeat CPU 0 instructions: 101000002 cycles: 487147566 heartbeat IPC: 0.110092 cumulative IPC: 0.110522 (Simulation time: 1 hr 26 min 29 sec) 
Heartbeat CPU 0 instructions: 102000000 cycles: 496467781 heartbeat IPC: 0.107293 cumulative IPC: 0.110458 (Simulation time: 1 hr 26 min 52 sec) 
Heartbeat CPU 0 instructions: 103000001 cycles: 505771779 heartbeat IPC: 0.107481 cumulative IPC: 0.1104 (Simulation time: 1 hr 27 min 16 sec) 
Heartbeat CPU 0 instructions: 104000000 cycles: 515089305 heartbeat IPC: 0.107325 cumulative IPC: 0.110341 (Simulation time: 1 hr 27 min 39 sec) 
Heartbeat CPU 0 instructions: 105000000 cycles: 524603040 heartbeat IPC: 0.105111 cumulative IPC: 0.110242 (Simulation time: 1 hr 28 min 2 sec) 
Heartbeat CPU 0 instructions: 106000003 cycles: 533726714 heartbeat IPC: 0.109605 cumulative IPC: 0.11023 (Simulation time: 1 hr 28 min 26 sec) 
Heartbeat CPU 0 instructions: 107000003 cycles: 542897319 heartbeat IPC: 0.109044 cumulative IPC: 0.110209 (Simulation time: 1 hr 28 min 51 sec) 
Heartbeat CPU 0 instructions: 108000000 cycles: 552160957 heartbeat IPC: 0.107949 cumulative IPC: 0.110169 (Simulation time: 1 hr 29 min 13 sec) 
Heartbeat CPU 0 instructions: 109000000 cycles: 561268644 heartbeat IPC: 0.109797 cumulative IPC: 0.110163 (Simulation time: 1 hr 29 min 32 sec) 
Heartbeat CPU 0 instructions: 110000000 cycles: 570325310 heartbeat IPC: 0.110416 cumulative IPC: 0.110167 (Simulation time: 1 hr 29 min 51 sec) 
Heartbeat CPU 0 instructions: 111000000 cycles: 579257347 heartbeat IPC: 0.111957 cumulative IPC: 0.110196 (Simulation time: 1 hr 30 min 7 sec) 
Heartbeat CPU 0 instructions: 112000000 cycles: 588320689 heartbeat IPC: 0.110335 cumulative IPC: 0.110198 (Simulation time: 1 hr 30 min 22 sec) 
Heartbeat CPU 0 instructions: 113000001 cycles: 597239291 heartbeat IPC: 0.112125 cumulative IPC: 0.110228 (Simulation time: 1 hr 30 min 33 sec) 
Heartbeat CPU 0 instructions: 114000000 cycles: 606301146 heartbeat IPC: 0.110353 cumulative IPC: 0.11023 (Simulation time: 1 hr 30 min 42 sec) 
Heartbeat CPU 0 instructions: 115000000 cycles: 615354384 heartbeat IPC: 0.110458 cumulative IPC: 0.110234 (Simulation time: 1 hr 30 min 52 sec) 
Heartbeat CPU 0 instructions: 116000000 cycles: 624560640 heartbeat IPC: 0.108622 cumulative IPC: 0.110209 (Simulation time: 1 hr 31 min 1 sec) 
Heartbeat CPU 0 instructions: 117000001 cycles: 633786386 heartbeat IPC: 0.108392 cumulative IPC: 0.110182 (Simulation time: 1 hr 31 min 11 sec) 
Heartbeat CPU 0 instructions: 118000000 cycles: 642748865 heartbeat IPC: 0.111576 cumulative IPC: 0.110202 (Simulation time: 1 hr 31 min 20 sec) 
Heartbeat CPU 0 instructions: 119000000 cycles: 651866036 heartbeat IPC: 0.109683 cumulative IPC: 0.110194 (Simulation time: 1 hr 31 min 27 sec) 
Heartbeat CPU 0 instructions: 120000000 cycles: 660917619 heartbeat IPC: 0.110478 cumulative IPC: 0.110198 (Simulation time: 1 hr 31 min 34 sec) 
Heartbeat CPU 0 instructions: 121000000 cycles: 669918981 heartbeat IPC: 0.111094 cumulative IPC: 0.110211 (Simulation time: 1 hr 31 min 40 sec) 
Heartbeat CPU 0 instructions: 122000001 cycles: 678902809 heartbeat IPC: 0.111311 cumulative IPC: 0.110226 (Simulation time: 1 hr 31 min 48 sec) 
Heartbeat CPU 0 instructions: 123000002 cycles: 688042338 heartbeat IPC: 0.109415 cumulative IPC: 0.110215 (Simulation time: 1 hr 31 min 56 sec) 
Heartbeat CPU 0 instructions: 124000000 cycles: 697422685 heartbeat IPC: 0.106606 cumulative IPC: 0.110164 (Simulation time: 1 hr 32 min 3 sec) 
Heartbeat CPU 0 instructions: 125000001 cycles: 706862518 heartbeat IPC: 0.105934 cumulative IPC: 0.110106 (Simulation time: 1 hr 32 min 11 sec) 
Heartbeat CPU 0 instructions: 126000002 cycles: 716030866 heartbeat IPC: 0.109071 cumulative IPC: 0.110092 (Simulation time: 1 hr 32 min 18 sec) 
Heartbeat CPU 0 instructions: 127000000 cycles: 725267943 heartbeat IPC: 0.108259 cumulative IPC: 0.110068 (Simulation time: 1 hr 32 min 25 sec) 
Heartbeat CPU 0 instructions: 128000000 cycles: 734690633 heartbeat IPC: 0.106127 cumulative IPC: 0.110015 (Simulation time: 1 hr 32 min 32 sec) 
Heartbeat CPU 0 instructions: 129000001 cycles: 744148014 heartbeat IPC: 0.105738 cumulative IPC: 0.109959 (Simulation time: 1 hr 32 min 39 sec) 
Heartbeat CPU 0 instructions: 130000000 cycles: 753604303 heartbeat IPC: 0.10575 cumulative IPC: 0.109904 (Simulation time: 1 hr 32 min 46 sec) 
Heartbeat CPU 0 instructions: 131000000 cycles: 762801037 heartbeat IPC: 0.108734 cumulative IPC: 0.10989 (Simulation time: 1 hr 32 min 53 sec) 
Heartbeat CPU 0 instructions: 132000000 cycles: 771875980 heartbeat IPC: 0.110194 cumulative IPC: 0.109894 (Simulation time: 1 hr 33 min 0 sec) 
Heartbeat CPU 0 instructions: 133000000 cycles: 780990052 heartbeat IPC: 0.10972 cumulative IPC: 0.109891 (Simulation time: 1 hr 33 min 8 sec) 
Heartbeat CPU 0 instructions: 134000002 cycles: 790121889 heartbeat IPC: 0.109507 cumulative IPC: 0.109887 (Simulation time: 1 hr 33 min 15 sec) 
Heartbeat CPU 0 instructions: 135000002 cycles: 799156632 heartbeat IPC: 0.110684 cumulative IPC: 0.109896 (Simulation time: 1 hr 33 min 23 sec) 
Heartbeat CPU 0 instructions: 136000000 cycles: 808336391 heartbeat IPC: 0.108935 cumulative IPC: 0.109885 (Simulation time: 1 hr 33 min 30 sec) 
Heartbeat CPU 0 instructions: 137000000 cycles: 817482787 heartbeat IPC: 0.109333 cumulative IPC: 0.109878 (Simulation time: 1 hr 33 min 37 sec) 
Heartbeat CPU 0 instructions: 138000000 cycles: 826483157 heartbeat IPC: 0.111107 cumulative IPC: 0.109892 (Simulation time: 1 hr 33 min 45 sec) 
Heartbeat CPU 0 instructions: 139000001 cycles: 835466232 heartbeat IPC: 0.111321 cumulative IPC: 0.109908 (Simulation time: 1 hr 33 min 52 sec) 
Heartbeat CPU 0 instructions: 140000000 cycles: 844562245 heartbeat IPC: 0.109938 cumulative IPC: 0.109908 (Simulation time: 1 hr 34 min 0 sec) 
Heartbeat CPU 0 instructions: 141000002 cycles: 858439921 heartbeat IPC: 0.0720583 cumulative IPC: 0.109278 (Simulation time: 1 hr 34 min 9 sec) 
Heartbeat CPU 0 instructions: 142000002 cycles: 868981121 heartbeat IPC: 0.0948659 cumulative IPC: 0.109098 (Simulation time: 1 hr 34 min 18 sec) 
Heartbeat CPU 0 instructions: 143000001 cycles: 877929578 heartbeat IPC: 0.111751 cumulative IPC: 0.109125 (Simulation time: 1 hr 34 min 25 sec) 
Heartbeat CPU 0 instructions: 144000000 cycles: 886893590 heartbeat IPC: 0.111557 cumulative IPC: 0.109151 (Simulation time: 1 hr 34 min 33 sec) 
Heartbeat CPU 0 instructions: 145000000 cycles: 895941243 heartbeat IPC: 0.110526 cumulative IPC: 0.109165 (Simulation time: 1 hr 34 min 41 sec) 
Heartbeat CPU 0 instructions: 146000001 cycles: 904634783 heartbeat IPC: 0.115028 cumulative IPC: 0.109223 (Simulation time: 1 hr 34 min 48 sec) 
Heartbeat CPU 0 instructions: 147000001 cycles: 913239776 heartbeat IPC: 0.116212 cumulative IPC: 0.109291 (Simulation time: 1 hr 34 min 55 sec) 
Heartbeat CPU 0 instructions: 148000000 cycles: 921727888 heartbeat IPC: 0.117812 cumulative IPC: 0.109371 (Simulation time: 1 hr 35 min 3 sec) 
Heartbeat CPU 0 instructions: 149000001 cycles: 930100951 heartbeat IPC: 0.119431 cumulative IPC: 0.109465 (Simulation time: 1 hr 35 min 10 sec) 
Heartbeat CPU 0 instructions: 150000001 cycles: 938849576 heartbeat IPC: 0.114304 cumulative IPC: 0.109511 (Simulation time: 1 hr 35 min 17 sec) 
Finished CPU 0 instructions: 100000001 cycles: 913150534 cummulative IPC: 0.109511 (Simulation time: 1 hr 35 min 17 sec) 

ChampSim completed all CPUs

Region of Interest Statistics

CPU 0 cummulative IPC: 0.109511 instructions: 100000001 cycles: 913150534
LLC TOTAL     ACCESS:   27038659  HIT:   15384379  MISS:   11654280
LLC LOAD      ACCESS:   11745831  HIT:    8832783  MISS:    2913048
LLC RFO       ACCESS:      20877  HIT:       6941  MISS:      13936
LLC PREFETCH  ACCESS:   14998523  HIT:    6354000  MISS:    8644523
LLC WRITEBACK ACCESS:     273428  HIT:     190655  MISS:      82773
OPTgen accesses: 279149
OPTgen hits: 286387
OPTgen hit rate: 102.593


