
*** ChampSim Multicore Out-of-Order Simulator ***

Warmup Instructions: 50000000
Simulation Instructions: 100000000
Configuration: 2
Number of CPUs: 1
LLC sets: 2048
LLC ways: 16
Off-chip DRAM Channels: 1 Width: 64-bit Data Rate: 1600 MT/s

CPU 0 runs /datasets/cs240c-wi22-a00-public/data/Assignment2-gz/calculix_3812B.trace.gz
CPU 0 L1D next line prefetcher
CPU 0 L2C IP-based stride prefetcher
Initialize Hawkeye state
Heartbeat CPU 0 instructions: 1000001 cycles: 478689 heartbeat IPC: 2.08904 cumulative IPC: 2.08904 (Simulation time: 0 hr 0 min 41 sec) 
Heartbeat CPU 0 instructions: 2000002 cycles: 956483 heartbeat IPC: 2.09295 cumulative IPC: 2.091 (Simulation time: 0 hr 1 min 13 sec) 
Heartbeat CPU 0 instructions: 3000002 cycles: 1434999 heartbeat IPC: 2.08979 cumulative IPC: 2.0906 (Simulation time: 0 hr 1 min 50 sec) 
Heartbeat CPU 0 instructions: 4000000 cycles: 1907482 heartbeat IPC: 2.11647 cumulative IPC: 2.09701 (Simulation time: 0 hr 2 min 29 sec) 
Heartbeat CPU 0 instructions: 5000000 cycles: 2356307 heartbeat IPC: 2.22804 cumulative IPC: 2.12196 (Simulation time: 0 hr 2 min 58 sec) 
Heartbeat CPU 0 instructions: 6000003 cycles: 2761688 heartbeat IPC: 2.46682 cumulative IPC: 2.17259 (Simulation time: 0 hr 3 min 23 sec) 
Heartbeat CPU 0 instructions: 7000002 cycles: 3154798 heartbeat IPC: 2.54381 cumulative IPC: 2.21884 (Simulation time: 0 hr 3 min 47 sec) 
Heartbeat CPU 0 instructions: 8000000 cycles: 3547939 heartbeat IPC: 2.54361 cumulative IPC: 2.25483 (Simulation time: 0 hr 4 min 8 sec) 
Heartbeat CPU 0 instructions: 9000000 cycles: 3940928 heartbeat IPC: 2.5446 cumulative IPC: 2.28373 (Simulation time: 0 hr 4 min 32 sec) 
Heartbeat CPU 0 instructions: 10000003 cycles: 4334017 heartbeat IPC: 2.54396 cumulative IPC: 2.30733 (Simulation time: 0 hr 4 min 53 sec) 
Heartbeat CPU 0 instructions: 11000000 cycles: 4726964 heartbeat IPC: 2.54486 cumulative IPC: 2.32708 (Simulation time: 0 hr 5 min 13 sec) 
Heartbeat CPU 0 instructions: 12000000 cycles: 5120150 heartbeat IPC: 2.54333 cumulative IPC: 2.34368 (Simulation time: 0 hr 5 min 34 sec) 
Heartbeat CPU 0 instructions: 13000003 cycles: 5513237 heartbeat IPC: 2.54397 cumulative IPC: 2.35796 (Simulation time: 0 hr 5 min 54 sec) 
Heartbeat CPU 0 instructions: 14000001 cycles: 5942143 heartbeat IPC: 2.33151 cumulative IPC: 2.35605 (Simulation time: 0 hr 6 min 26 sec) 
Heartbeat CPU 0 instructions: 15000000 cycles: 6335377 heartbeat IPC: 2.54301 cumulative IPC: 2.36766 (Simulation time: 0 hr 6 min 49 sec) 
Heartbeat CPU 0 instructions: 16000000 cycles: 6728573 heartbeat IPC: 2.54326 cumulative IPC: 2.37792 (Simulation time: 0 hr 7 min 9 sec) 
Heartbeat CPU 0 instructions: 17000002 cycles: 7121748 heartbeat IPC: 2.5434 cumulative IPC: 2.38705 (Simulation time: 0 hr 7 min 32 sec) 
Heartbeat CPU 0 instructions: 18000001 cycles: 7515075 heartbeat IPC: 2.54241 cumulative IPC: 2.39519 (Simulation time: 0 hr 7 min 51 sec) 
Heartbeat CPU 0 instructions: 19000001 cycles: 7908292 heartbeat IPC: 2.54313 cumulative IPC: 2.40254 (Simulation time: 0 hr 8 min 10 sec) 
Heartbeat CPU 0 instructions: 20000000 cycles: 8301266 heartbeat IPC: 2.5447 cumulative IPC: 2.40927 (Simulation time: 0 hr 8 min 31 sec) 
Heartbeat CPU 0 instructions: 21000000 cycles: 8694477 heartbeat IPC: 2.54316 cumulative IPC: 2.41533 (Simulation time: 0 hr 8 min 50 sec) 
Heartbeat CPU 0 instructions: 22000003 cycles: 9087726 heartbeat IPC: 2.54293 cumulative IPC: 2.42085 (Simulation time: 0 hr 9 min 10 sec) 
Heartbeat CPU 0 instructions: 23000002 cycles: 9480993 heartbeat IPC: 2.5428 cumulative IPC: 2.42591 (Simulation time: 0 hr 9 min 29 sec) 
Heartbeat CPU 0 instructions: 24000000 cycles: 9874251 heartbeat IPC: 2.54285 cumulative IPC: 2.43056 (Simulation time: 0 hr 9 min 48 sec) 
Heartbeat CPU 0 instructions: 25000003 cycles: 10262721 heartbeat IPC: 2.57421 cumulative IPC: 2.436 (Simulation time: 0 hr 10 min 9 sec) 
Heartbeat CPU 0 instructions: 26000003 cycles: 10649330 heartbeat IPC: 2.58659 cumulative IPC: 2.44147 (Simulation time: 0 hr 10 min 32 sec) 
Heartbeat CPU 0 instructions: 27000000 cycles: 11035432 heartbeat IPC: 2.58998 cumulative IPC: 2.44666 (Simulation time: 0 hr 10 min 55 sec) 
Heartbeat CPU 0 instructions: 28000000 cycles: 11422754 heartbeat IPC: 2.58183 cumulative IPC: 2.45125 (Simulation time: 0 hr 11 min 18 sec) 
Heartbeat CPU 0 instructions: 29000003 cycles: 11815302 heartbeat IPC: 2.54747 cumulative IPC: 2.45444 (Simulation time: 0 hr 11 min 39 sec) 
Heartbeat CPU 0 instructions: 30000001 cycles: 12202092 heartbeat IPC: 2.58538 cumulative IPC: 2.45859 (Simulation time: 0 hr 12 min 1 sec) 
Heartbeat CPU 0 instructions: 31000001 cycles: 12567507 heartbeat IPC: 2.73661 cumulative IPC: 2.46668 (Simulation time: 0 hr 12 min 29 sec) 
Heartbeat CPU 0 instructions: 32000000 cycles: 13033828 heartbeat IPC: 2.14444 cumulative IPC: 2.45515 (Simulation time: 0 hr 12 min 56 sec) 
Heartbeat CPU 0 instructions: 33000003 cycles: 13513409 heartbeat IPC: 2.08516 cumulative IPC: 2.44202 (Simulation time: 0 hr 13 min 26 sec) 
Heartbeat CPU 0 instructions: 34000000 cycles: 13993159 heartbeat IPC: 2.08441 cumulative IPC: 2.42976 (Simulation time: 0 hr 13 min 58 sec) 
Heartbeat CPU 0 instructions: 35000000 cycles: 14471850 heartbeat IPC: 2.08903 cumulative IPC: 2.41849 (Simulation time: 0 hr 14 min 28 sec) 
Heartbeat CPU 0 instructions: 36000000 cycles: 14948718 heartbeat IPC: 2.09702 cumulative IPC: 2.40823 (Simulation time: 0 hr 14 min 55 sec) 
Heartbeat CPU 0 instructions: 37000003 cycles: 15427169 heartbeat IPC: 2.09008 cumulative IPC: 2.39837 (Simulation time: 0 hr 15 min 22 sec) 
Heartbeat CPU 0 instructions: 38000003 cycles: 15900974 heartbeat IPC: 2.11057 cumulative IPC: 2.38979 (Simulation time: 0 hr 15 min 51 sec) 
Heartbeat CPU 0 instructions: 39000001 cycles: 16324326 heartbeat IPC: 2.3621 cumulative IPC: 2.38907 (Simulation time: 0 hr 16 min 17 sec) 
Heartbeat CPU 0 instructions: 40000000 cycles: 16759417 heartbeat IPC: 2.29837 cumulative IPC: 2.38672 (Simulation time: 0 hr 16 min 44 sec) 
Heartbeat CPU 0 instructions: 41000002 cycles: 17202700 heartbeat IPC: 2.2559 cumulative IPC: 2.38335 (Simulation time: 0 hr 17 min 10 sec) 
Heartbeat CPU 0 instructions: 42000003 cycles: 17578920 heartbeat IPC: 2.65802 cumulative IPC: 2.38923 (Simulation time: 0 hr 17 min 36 sec) 
Heartbeat CPU 0 instructions: 43000000 cycles: 17974084 heartbeat IPC: 2.53059 cumulative IPC: 2.39233 (Simulation time: 0 hr 18 min 1 sec) 
Heartbeat CPU 0 instructions: 44000000 cycles: 18451871 heartbeat IPC: 2.09298 cumulative IPC: 2.38458 (Simulation time: 0 hr 18 min 29 sec) 
Heartbeat CPU 0 instructions: 45000002 cycles: 18927210 heartbeat IPC: 2.10377 cumulative IPC: 2.37753 (Simulation time: 0 hr 18 min 59 sec) 
Heartbeat CPU 0 instructions: 46000002 cycles: 19405114 heartbeat IPC: 2.09247 cumulative IPC: 2.37051 (Simulation time: 0 hr 19 min 28 sec) 
Heartbeat CPU 0 instructions: 47000002 cycles: 19841083 heartbeat IPC: 2.29374 cumulative IPC: 2.36882 (Simulation time: 0 hr 19 min 52 sec) 
Heartbeat CPU 0 instructions: 48000000 cycles: 20234997 heartbeat IPC: 2.53862 cumulative IPC: 2.37213 (Simulation time: 0 hr 20 min 10 sec) 
Heartbeat CPU 0 instructions: 49000001 cycles: 20628490 heartbeat IPC: 2.54134 cumulative IPC: 2.37536 (Simulation time: 0 hr 20 min 29 sec) 
Heartbeat CPU 0 instructions: 50000000 cycles: 21023586 heartbeat IPC: 2.53103 cumulative IPC: 2.37828 (Simulation time: 0 hr 20 min 49 sec) 

Warmup complete CPU 0 instructions: 50000004 cycles: 21023587 (Simulation time: 0 hr 20 min 49 sec) 

Heartbeat CPU 0 instructions: 51000000 cycles: 21625014 heartbeat IPC: 1.66271 cumulative IPC: 1.66271 (Simulation time: 0 hr 21 min 14 sec) 
Heartbeat CPU 0 instructions: 52000000 cycles: 22210942 heartbeat IPC: 1.70669 cumulative IPC: 1.68441 (Simulation time: 0 hr 21 min 38 sec) 
Heartbeat CPU 0 instructions: 53000000 cycles: 22671123 heartbeat IPC: 2.17306 cumulative IPC: 1.8209 (Simulation time: 0 hr 22 min 2 sec) 
Heartbeat CPU 0 instructions: 54000003 cycles: 23117440 heartbeat IPC: 2.24057 cumulative IPC: 1.91035 (Simulation time: 0 hr 22 min 26 sec) 
Heartbeat CPU 0 instructions: 55000001 cycles: 23556972 heartbeat IPC: 2.27514 cumulative IPC: 1.97364 (Simulation time: 0 hr 22 min 52 sec) 
Heartbeat CPU 0 instructions: 56000000 cycles: 23996832 heartbeat IPC: 2.27345 cumulative IPC: 2.018 (Simulation time: 0 hr 23 min 16 sec) 
Heartbeat CPU 0 instructions: 57000003 cycles: 24437473 heartbeat IPC: 2.26943 cumulative IPC: 2.05045 (Simulation time: 0 hr 23 min 40 sec) 
Heartbeat CPU 0 instructions: 58000002 cycles: 24899402 heartbeat IPC: 2.16483 cumulative IPC: 2.06408 (Simulation time: 0 hr 24 min 5 sec) 
Heartbeat CPU 0 instructions: 59000001 cycles: 25481980 heartbeat IPC: 1.71651 cumulative IPC: 2.01866 (Simulation time: 0 hr 24 min 28 sec) 
Heartbeat CPU 0 instructions: 60000000 cycles: 25918403 heartbeat IPC: 2.29135 cumulative IPC: 2.04298 (Simulation time: 0 hr 24 min 51 sec) 
Heartbeat CPU 0 instructions: 61000003 cycles: 26356086 heartbeat IPC: 2.28477 cumulative IPC: 2.06282 (Simulation time: 0 hr 25 min 13 sec) 
Heartbeat CPU 0 instructions: 62000002 cycles: 26793138 heartbeat IPC: 2.28805 cumulative IPC: 2.07988 (Simulation time: 0 hr 25 min 36 sec) 
Heartbeat CPU 0 instructions: 63000003 cycles: 27231257 heartbeat IPC: 2.28249 cumulative IPC: 2.09418 (Simulation time: 0 hr 26 min 1 sec) 
Heartbeat CPU 0 instructions: 64000000 cycles: 27668764 heartbeat IPC: 2.28567 cumulative IPC: 2.10679 (Simulation time: 0 hr 26 min 24 sec) 
Heartbeat CPU 0 instructions: 65000000 cycles: 28298280 heartbeat IPC: 1.58852 cumulative IPC: 2.06194 (Simulation time: 0 hr 26 min 51 sec) 
Heartbeat CPU 0 instructions: 66000002 cycles: 28860474 heartbeat IPC: 1.77875 cumulative IPC: 2.04163 (Simulation time: 0 hr 27 min 15 sec) 
Heartbeat CPU 0 instructions: 67000002 cycles: 29298280 heartbeat IPC: 2.28412 cumulative IPC: 2.05446 (Simulation time: 0 hr 27 min 38 sec) 
Heartbeat CPU 0 instructions: 68000000 cycles: 29734684 heartbeat IPC: 2.29145 cumulative IPC: 2.06633 (Simulation time: 0 hr 28 min 1 sec) 
Heartbeat CPU 0 instructions: 69000001 cycles: 30287053 heartbeat IPC: 1.81039 cumulative IPC: 2.05107 (Simulation time: 0 hr 28 min 26 sec) 
Heartbeat CPU 0 instructions: 70000000 cycles: 30725582 heartbeat IPC: 2.28035 cumulative IPC: 2.06143 (Simulation time: 0 hr 28 min 51 sec) 
Heartbeat CPU 0 instructions: 71000000 cycles: 31166070 heartbeat IPC: 2.27021 cumulative IPC: 2.0705 (Simulation time: 0 hr 29 min 12 sec) 
Heartbeat CPU 0 instructions: 72000000 cycles: 31648097 heartbeat IPC: 2.07457 cumulative IPC: 2.07068 (Simulation time: 0 hr 29 min 36 sec) 
Heartbeat CPU 0 instructions: 73000001 cycles: 32211005 heartbeat IPC: 1.77649 cumulative IPC: 2.05588 (Simulation time: 0 hr 30 min 1 sec) 
Heartbeat CPU 0 instructions: 74000002 cycles: 32853671 heartbeat IPC: 1.55602 cumulative IPC: 2.02873 (Simulation time: 0 hr 30 min 27 sec) 
Heartbeat CPU 0 instructions: 75000000 cycles: 33401143 heartbeat IPC: 1.82657 cumulative IPC: 2.01978 (Simulation time: 0 hr 30 min 53 sec) 
Heartbeat CPU 0 instructions: 76000000 cycles: 34146404 heartbeat IPC: 1.34181 cumulative IPC: 1.98128 (Simulation time: 0 hr 31 min 28 sec) 
Heartbeat CPU 0 instructions: 77000000 cycles: 34867367 heartbeat IPC: 1.38703 cumulative IPC: 1.95033 (Simulation time: 0 hr 31 min 59 sec) 
Heartbeat CPU 0 instructions: 78000003 cycles: 35586143 heartbeat IPC: 1.39126 cumulative IPC: 1.92274 (Simulation time: 0 hr 32 min 29 sec) 
Heartbeat CPU 0 instructions: 79000000 cycles: 36297044 heartbeat IPC: 1.40666 cumulative IPC: 1.89872 (Simulation time: 0 hr 32 min 59 sec) 
Heartbeat CPU 0 instructions: 80000000 cycles: 36982126 heartbeat IPC: 1.45968 cumulative IPC: 1.87987 (Simulation time: 0 hr 33 min 30 sec) 
Heartbeat CPU 0 instructions: 81000001 cycles: 37646458 heartbeat IPC: 1.50527 cumulative IPC: 1.8649 (Simulation time: 0 hr 33 min 59 sec) 
Heartbeat CPU 0 instructions: 82000002 cycles: 38289416 heartbeat IPC: 1.55531 cumulative IPC: 1.85337 (Simulation time: 0 hr 34 min 28 sec) 
Heartbeat CPU 0 instructions: 83000002 cycles: 39145318 heartbeat IPC: 1.16836 cumulative IPC: 1.82102 (Simulation time: 0 hr 34 min 56 sec) 
Heartbeat CPU 0 instructions: 84000000 cycles: 39735255 heartbeat IPC: 1.69509 cumulative IPC: 1.81705 (Simulation time: 0 hr 35 min 20 sec) 
Heartbeat CPU 0 instructions: 85000000 cycles: 40190614 heartbeat IPC: 2.19607 cumulative IPC: 1.82605 (Simulation time: 0 hr 35 min 44 sec) 
Heartbeat CPU 0 instructions: 86000001 cycles: 40643210 heartbeat IPC: 2.20948 cumulative IPC: 1.8349 (Simulation time: 0 hr 36 min 10 sec) 
Heartbeat CPU 0 instructions: 87000002 cycles: 41098851 heartbeat IPC: 2.19471 cumulative IPC: 1.84306 (Simulation time: 0 hr 36 min 35 sec) 
Heartbeat CPU 0 instructions: 88000000 cycles: 41549918 heartbeat IPC: 2.21696 cumulative IPC: 1.85128 (Simulation time: 0 hr 36 min 59 sec) 
Heartbeat CPU 0 instructions: 89000003 cycles: 41999463 heartbeat IPC: 2.22448 cumulative IPC: 1.85928 (Simulation time: 0 hr 37 min 23 sec) 
Heartbeat CPU 0 instructions: 90000003 cycles: 42449436 heartbeat IPC: 2.22236 cumulative IPC: 1.8669 (Simulation time: 0 hr 37 min 47 sec) 
Heartbeat CPU 0 instructions: 91000003 cycles: 42916186 heartbeat IPC: 2.14247 cumulative IPC: 1.87278 (Simulation time: 0 hr 38 min 12 sec) 
Heartbeat CPU 0 instructions: 92000000 cycles: 43414783 heartbeat IPC: 2.00562 cumulative IPC: 1.87574 (Simulation time: 0 hr 38 min 38 sec) 
Heartbeat CPU 0 instructions: 93000000 cycles: 43860676 heartbeat IPC: 2.24269 cumulative IPC: 1.8829 (Simulation time: 0 hr 39 min 4 sec) 
Heartbeat CPU 0 instructions: 94000003 cycles: 44305816 heartbeat IPC: 2.24649 cumulative IPC: 1.88985 (Simulation time: 0 hr 39 min 27 sec) 
Heartbeat CPU 0 instructions: 95000001 cycles: 44936135 heartbeat IPC: 1.5865 cumulative IPC: 1.88186 (Simulation time: 0 hr 39 min 52 sec) 
Heartbeat CPU 0 instructions: 96000000 cycles: 45540199 heartbeat IPC: 1.65545 cumulative IPC: 1.87628 (Simulation time: 0 hr 40 min 18 sec) 
Heartbeat CPU 0 instructions: 97000000 cycles: 46009159 heartbeat IPC: 2.13238 cumulative IPC: 1.88109 (Simulation time: 0 hr 40 min 40 sec) 
Heartbeat CPU 0 instructions: 98000003 cycles: 46449399 heartbeat IPC: 2.2715 cumulative IPC: 1.88785 (Simulation time: 0 hr 41 min 4 sec) 
Heartbeat CPU 0 instructions: 99000000 cycles: 46889045 heartbeat IPC: 2.27455 cumulative IPC: 1.89442 (Simulation time: 0 hr 41 min 27 sec) 
Heartbeat CPU 0 instructions: 100000000 cycles: 47329310 heartbeat IPC: 2.27136 cumulative IPC: 1.90073 (Simulation time: 0 hr 41 min 52 sec) 
Heartbeat CPU 0 instructions: 101000003 cycles: 47768894 heartbeat IPC: 2.27488 cumulative IPC: 1.90688 (Simulation time: 0 hr 42 min 14 sec) 
Heartbeat CPU 0 instructions: 102000002 cycles: 48316862 heartbeat IPC: 1.82492 cumulative IPC: 1.90523 (Simulation time: 0 hr 42 min 38 sec) 
Heartbeat CPU 0 instructions: 103000000 cycles: 48772169 heartbeat IPC: 2.19632 cumulative IPC: 1.91001 (Simulation time: 0 hr 43 min 2 sec) 
Heartbeat CPU 0 instructions: 104000000 cycles: 49210676 heartbeat IPC: 2.28047 cumulative IPC: 1.91577 (Simulation time: 0 hr 43 min 27 sec) 
Heartbeat CPU 0 instructions: 105000000 cycles: 49648102 heartbeat IPC: 2.2861 cumulative IPC: 1.92143 (Simulation time: 0 hr 43 min 51 sec) 
Heartbeat CPU 0 instructions: 106000003 cycles: 50085188 heartbeat IPC: 2.28789 cumulative IPC: 1.92694 (Simulation time: 0 hr 44 min 17 sec) 
Heartbeat CPU 0 instructions: 107000003 cycles: 50523149 heartbeat IPC: 2.28331 cumulative IPC: 1.93223 (Simulation time: 0 hr 44 min 41 sec) 
Heartbeat CPU 0 instructions: 108000000 cycles: 51035777 heartbeat IPC: 1.95073 cumulative IPC: 1.93255 (Simulation time: 0 hr 45 min 6 sec) 
Heartbeat CPU 0 instructions: 109000002 cycles: 51680292 heartbeat IPC: 1.55156 cumulative IPC: 1.92454 (Simulation time: 0 hr 45 min 32 sec) 
Heartbeat CPU 0 instructions: 110000003 cycles: 52115003 heartbeat IPC: 2.30038 cumulative IPC: 1.92979 (Simulation time: 0 hr 45 min 59 sec) 
Heartbeat CPU 0 instructions: 111000001 cycles: 52550756 heartbeat IPC: 2.29487 cumulative IPC: 1.93484 (Simulation time: 0 hr 46 min 23 sec) 
Heartbeat CPU 0 instructions: 112000000 cycles: 53038238 heartbeat IPC: 2.05136 cumulative IPC: 1.93661 (Simulation time: 0 hr 46 min 46 sec) 
Heartbeat CPU 0 instructions: 113000003 cycles: 53511550 heartbeat IPC: 2.11278 cumulative IPC: 1.93918 (Simulation time: 0 hr 47 min 9 sec) 
Heartbeat CPU 0 instructions: 114000003 cycles: 53949512 heartbeat IPC: 2.2833 cumulative IPC: 1.94376 (Simulation time: 0 hr 47 min 33 sec) 
Heartbeat CPU 0 instructions: 115000002 cycles: 54385084 heartbeat IPC: 2.29583 cumulative IPC: 1.94835 (Simulation time: 0 hr 47 min 58 sec) 
Heartbeat CPU 0 instructions: 116000000 cycles: 54886454 heartbeat IPC: 1.99453 cumulative IPC: 1.94904 (Simulation time: 0 hr 48 min 26 sec) 
Heartbeat CPU 0 instructions: 117000000 cycles: 55441667 heartbeat IPC: 1.80111 cumulative IPC: 1.94665 (Simulation time: 0 hr 48 min 51 sec) 
Heartbeat CPU 0 instructions: 118000001 cycles: 56069022 heartbeat IPC: 1.594 cumulative IPC: 1.94034 (Simulation time: 0 hr 49 min 18 sec) 
Heartbeat CPU 0 instructions: 119000003 cycles: 56813336 heartbeat IPC: 1.34352 cumulative IPC: 1.92793 (Simulation time: 0 hr 49 min 46 sec) 
Heartbeat CPU 0 instructions: 120000000 cycles: 57530319 heartbeat IPC: 1.39473 cumulative IPC: 1.91745 (Simulation time: 0 hr 50 min 14 sec) 
Heartbeat CPU 0 instructions: 121000001 cycles: 58245304 heartbeat IPC: 1.39863 cumulative IPC: 1.90749 (Simulation time: 0 hr 50 min 47 sec) 
Heartbeat CPU 0 instructions: 122000002 cycles: 58951123 heartbeat IPC: 1.4168 cumulative IPC: 1.89836 (Simulation time: 0 hr 51 min 21 sec) 
Heartbeat CPU 0 instructions: 123000002 cycles: 59633569 heartbeat IPC: 1.46532 cumulative IPC: 1.8907 (Simulation time: 0 hr 51 min 49 sec) 
Heartbeat CPU 0 instructions: 124000000 cycles: 60297072 heartbeat IPC: 1.50715 cumulative IPC: 1.88422 (Simulation time: 0 hr 52 min 18 sec) 
Heartbeat CPU 0 instructions: 125000002 cycles: 60945230 heartbeat IPC: 1.54284 cumulative IPC: 1.87868 (Simulation time: 0 hr 52 min 50 sec) 
Heartbeat CPU 0 instructions: 126000001 cycles: 61875894 heartbeat IPC: 1.0745 cumulative IPC: 1.86036 (Simulation time: 0 hr 53 min 24 sec) 
Heartbeat CPU 0 instructions: 127000003 cycles: 62455005 heartbeat IPC: 1.72679 cumulative IPC: 1.85849 (Simulation time: 0 hr 53 min 48 sec) 
Heartbeat CPU 0 instructions: 128000000 cycles: 62915341 heartbeat IPC: 2.17232 cumulative IPC: 1.86194 (Simulation time: 0 hr 54 min 12 sec) 
Heartbeat CPU 0 instructions: 129000002 cycles: 63368838 heartbeat IPC: 2.20509 cumulative IPC: 1.86562 (Simulation time: 0 hr 54 min 38 sec) 
Heartbeat CPU 0 instructions: 130000001 cycles: 63817465 heartbeat IPC: 2.22902 cumulative IPC: 1.86943 (Simulation time: 0 hr 55 min 4 sec) 
Heartbeat CPU 0 instructions: 131000000 cycles: 64265916 heartbeat IPC: 2.2299 cumulative IPC: 1.87316 (Simulation time: 0 hr 55 min 31 sec) 
Heartbeat CPU 0 instructions: 132000000 cycles: 64719509 heartbeat IPC: 2.20462 cumulative IPC: 1.87661 (Simulation time: 0 hr 55 min 58 sec) 
Heartbeat CPU 0 instructions: 133000000 cycles: 65175044 heartbeat IPC: 2.19522 cumulative IPC: 1.87989 (Simulation time: 0 hr 56 min 21 sec) 
Heartbeat CPU 0 instructions: 134000000 cycles: 65706933 heartbeat IPC: 1.88009 cumulative IPC: 1.87989 (Simulation time: 0 hr 56 min 45 sec) 
Heartbeat CPU 0 instructions: 135000003 cycles: 66215207 heartbeat IPC: 1.96745 cumulative IPC: 1.88088 (Simulation time: 0 hr 57 min 11 sec) 
Heartbeat CPU 0 instructions: 136000000 cycles: 66666678 heartbeat IPC: 2.21498 cumulative IPC: 1.88418 (Simulation time: 0 hr 57 min 35 sec) 
Heartbeat CPU 0 instructions: 137000002 cycles: 67118372 heartbeat IPC: 2.21389 cumulative IPC: 1.88742 (Simulation time: 0 hr 57 min 59 sec) 
Heartbeat CPU 0 instructions: 138000002 cycles: 67571350 heartbeat IPC: 2.20761 cumulative IPC: 1.89053 (Simulation time: 0 hr 58 min 24 sec) 
Heartbeat CPU 0 instructions: 139000000 cycles: 68027861 heartbeat IPC: 2.19052 cumulative IPC: 1.89344 (Simulation time: 0 hr 58 min 47 sec) 
Heartbeat CPU 0 instructions: 140000000 cycles: 68479556 heartbeat IPC: 2.21388 cumulative IPC: 1.89649 (Simulation time: 0 hr 59 min 12 sec) 
Heartbeat CPU 0 instructions: 141000000 cycles: 68932500 heartbeat IPC: 2.20778 cumulative IPC: 1.89944 (Simulation time: 0 hr 59 min 38 sec) 
Heartbeat CPU 0 instructions: 142000003 cycles: 69447197 heartbeat IPC: 1.9429 cumulative IPC: 1.8999 (Simulation time: 1 hr 0 min 0 sec) 
Heartbeat CPU 0 instructions: 143000002 cycles: 69890861 heartbeat IPC: 2.25396 cumulative IPC: 1.90311 (Simulation time: 1 hr 0 min 24 sec) 
Heartbeat CPU 0 instructions: 144000000 cycles: 70341956 heartbeat IPC: 2.21682 cumulative IPC: 1.90598 (Simulation time: 1 hr 0 min 47 sec) 
Heartbeat CPU 0 instructions: 145000001 cycles: 70999565 heartbeat IPC: 1.52066 cumulative IPC: 1.90091 (Simulation time: 1 hr 1 min 15 sec) 
Heartbeat CPU 0 instructions: 146000003 cycles: 71610744 heartbeat IPC: 1.63619 cumulative IPC: 1.89771 (Simulation time: 1 hr 1 min 42 sec) 
Heartbeat CPU 0 instructions: 147000002 cycles: 72062039 heartbeat IPC: 2.21584 cumulative IPC: 1.90053 (Simulation time: 1 hr 2 min 5 sec) 
Heartbeat CPU 0 instructions: 148000000 cycles: 72499684 heartbeat IPC: 2.28495 cumulative IPC: 1.9038 (Simulation time: 1 hr 2 min 32 sec) 
Heartbeat CPU 0 instructions: 149000002 cycles: 72939231 heartbeat IPC: 2.27507 cumulative IPC: 1.90694 (Simulation time: 1 hr 2 min 57 sec) 
Heartbeat CPU 0 instructions: 150000003 cycles: 73378241 heartbeat IPC: 2.27785 cumulative IPC: 1.91005 (Simulation time: 1 hr 3 min 22 sec) 
Finished CPU 0 instructions: 100000003 cycles: 52354655 cummulative IPC: 1.91005 (Simulation time: 1 hr 3 min 22 sec) 

ChampSim completed all CPUs

Region of Interest Statistics

CPU 0 cummulative IPC: 1.91005 instructions: 100000003 cycles: 52354655
LLC TOTAL     ACCESS:    1256095  HIT:    1164078  MISS:      92017
LLC LOAD      ACCESS:     149569  HIT:     140047  MISS:       9522
LLC RFO       ACCESS:      37522  HIT:      12808  MISS:      24714
LLC PREFETCH  ACCESS:     776649  HIT:     725498  MISS:      51151
LLC WRITEBACK ACCESS:     292355  HIT:     285725  MISS:       6630
OPTgen accesses: 4734
OPTgen hits: 12827
OPTgen hit rate: 270.955


