
*** ChampSim Multicore Out-of-Order Simulator ***

Warmup Instructions: 50000000
Simulation Instructions: 100000000
Configuration: 2
Number of CPUs: 1
LLC sets: 2048
LLC ways: 16
Off-chip DRAM Channels: 1 Width: 64-bit Data Rate: 1600 MT/s

CPU 0 runs /datasets/cs240c-wi22-a00-public/data/Assignment2-gz/mcf_46B.trace.gz
CPU 0 L1D next line prefetcher
CPU 0 L2C IP-based stride prefetcher
Initialize Hawkeye state
Heartbeat CPU 0 instructions: 1000002 cycles: 492244 heartbeat IPC: 2.03152 cumulative IPC: 2.03152 (Simulation time: 0 hr 0 min 45 sec) 
Heartbeat CPU 0 instructions: 2000002 cycles: 987659 heartbeat IPC: 2.01851 cumulative IPC: 2.02499 (Simulation time: 0 hr 1 min 28 sec) 
Heartbeat CPU 0 instructions: 3000003 cycles: 1514820 heartbeat IPC: 1.89696 cumulative IPC: 1.98044 (Simulation time: 0 hr 2 min 12 sec) 
Heartbeat CPU 0 instructions: 4000000 cycles: 2033080 heartbeat IPC: 1.92953 cumulative IPC: 1.96746 (Simulation time: 0 hr 2 min 55 sec) 
Heartbeat CPU 0 instructions: 5000000 cycles: 2526991 heartbeat IPC: 2.02466 cumulative IPC: 1.97864 (Simulation time: 0 hr 3 min 37 sec) 
Heartbeat CPU 0 instructions: 6000003 cycles: 3030011 heartbeat IPC: 1.988 cumulative IPC: 1.98019 (Simulation time: 0 hr 4 min 22 sec) 
Heartbeat CPU 0 instructions: 7000001 cycles: 3571716 heartbeat IPC: 1.84602 cumulative IPC: 1.95984 (Simulation time: 0 hr 5 min 6 sec) 
Heartbeat CPU 0 instructions: 8000000 cycles: 4062371 heartbeat IPC: 2.03809 cumulative IPC: 1.96929 (Simulation time: 0 hr 5 min 54 sec) 
Heartbeat CPU 0 instructions: 9000001 cycles: 4546091 heartbeat IPC: 2.06731 cumulative IPC: 1.97972 (Simulation time: 0 hr 6 min 37 sec) 
Heartbeat CPU 0 instructions: 10000001 cycles: 5081191 heartbeat IPC: 1.86881 cumulative IPC: 1.96804 (Simulation time: 0 hr 7 min 26 sec) 
Heartbeat CPU 0 instructions: 11000002 cycles: 5627651 heartbeat IPC: 1.82996 cumulative IPC: 1.95463 (Simulation time: 0 hr 8 min 11 sec) 
Heartbeat CPU 0 instructions: 12000000 cycles: 6106469 heartbeat IPC: 2.08847 cumulative IPC: 1.96513 (Simulation time: 0 hr 8 min 53 sec) 
Heartbeat CPU 0 instructions: 13000000 cycles: 6601934 heartbeat IPC: 2.01831 cumulative IPC: 1.96912 (Simulation time: 0 hr 9 min 40 sec) 
Heartbeat CPU 0 instructions: 14000003 cycles: 7147747 heartbeat IPC: 1.83213 cumulative IPC: 1.95866 (Simulation time: 0 hr 10 min 22 sec) 
Heartbeat CPU 0 instructions: 15000000 cycles: 7625130 heartbeat IPC: 2.09475 cumulative IPC: 1.96718 (Simulation time: 0 hr 11 min 2 sec) 
Heartbeat CPU 0 instructions: 16000000 cycles: 8102349 heartbeat IPC: 2.09547 cumulative IPC: 1.97474 (Simulation time: 0 hr 11 min 41 sec) 
Heartbeat CPU 0 instructions: 17000002 cycles: 8645610 heartbeat IPC: 1.84074 cumulative IPC: 1.96632 (Simulation time: 0 hr 12 min 27 sec) 
Heartbeat CPU 0 instructions: 18000000 cycles: 9133104 heartbeat IPC: 2.0513 cumulative IPC: 1.97085 (Simulation time: 0 hr 13 min 14 sec) 
Heartbeat CPU 0 instructions: 19000002 cycles: 9621566 heartbeat IPC: 2.04725 cumulative IPC: 1.97473 (Simulation time: 0 hr 13 min 54 sec) 
Heartbeat CPU 0 instructions: 20000000 cycles: 10198095 heartbeat IPC: 1.73451 cumulative IPC: 1.96115 (Simulation time: 0 hr 14 min 40 sec) 
Heartbeat CPU 0 instructions: 21000001 cycles: 10742833 heartbeat IPC: 1.83575 cumulative IPC: 1.95479 (Simulation time: 0 hr 15 min 27 sec) 
Heartbeat CPU 0 instructions: 22000002 cycles: 11221546 heartbeat IPC: 2.08894 cumulative IPC: 1.96051 (Simulation time: 0 hr 16 min 12 sec) 
Heartbeat CPU 0 instructions: 23000000 cycles: 11701517 heartbeat IPC: 2.08346 cumulative IPC: 1.96556 (Simulation time: 0 hr 16 min 54 sec) 
Heartbeat CPU 0 instructions: 24000000 cycles: 12232343 heartbeat IPC: 1.88386 cumulative IPC: 1.96201 (Simulation time: 0 hr 17 min 32 sec) 
Heartbeat CPU 0 instructions: 25000002 cycles: 12732320 heartbeat IPC: 2.0001 cumulative IPC: 1.96351 (Simulation time: 0 hr 18 min 10 sec) 
Heartbeat CPU 0 instructions: 26000000 cycles: 13213312 heartbeat IPC: 2.07903 cumulative IPC: 1.96771 (Simulation time: 0 hr 18 min 48 sec) 
Heartbeat CPU 0 instructions: 27000002 cycles: 13726430 heartbeat IPC: 1.94887 cumulative IPC: 1.96701 (Simulation time: 0 hr 19 min 33 sec) 
Heartbeat CPU 0 instructions: 28000000 cycles: 14242973 heartbeat IPC: 1.93594 cumulative IPC: 1.96588 (Simulation time: 0 hr 20 min 14 sec) 
Heartbeat CPU 0 instructions: 29000001 cycles: 14721768 heartbeat IPC: 2.08858 cumulative IPC: 1.96987 (Simulation time: 0 hr 20 min 54 sec) 
Heartbeat CPU 0 instructions: 30000000 cycles: 15218885 heartbeat IPC: 2.0116 cumulative IPC: 1.97124 (Simulation time: 0 hr 21 min 35 sec) 
Heartbeat CPU 0 instructions: 31000002 cycles: 15751506 heartbeat IPC: 1.87751 cumulative IPC: 1.96807 (Simulation time: 0 hr 22 min 22 sec) 
Heartbeat CPU 0 instructions: 32000000 cycles: 16231103 heartbeat IPC: 2.08508 cumulative IPC: 1.97152 (Simulation time: 0 hr 23 min 5 sec) 
Heartbeat CPU 0 instructions: 33000000 cycles: 16736079 heartbeat IPC: 1.98029 cumulative IPC: 1.97179 (Simulation time: 0 hr 23 min 52 sec) 
Heartbeat CPU 0 instructions: 34000000 cycles: 17277579 heartbeat IPC: 1.84672 cumulative IPC: 1.96787 (Simulation time: 0 hr 24 min 37 sec) 
Heartbeat CPU 0 instructions: 35000001 cycles: 17766804 heartbeat IPC: 2.04405 cumulative IPC: 1.96997 (Simulation time: 0 hr 25 min 17 sec) 
Heartbeat CPU 0 instructions: 36000000 cycles: 18272660 heartbeat IPC: 1.97685 cumulative IPC: 1.97016 (Simulation time: 0 hr 25 min 54 sec) 
Heartbeat CPU 0 instructions: 37000002 cycles: 18789285 heartbeat IPC: 1.93564 cumulative IPC: 1.96921 (Simulation time: 0 hr 26 min 32 sec) 
Heartbeat CPU 0 instructions: 38000001 cycles: 19302757 heartbeat IPC: 1.94752 cumulative IPC: 1.96863 (Simulation time: 0 hr 27 min 13 sec) 
Heartbeat CPU 0 instructions: 39000000 cycles: 19780214 heartbeat IPC: 2.09443 cumulative IPC: 1.97167 (Simulation time: 0 hr 27 min 58 sec) 
Heartbeat CPU 0 instructions: 40000000 cycles: 20269361 heartbeat IPC: 2.04438 cumulative IPC: 1.97342 (Simulation time: 0 hr 28 min 38 sec) 
Heartbeat CPU 0 instructions: 41000000 cycles: 20808932 heartbeat IPC: 1.85332 cumulative IPC: 1.97031 (Simulation time: 0 hr 29 min 17 sec) 
Heartbeat CPU 0 instructions: 42000001 cycles: 21292949 heartbeat IPC: 2.06605 cumulative IPC: 1.97248 (Simulation time: 0 hr 29 min 58 sec) 
Heartbeat CPU 0 instructions: 43000000 cycles: 21770692 heartbeat IPC: 2.09317 cumulative IPC: 1.97513 (Simulation time: 0 hr 30 min 40 sec) 
Heartbeat CPU 0 instructions: 44000000 cycles: 22302400 heartbeat IPC: 1.88073 cumulative IPC: 1.97288 (Simulation time: 0 hr 31 min 23 sec) 
Heartbeat CPU 0 instructions: 45000001 cycles: 22796215 heartbeat IPC: 2.02505 cumulative IPC: 1.97401 (Simulation time: 0 hr 32 min 3 sec) 
Heartbeat CPU 0 instructions: 46000001 cycles: 23276390 heartbeat IPC: 2.08257 cumulative IPC: 1.97625 (Simulation time: 0 hr 32 min 38 sec) 
Heartbeat CPU 0 instructions: 47000002 cycles: 23790234 heartbeat IPC: 1.94612 cumulative IPC: 1.9756 (Simulation time: 0 hr 33 min 18 sec) 
Heartbeat CPU 0 instructions: 48000000 cycles: 24311993 heartbeat IPC: 1.91659 cumulative IPC: 1.97433 (Simulation time: 0 hr 33 min 58 sec) 
Heartbeat CPU 0 instructions: 49000000 cycles: 24795329 heartbeat IPC: 2.06895 cumulative IPC: 1.97618 (Simulation time: 0 hr 34 min 36 sec) 
Heartbeat CPU 0 instructions: 50000000 cycles: 25286645 heartbeat IPC: 2.03535 cumulative IPC: 1.97733 (Simulation time: 0 hr 35 min 16 sec) 

Warmup complete CPU 0 instructions: 50000004 cycles: 25286646 (Simulation time: 0 hr 35 min 16 sec) 

Heartbeat CPU 0 instructions: 51000001 cycles: 39586654 heartbeat IPC: 0.0699301 cumulative IPC: 0.0699298 (Simulation time: 0 hr 36 min 35 sec) 
Heartbeat CPU 0 instructions: 52000000 cycles: 44205816 heartbeat IPC: 0.216489 cumulative IPC: 0.105713 (Simulation time: 0 hr 37 min 21 sec) 
Heartbeat CPU 0 instructions: 53000000 cycles: 48448254 heartbeat IPC: 0.235714 cumulative IPC: 0.129525 (Simulation time: 0 hr 38 min 8 sec) 
Heartbeat CPU 0 instructions: 54000002 cycles: 63967630 heartbeat IPC: 0.0644357 cumulative IPC: 0.10341 (Simulation time: 0 hr 39 min 28 sec) 
Heartbeat CPU 0 instructions: 55000002 cycles: 69320521 heartbeat IPC: 0.186815 cumulative IPC: 0.113549 (Simulation time: 0 hr 40 min 21 sec) 
Heartbeat CPU 0 instructions: 56000000 cycles: 73683506 heartbeat IPC: 0.2292 cumulative IPC: 0.123975 (Simulation time: 0 hr 41 min 10 sec) 
Heartbeat CPU 0 instructions: 57000000 cycles: 86933005 heartbeat IPC: 0.0754746 cumulative IPC: 0.113551 (Simulation time: 0 hr 42 min 25 sec) 
Heartbeat CPU 0 instructions: 58000000 cycles: 94442062 heartbeat IPC: 0.133173 cumulative IPC: 0.115681 (Simulation time: 0 hr 43 min 27 sec) 
Heartbeat CPU 0 instructions: 59000002 cycles: 98949945 heartbeat IPC: 0.221834 cumulative IPC: 0.122178 (Simulation time: 0 hr 44 min 21 sec) 
Heartbeat CPU 0 instructions: 60000000 cycles: 110418168 heartbeat IPC: 0.0871973 cumulative IPC: 0.117465 (Simulation time: 0 hr 45 min 40 sec) 
Heartbeat CPU 0 instructions: 61000002 cycles: 119643971 heartbeat IPC: 0.108392 cumulative IPC: 0.116578 (Simulation time: 0 hr 46 min 59 sec) 
Heartbeat CPU 0 instructions: 62000001 cycles: 123877603 heartbeat IPC: 0.236204 cumulative IPC: 0.121715 (Simulation time: 0 hr 47 min 55 sec) 
Heartbeat CPU 0 instructions: 63000001 cycles: 133947836 heartbeat IPC: 0.0993026 cumulative IPC: 0.119638 (Simulation time: 0 hr 49 min 9 sec) 
Heartbeat CPU 0 instructions: 64000000 cycles: 145057027 heartbeat IPC: 0.0900155 cumulative IPC: 0.11689 (Simulation time: 0 hr 50 min 28 sec) 
Heartbeat CPU 0 instructions: 65000002 cycles: 150334420 heartbeat IPC: 0.189488 cumulative IPC: 0.119954 (Simulation time: 0 hr 51 min 27 sec) 
Heartbeat CPU 0 instructions: 66000000 cycles: 156852872 heartbeat IPC: 0.15341 cumulative IPC: 0.121612 (Simulation time: 0 hr 52 min 27 sec) 
Heartbeat CPU 0 instructions: 67000002 cycles: 172470370 heartbeat IPC: 0.0640309 cumulative IPC: 0.115502 (Simulation time: 0 hr 54 min 5 sec) 
Heartbeat CPU 0 instructions: 68000000 cycles: 177075623 heartbeat IPC: 0.217143 cumulative IPC: 0.118586 (Simulation time: 0 hr 55 min 2 sec) 
Heartbeat CPU 0 instructions: 69000000 cycles: 181171442 heartbeat IPC: 0.244151 cumulative IPC: 0.121885 (Simulation time: 0 hr 55 min 56 sec) 
Heartbeat CPU 0 instructions: 70000001 cycles: 195308479 heartbeat IPC: 0.0707363 cumulative IPC: 0.117632 (Simulation time: 0 hr 57 min 11 sec) 
Heartbeat CPU 0 instructions: 71000002 cycles: 204162110 heartbeat IPC: 0.112948 cumulative IPC: 0.1174 (Simulation time: 0 hr 58 min 10 sec) 
Heartbeat CPU 0 instructions: 72000000 cycles: 209096166 heartbeat IPC: 0.202673 cumulative IPC: 0.119689 (Simulation time: 0 hr 58 min 59 sec) 
Heartbeat CPU 0 instructions: 73000002 cycles: 218176373 heartbeat IPC: 0.11013 cumulative IPC: 0.119239 (Simulation time: 0 hr 59 min 59 sec) 
Heartbeat CPU 0 instructions: 74000001 cycles: 229868854 heartbeat IPC: 0.085525 cumulative IPC: 0.117312 (Simulation time: 1 hr 1 min 13 sec) 
Heartbeat CPU 0 instructions: 75000002 cycles: 234506246 heartbeat IPC: 0.215639 cumulative IPC: 0.119492 (Simulation time: 1 hr 2 min 0 sec) 
Heartbeat CPU 0 instructions: 76000000 cycles: 240575543 heartbeat IPC: 0.164763 cumulative IPC: 0.120768 (Simulation time: 1 hr 3 min 8 sec) 
Heartbeat CPU 0 instructions: 77000001 cycles: 256688731 heartbeat IPC: 0.062061 cumulative IPC: 0.11668 (Simulation time: 1 hr 4 min 33 sec) 
Heartbeat CPU 0 instructions: 78000002 cycles: 261657634 heartbeat IPC: 0.201252 cumulative IPC: 0.118458 (Simulation time: 1 hr 5 min 30 sec) 
Heartbeat CPU 0 instructions: 79000001 cycles: 266077856 heartbeat IPC: 0.226233 cumulative IPC: 0.120436 (Simulation time: 1 hr 6 min 23 sec) 
Heartbeat CPU 0 instructions: 80000000 cycles: 279054959 heartbeat IPC: 0.0770587 cumulative IPC: 0.118218 (Simulation time: 1 hr 7 min 46 sec) 
Heartbeat CPU 0 instructions: 81000000 cycles: 286471490 heartbeat IPC: 0.134834 cumulative IPC: 0.11869 (Simulation time: 1 hr 8 min 46 sec) 
Heartbeat CPU 0 instructions: 82000000 cycles: 291326468 heartbeat IPC: 0.205974 cumulative IPC: 0.120283 (Simulation time: 1 hr 9 min 37 sec) 
Heartbeat CPU 0 instructions: 83000001 cycles: 301139994 heartbeat IPC: 0.1019 cumulative IPC: 0.119629 (Simulation time: 1 hr 10 min 42 sec) 
Heartbeat CPU 0 instructions: 84000000 cycles: 312260138 heartbeat IPC: 0.0899268 cumulative IPC: 0.118478 (Simulation time: 1 hr 11 min 53 sec) 
Heartbeat CPU 0 instructions: 85000001 cycles: 316582508 heartbeat IPC: 0.231355 cumulative IPC: 0.120153 (Simulation time: 1 hr 12 min 38 sec) 
Heartbeat CPU 0 instructions: 86000000 cycles: 324767861 heartbeat IPC: 0.122169 cumulative IPC: 0.120208 (Simulation time: 1 hr 13 min 30 sec) 
Heartbeat CPU 0 instructions: 87000000 cycles: 339109956 heartbeat IPC: 0.0697248 cumulative IPC: 0.117901 (Simulation time: 1 hr 14 min 44 sec) 
Heartbeat CPU 0 instructions: 88000000 cycles: 345298792 heartbeat IPC: 0.161581 cumulative IPC: 0.118745 (Simulation time: 1 hr 15 min 33 sec) 
Heartbeat CPU 0 instructions: 89000000 cycles: 349521971 heartbeat IPC: 0.236788 cumulative IPC: 0.120283 (Simulation time: 1 hr 16 min 13 sec) 
Heartbeat CPU 0 instructions: 90000003 cycles: 361143584 heartbeat IPC: 0.0860468 cumulative IPC: 0.119098 (Simulation time: 1 hr 17 min 6 sec) 
Heartbeat CPU 0 instructions: 91000000 cycles: 369777195 heartbeat IPC: 0.115826 cumulative IPC: 0.119016 (Simulation time: 1 hr 17 min 52 sec) 
Heartbeat CPU 0 instructions: 92000000 cycles: 374079863 heartbeat IPC: 0.232414 cumulative IPC: 0.120415 (Simulation time: 1 hr 18 min 32 sec) 
Heartbeat CPU 0 instructions: 93000002 cycles: 383133850 heartbeat IPC: 0.110449 cumulative IPC: 0.120163 (Simulation time: 1 hr 19 min 13 sec) 
Heartbeat CPU 0 instructions: 94000002 cycles: 394528846 heartbeat IPC: 0.0877578 cumulative IPC: 0.119163 (Simulation time: 1 hr 19 min 59 sec) 
Heartbeat CPU 0 instructions: 95000000 cycles: 400291490 heartbeat IPC: 0.173531 cumulative IPC: 0.119998 (Simulation time: 1 hr 20 min 38 sec) 
Heartbeat CPU 0 instructions: 96000000 cycles: 405914783 heartbeat IPC: 0.177832 cumulative IPC: 0.120853 (Simulation time: 1 hr 21 min 10 sec) 
Heartbeat CPU 0 instructions: 97000000 cycles: 420912214 heartbeat IPC: 0.0666781 cumulative IPC: 0.118799 (Simulation time: 1 hr 21 min 53 sec) 
Heartbeat CPU 0 instructions: 98000002 cycles: 425724150 heartbeat IPC: 0.207817 cumulative IPC: 0.119869 (Simulation time: 1 hr 22 min 23 sec) 
Heartbeat CPU 0 instructions: 99000002 cycles: 430595618 heartbeat IPC: 0.205277 cumulative IPC: 0.120895 (Simulation time: 1 hr 22 min 51 sec) 
Heartbeat CPU 0 instructions: 100000000 cycles: 444487975 heartbeat IPC: 0.0719819 cumulative IPC: 0.119274 (Simulation time: 1 hr 23 min 30 sec) 
Heartbeat CPU 0 instructions: 101000000 cycles: 451315116 heartbeat IPC: 0.146474 cumulative IPC: 0.11971 (Simulation time: 1 hr 24 min 0 sec) 
Heartbeat CPU 0 instructions: 102000003 cycles: 455575206 heartbeat IPC: 0.234738 cumulative IPC: 0.120849 (Simulation time: 1 hr 24 min 24 sec) 
Heartbeat CPU 0 instructions: 103000003 cycles: 467466170 heartbeat IPC: 0.0840975 cumulative IPC: 0.119861 (Simulation time: 1 hr 24 min 58 sec) 
Heartbeat CPU 0 instructions: 104000000 cycles: 478868896 heartbeat IPC: 0.0876981 cumulative IPC: 0.119052 (Simulation time: 1 hr 25 min 31 sec) 
Heartbeat CPU 0 instructions: 105000000 cycles: 483653156 heartbeat IPC: 0.209019 cumulative IPC: 0.119991 (Simulation time: 1 hr 25 min 54 sec) 
Heartbeat CPU 0 instructions: 106000000 cycles: 487834593 heartbeat IPC: 0.239152 cumulative IPC: 0.121069 (Simulation time: 1 hr 26 min 16 sec) 
Heartbeat CPU 0 instructions: 107000002 cycles: 502923485 heartbeat IPC: 0.0662741 cumulative IPC: 0.119338 (Simulation time: 1 hr 26 min 48 sec) 
Heartbeat CPU 0 instructions: 108000000 cycles: 508323563 heartbeat IPC: 0.185182 cumulative IPC: 0.120074 (Simulation time: 1 hr 27 min 9 sec) 
Heartbeat CPU 0 instructions: 109000001 cycles: 512697536 heartbeat IPC: 0.228625 cumulative IPC: 0.121048 (Simulation time: 1 hr 27 min 28 sec) 
Heartbeat CPU 0 instructions: 110000002 cycles: 522485236 heartbeat IPC: 0.102169 cumulative IPC: 0.120676 (Simulation time: 1 hr 27 min 53 sec) 
Heartbeat CPU 0 instructions: 111000003 cycles: 533289326 heartbeat IPC: 0.0925576 cumulative IPC: 0.120078 (Simulation time: 1 hr 28 min 19 sec) 
Heartbeat CPU 0 instructions: 112000000 cycles: 537381223 heartbeat IPC: 0.244385 cumulative IPC: 0.121071 (Simulation time: 1 hr 28 min 38 sec) 
Heartbeat CPU 0 instructions: 113000000 cycles: 544734634 heartbeat IPC: 0.135991 cumulative IPC: 0.121283 (Simulation time: 1 hr 28 min 59 sec) 
Heartbeat CPU 0 instructions: 114000000 cycles: 558231508 heartbeat IPC: 0.0740912 cumulative IPC: 0.120087 (Simulation time: 1 hr 29 min 24 sec) 
Heartbeat CPU 0 instructions: 115000001 cycles: 565814957 heartbeat IPC: 0.131866 cumulative IPC: 0.120253 (Simulation time: 1 hr 29 min 43 sec) 
Heartbeat CPU 0 instructions: 116000000 cycles: 569886153 heartbeat IPC: 0.245628 cumulative IPC: 0.12119 (Simulation time: 1 hr 29 min 56 sec) 
Heartbeat CPU 0 instructions: 117000000 cycles: 580238023 heartbeat IPC: 0.0966009 cumulative IPC: 0.120731 (Simulation time: 1 hr 30 min 14 sec) 
Heartbeat CPU 0 instructions: 118000000 cycles: 590390125 heartbeat IPC: 0.0985018 cumulative IPC: 0.120332 (Simulation time: 1 hr 30 min 27 sec) 
Heartbeat CPU 0 instructions: 119000000 cycles: 594607111 heartbeat IPC: 0.237136 cumulative IPC: 0.121197 (Simulation time: 1 hr 30 min 37 sec) 
Heartbeat CPU 0 instructions: 120000000 cycles: 601195433 heartbeat IPC: 0.151784 cumulative IPC: 0.121547 (Simulation time: 1 hr 30 min 46 sec) 
Heartbeat CPU 0 instructions: 121000000 cycles: 614845233 heartbeat IPC: 0.0732611 cumulative IPC: 0.120429 (Simulation time: 1 hr 31 min 0 sec) 
Heartbeat CPU 0 instructions: 122000001 cycles: 619066097 heartbeat IPC: 0.236919 cumulative IPC: 0.121257 (Simulation time: 1 hr 31 min 7 sec) 
Heartbeat CPU 0 instructions: 123000000 cycles: 623294533 heartbeat IPC: 0.236494 cumulative IPC: 0.122072 (Simulation time: 1 hr 31 min 14 sec) 
Heartbeat CPU 0 instructions: 124000000 cycles: 638060558 heartbeat IPC: 0.067723 cumulative IPC: 0.120762 (Simulation time: 1 hr 31 min 24 sec) 
Heartbeat CPU 0 instructions: 125000000 cycles: 643956336 heartbeat IPC: 0.169613 cumulative IPC: 0.121228 (Simulation time: 1 hr 31 min 29 sec) 
Heartbeat CPU 0 instructions: 126000000 cycles: 648121525 heartbeat IPC: 0.240085 cumulative IPC: 0.122023 (Simulation time: 1 hr 31 min 35 sec) 
Heartbeat CPU 0 instructions: 127000002 cycles: 660330372 heartbeat IPC: 0.081908 cumulative IPC: 0.121251 (Simulation time: 1 hr 31 min 43 sec) 
Heartbeat CPU 0 instructions: 128000000 cycles: 668946611 heartbeat IPC: 0.11606 cumulative IPC: 0.121182 (Simulation time: 1 hr 31 min 50 sec) 
Heartbeat CPU 0 instructions: 129000000 cycles: 673078796 heartbeat IPC: 0.242003 cumulative IPC: 0.121953 (Simulation time: 1 hr 31 min 56 sec) 
Heartbeat CPU 0 instructions: 130000000 cycles: 681940045 heartbeat IPC: 0.112851 cumulative IPC: 0.12183 (Simulation time: 1 hr 32 min 4 sec) 
Heartbeat CPU 0 instructions: 131000000 cycles: 694402019 heartbeat IPC: 0.0802441 cumulative IPC: 0.121055 (Simulation time: 1 hr 32 min 12 sec) 
Heartbeat CPU 0 instructions: 132000000 cycles: 699391066 heartbeat IPC: 0.200439 cumulative IPC: 0.121643 (Simulation time: 1 hr 32 min 18 sec) 
Heartbeat CPU 0 instructions: 133000002 cycles: 704186774 heartbeat IPC: 0.20852 cumulative IPC: 0.122257 (Simulation time: 1 hr 32 min 24 sec) 
Heartbeat CPU 0 instructions: 134000001 cycles: 719257824 heartbeat IPC: 0.0663523 cumulative IPC: 0.121042 (Simulation time: 1 hr 32 min 33 sec) 
Heartbeat CPU 0 instructions: 135000001 cycles: 723904137 heartbeat IPC: 0.215224 cumulative IPC: 0.121669 (Simulation time: 1 hr 32 min 39 sec) 
Heartbeat CPU 0 instructions: 136000000 cycles: 732134441 heartbeat IPC: 0.121502 cumulative IPC: 0.121667 (Simulation time: 1 hr 32 min 46 sec) 
Heartbeat CPU 0 instructions: 137000000 cycles: 742311672 heartbeat IPC: 0.0982586 cumulative IPC: 0.121335 (Simulation time: 1 hr 32 min 55 sec) 
Heartbeat CPU 0 instructions: 138000001 cycles: 752967702 heartbeat IPC: 0.0938437 cumulative IPC: 0.120932 (Simulation time: 1 hr 33 min 3 sec) 
Heartbeat CPU 0 instructions: 139000002 cycles: 757214889 heartbeat IPC: 0.23545 cumulative IPC: 0.121597 (Simulation time: 1 hr 33 min 8 sec) 
Heartbeat CPU 0 instructions: 140000000 cycles: 763399050 heartbeat IPC: 0.161703 cumulative IPC: 0.121933 (Simulation time: 1 hr 33 min 14 sec) 
Heartbeat CPU 0 instructions: 141000002 cycles: 777296419 heartbeat IPC: 0.0719562 cumulative IPC: 0.121009 (Simulation time: 1 hr 33 min 23 sec) 
Heartbeat CPU 0 instructions: 142000002 cycles: 781497072 heartbeat IPC: 0.238058 cumulative IPC: 0.121659 (Simulation time: 1 hr 33 min 29 sec) 
Heartbeat CPU 0 instructions: 143000002 cycles: 785466301 heartbeat IPC: 0.251938 cumulative IPC: 0.12234 (Simulation time: 1 hr 33 min 35 sec) 
Heartbeat CPU 0 instructions: 144000000 cycles: 800514346 heartbeat IPC: 0.0664537 cumulative IPC: 0.121255 (Simulation time: 1 hr 33 min 46 sec) 
Heartbeat CPU 0 instructions: 145000001 cycles: 805936142 heartbeat IPC: 0.184441 cumulative IPC: 0.121694 (Simulation time: 1 hr 33 min 52 sec) 
Heartbeat CPU 0 instructions: 146000001 cycles: 810078377 heartbeat IPC: 0.241416 cumulative IPC: 0.122325 (Simulation time: 1 hr 33 min 58 sec) 
Heartbeat CPU 0 instructions: 147000000 cycles: 823024105 heartbeat IPC: 0.0772455 cumulative IPC: 0.121594 (Simulation time: 1 hr 34 min 7 sec) 
Heartbeat CPU 0 instructions: 148000000 cycles: 830388761 heartbeat IPC: 0.135784 cumulative IPC: 0.121724 (Simulation time: 1 hr 34 min 15 sec) 
Heartbeat CPU 0 instructions: 149000000 cycles: 834614959 heartbeat IPC: 0.236619 cumulative IPC: 0.122324 (Simulation time: 1 hr 34 min 21 sec) 
Heartbeat CPU 0 instructions: 150000000 cycles: 845390466 heartbeat IPC: 0.0928031 cumulative IPC: 0.121936 (Simulation time: 1 hr 34 min 29 sec) 
Finished CPU 0 instructions: 100000000 cycles: 820103987 cummulative IPC: 0.121936 (Simulation time: 1 hr 34 min 29 sec) 

ChampSim completed all CPUs

Region of Interest Statistics

CPU 0 cummulative IPC: 0.121936 instructions: 100000000 cycles: 820103987
LLC TOTAL     ACCESS:   18838412  HIT:    8394358  MISS:   10444054
LLC LOAD      ACCESS:    8518561  HIT:    4369787  MISS:    4148774
LLC RFO       ACCESS:     210577  HIT:      70583  MISS:     139994
LLC PREFETCH  ACCESS:    8013867  HIT:    2642315  MISS:    5371552
LLC WRITEBACK ACCESS:    2095407  HIT:    1311673  MISS:     783734
OPTgen accesses: 201700
OPTgen hits: 140250
OPTgen hit rate: 69.534


