
*** ChampSim Multicore Out-of-Order Simulator ***

Warmup Instructions: 50000000
Simulation Instructions: 100000000
Configuration: 2
Number of CPUs: 1
LLC sets: 2048
LLC ways: 16
Off-chip DRAM Channels: 1 Width: 64-bit Data Rate: 1600 MT/s

CPU 0 runs /datasets/cs240c-wi22-a00-public/data/Assignment2-gz/omnetpp_4B.trace.gz
CPU 0 L1D next line prefetcher
CPU 0 L2C IP-based stride prefetcher
Initialize Hawkeye state
Heartbeat CPU 0 instructions: 1000001 cycles: 566981 heartbeat IPC: 1.76373 cumulative IPC: 1.76373 (Simulation time: 0 hr 0 min 34 sec) 
Heartbeat CPU 0 instructions: 2000001 cycles: 1135674 heartbeat IPC: 1.75842 cumulative IPC: 1.76107 (Simulation time: 0 hr 1 min 8 sec) 
Heartbeat CPU 0 instructions: 3000001 cycles: 1722678 heartbeat IPC: 1.70357 cumulative IPC: 1.74148 (Simulation time: 0 hr 1 min 38 sec) 
Heartbeat CPU 0 instructions: 4000000 cycles: 2292030 heartbeat IPC: 1.75638 cumulative IPC: 1.74518 (Simulation time: 0 hr 2 min 12 sec) 
Heartbeat CPU 0 instructions: 5000000 cycles: 2866263 heartbeat IPC: 1.74145 cumulative IPC: 1.74443 (Simulation time: 0 hr 2 min 44 sec) 
Heartbeat CPU 0 instructions: 6000000 cycles: 3442501 heartbeat IPC: 1.73539 cumulative IPC: 1.74292 (Simulation time: 0 hr 3 min 14 sec) 
Heartbeat CPU 0 instructions: 7000000 cycles: 4011836 heartbeat IPC: 1.75644 cumulative IPC: 1.74484 (Simulation time: 0 hr 3 min 43 sec) 
Heartbeat CPU 0 instructions: 8000000 cycles: 4565386 heartbeat IPC: 1.80652 cumulative IPC: 1.75232 (Simulation time: 0 hr 4 min 15 sec) 
Heartbeat CPU 0 instructions: 9000001 cycles: 5147553 heartbeat IPC: 1.71772 cumulative IPC: 1.7484 (Simulation time: 0 hr 4 min 48 sec) 
Heartbeat CPU 0 instructions: 10000000 cycles: 5701611 heartbeat IPC: 1.80486 cumulative IPC: 1.75389 (Simulation time: 0 hr 5 min 18 sec) 
Heartbeat CPU 0 instructions: 11000000 cycles: 6288830 heartbeat IPC: 1.70294 cumulative IPC: 1.74913 (Simulation time: 0 hr 5 min 51 sec) 
Heartbeat CPU 0 instructions: 12000000 cycles: 6939912 heartbeat IPC: 1.5359 cumulative IPC: 1.72913 (Simulation time: 0 hr 6 min 19 sec) 
Heartbeat CPU 0 instructions: 13000002 cycles: 7587098 heartbeat IPC: 1.54515 cumulative IPC: 1.71344 (Simulation time: 0 hr 6 min 48 sec) 
Heartbeat CPU 0 instructions: 14000000 cycles: 8237599 heartbeat IPC: 1.53727 cumulative IPC: 1.69952 (Simulation time: 0 hr 7 min 16 sec) 
Heartbeat CPU 0 instructions: 15000000 cycles: 8891130 heartbeat IPC: 1.53015 cumulative IPC: 1.68707 (Simulation time: 0 hr 7 min 45 sec) 
Heartbeat CPU 0 instructions: 16000000 cycles: 9461596 heartbeat IPC: 1.75295 cumulative IPC: 1.69105 (Simulation time: 0 hr 8 min 17 sec) 
Heartbeat CPU 0 instructions: 17000000 cycles: 10043612 heartbeat IPC: 1.71817 cumulative IPC: 1.69262 (Simulation time: 0 hr 8 min 51 sec) 
Heartbeat CPU 0 instructions: 18000000 cycles: 10615141 heartbeat IPC: 1.74969 cumulative IPC: 1.69569 (Simulation time: 0 hr 9 min 24 sec) 
Heartbeat CPU 0 instructions: 19000002 cycles: 11183936 heartbeat IPC: 1.75811 cumulative IPC: 1.69887 (Simulation time: 0 hr 9 min 56 sec) 
Heartbeat CPU 0 instructions: 20000000 cycles: 11731689 heartbeat IPC: 1.82564 cumulative IPC: 1.70478 (Simulation time: 0 hr 10 min 26 sec) 
Heartbeat CPU 0 instructions: 21000000 cycles: 12279924 heartbeat IPC: 1.82404 cumulative IPC: 1.71011 (Simulation time: 0 hr 10 min 57 sec) 
Heartbeat CPU 0 instructions: 22000001 cycles: 12832892 heartbeat IPC: 1.80842 cumulative IPC: 1.71434 (Simulation time: 0 hr 11 min 30 sec) 
Heartbeat CPU 0 instructions: 23000000 cycles: 13414516 heartbeat IPC: 1.71932 cumulative IPC: 1.71456 (Simulation time: 0 hr 12 min 0 sec) 
Heartbeat CPU 0 instructions: 24000000 cycles: 13984319 heartbeat IPC: 1.75499 cumulative IPC: 1.71621 (Simulation time: 0 hr 12 min 29 sec) 
Heartbeat CPU 0 instructions: 25000000 cycles: 14547204 heartbeat IPC: 1.77656 cumulative IPC: 1.71854 (Simulation time: 0 hr 13 min 0 sec) 
Heartbeat CPU 0 instructions: 26000001 cycles: 15116789 heartbeat IPC: 1.75567 cumulative IPC: 1.71994 (Simulation time: 0 hr 13 min 29 sec) 
Heartbeat CPU 0 instructions: 27000001 cycles: 15683503 heartbeat IPC: 1.76456 cumulative IPC: 1.72155 (Simulation time: 0 hr 14 min 1 sec) 
Heartbeat CPU 0 instructions: 28000000 cycles: 16252743 heartbeat IPC: 1.75673 cumulative IPC: 1.72279 (Simulation time: 0 hr 14 min 33 sec) 
Heartbeat CPU 0 instructions: 29000000 cycles: 16839144 heartbeat IPC: 1.70532 cumulative IPC: 1.72218 (Simulation time: 0 hr 15 min 5 sec) 
Heartbeat CPU 0 instructions: 30000000 cycles: 17409948 heartbeat IPC: 1.75191 cumulative IPC: 1.72315 (Simulation time: 0 hr 15 min 36 sec) 
Heartbeat CPU 0 instructions: 31000000 cycles: 17985561 heartbeat IPC: 1.73728 cumulative IPC: 1.7236 (Simulation time: 0 hr 16 min 6 sec) 
Heartbeat CPU 0 instructions: 32000000 cycles: 18555402 heartbeat IPC: 1.75488 cumulative IPC: 1.72457 (Simulation time: 0 hr 16 min 37 sec) 
Heartbeat CPU 0 instructions: 33000000 cycles: 19114064 heartbeat IPC: 1.78999 cumulative IPC: 1.72648 (Simulation time: 0 hr 17 min 7 sec) 
Heartbeat CPU 0 instructions: 34000001 cycles: 19666723 heartbeat IPC: 1.80944 cumulative IPC: 1.72881 (Simulation time: 0 hr 17 min 37 sec) 
Heartbeat CPU 0 instructions: 35000001 cycles: 20247786 heartbeat IPC: 1.72098 cumulative IPC: 1.72858 (Simulation time: 0 hr 18 min 7 sec) 
Heartbeat CPU 0 instructions: 36000000 cycles: 20803534 heartbeat IPC: 1.79937 cumulative IPC: 1.73048 (Simulation time: 0 hr 18 min 38 sec) 
Heartbeat CPU 0 instructions: 37000001 cycles: 21375791 heartbeat IPC: 1.74747 cumulative IPC: 1.73093 (Simulation time: 0 hr 19 min 7 sec) 
Heartbeat CPU 0 instructions: 38000001 cycles: 21936339 heartbeat IPC: 1.78397 cumulative IPC: 1.73229 (Simulation time: 0 hr 19 min 39 sec) 
Heartbeat CPU 0 instructions: 39000001 cycles: 22549208 heartbeat IPC: 1.63167 cumulative IPC: 1.72955 (Simulation time: 0 hr 20 min 9 sec) 
Heartbeat CPU 0 instructions: 40000000 cycles: 23198213 heartbeat IPC: 1.54082 cumulative IPC: 1.72427 (Simulation time: 0 hr 20 min 34 sec) 
Heartbeat CPU 0 instructions: 41000001 cycles: 23847169 heartbeat IPC: 1.54094 cumulative IPC: 1.71928 (Simulation time: 0 hr 21 min 1 sec) 
Heartbeat CPU 0 instructions: 42000001 cycles: 24494093 heartbeat IPC: 1.54578 cumulative IPC: 1.7147 (Simulation time: 0 hr 21 min 32 sec) 
Heartbeat CPU 0 instructions: 43000000 cycles: 25162757 heartbeat IPC: 1.49552 cumulative IPC: 1.70887 (Simulation time: 0 hr 21 min 59 sec) 
Heartbeat CPU 0 instructions: 44000000 cycles: 25726587 heartbeat IPC: 1.77358 cumulative IPC: 1.71029 (Simulation time: 0 hr 22 min 32 sec) 
Heartbeat CPU 0 instructions: 45000000 cycles: 26290355 heartbeat IPC: 1.77378 cumulative IPC: 1.71165 (Simulation time: 0 hr 23 min 3 sec) 
Heartbeat CPU 0 instructions: 46000000 cycles: 26836598 heartbeat IPC: 1.83069 cumulative IPC: 1.71408 (Simulation time: 0 hr 23 min 32 sec) 
Heartbeat CPU 0 instructions: 47000000 cycles: 27382805 heartbeat IPC: 1.83081 cumulative IPC: 1.71641 (Simulation time: 0 hr 24 min 5 sec) 
Heartbeat CPU 0 instructions: 48000000 cycles: 27934352 heartbeat IPC: 1.81308 cumulative IPC: 1.71831 (Simulation time: 0 hr 24 min 34 sec) 
Heartbeat CPU 0 instructions: 49000002 cycles: 28515266 heartbeat IPC: 1.72143 cumulative IPC: 1.71838 (Simulation time: 0 hr 25 min 3 sec) 
Heartbeat CPU 0 instructions: 50000000 cycles: 29085303 heartbeat IPC: 1.75427 cumulative IPC: 1.71908 (Simulation time: 0 hr 25 min 31 sec) 

Warmup complete CPU 0 instructions: 50000002 cycles: 29085304 (Simulation time: 0 hr 25 min 31 sec) 

Heartbeat CPU 0 instructions: 51000003 cycles: 31984389 heartbeat IPC: 0.344937 cumulative IPC: 0.344937 (Simulation time: 0 hr 26 min 3 sec) 
Heartbeat CPU 0 instructions: 52000000 cycles: 34868819 heartbeat IPC: 0.346688 cumulative IPC: 0.34581 (Simulation time: 0 hr 26 min 36 sec) 
Heartbeat CPU 0 instructions: 53000003 cycles: 37774689 heartbeat IPC: 0.344132 cumulative IPC: 0.345249 (Simulation time: 0 hr 27 min 14 sec) 
Heartbeat CPU 0 instructions: 54000001 cycles: 40646618 heartbeat IPC: 0.348197 cumulative IPC: 0.345981 (Simulation time: 0 hr 27 min 47 sec) 
Heartbeat CPU 0 instructions: 55000001 cycles: 43659608 heartbeat IPC: 0.331896 cumulative IPC: 0.343069 (Simulation time: 0 hr 28 min 20 sec) 
Heartbeat CPU 0 instructions: 56000000 cycles: 46531555 heartbeat IPC: 0.348195 cumulative IPC: 0.343913 (Simulation time: 0 hr 28 min 52 sec) 
Heartbeat CPU 0 instructions: 57000003 cycles: 49383081 heartbeat IPC: 0.35069 cumulative IPC: 0.344865 (Simulation time: 0 hr 29 min 25 sec) 
Heartbeat CPU 0 instructions: 58000001 cycles: 52472212 heartbeat IPC: 0.323715 cumulative IPC: 0.342072 (Simulation time: 0 hr 30 min 2 sec) 
Heartbeat CPU 0 instructions: 59000001 cycles: 55886205 heartbeat IPC: 0.292912 cumulative IPC: 0.33581 (Simulation time: 0 hr 30 min 40 sec) 
Heartbeat CPU 0 instructions: 60000000 cycles: 58974904 heartbeat IPC: 0.323761 cumulative IPC: 0.334564 (Simulation time: 0 hr 31 min 17 sec) 
Heartbeat CPU 0 instructions: 61000001 cycles: 62103463 heartbeat IPC: 0.319636 cumulative IPC: 0.33315 (Simulation time: 0 hr 31 min 52 sec) 
Heartbeat CPU 0 instructions: 62000000 cycles: 65545769 heartbeat IPC: 0.290503 cumulative IPC: 0.329124 (Simulation time: 0 hr 32 min 29 sec) 
Heartbeat CPU 0 instructions: 63000001 cycles: 68471399 heartbeat IPC: 0.341807 cumulative IPC: 0.330066 (Simulation time: 0 hr 32 min 59 sec) 
Heartbeat CPU 0 instructions: 64000000 cycles: 71377090 heartbeat IPC: 0.344152 cumulative IPC: 0.331033 (Simulation time: 0 hr 33 min 33 sec) 
Heartbeat CPU 0 instructions: 65000001 cycles: 74270289 heartbeat IPC: 0.345639 cumulative IPC: 0.331969 (Simulation time: 0 hr 34 min 11 sec) 
Heartbeat CPU 0 instructions: 66000002 cycles: 78569610 heartbeat IPC: 0.232595 cumulative IPC: 0.323335 (Simulation time: 0 hr 34 min 56 sec) 
Heartbeat CPU 0 instructions: 67000001 cycles: 80242657 heartbeat IPC: 0.597711 cumulative IPC: 0.332308 (Simulation time: 0 hr 35 min 24 sec) 
Heartbeat CPU 0 instructions: 68000000 cycles: 81366459 heartbeat IPC: 0.889836 cumulative IPC: 0.344292 (Simulation time: 0 hr 35 min 52 sec) 
Heartbeat CPU 0 instructions: 69000003 cycles: 82508513 heartbeat IPC: 0.875618 cumulative IPC: 0.355651 (Simulation time: 0 hr 36 min 18 sec) 
Heartbeat CPU 0 instructions: 70000000 cycles: 83628758 heartbeat IPC: 0.892659 cumulative IPC: 0.36668 (Simulation time: 0 hr 36 min 43 sec) 
Heartbeat CPU 0 instructions: 71000001 cycles: 84801489 heartbeat IPC: 0.852711 cumulative IPC: 0.37691 (Simulation time: 0 hr 37 min 7 sec) 
Heartbeat CPU 0 instructions: 72000000 cycles: 88224912 heartbeat IPC: 0.292105 cumulative IPC: 0.372001 (Simulation time: 0 hr 37 min 44 sec) 
Heartbeat CPU 0 instructions: 73000000 cycles: 91747249 heartbeat IPC: 0.283902 cumulative IPC: 0.367049 (Simulation time: 0 hr 38 min 22 sec) 
Heartbeat CPU 0 instructions: 74000001 cycles: 95216377 heartbeat IPC: 0.288257 cumulative IPC: 0.362916 (Simulation time: 0 hr 39 min 0 sec) 
Heartbeat CPU 0 instructions: 75000001 cycles: 98190024 heartbeat IPC: 0.336287 cumulative IPC: 0.36177 (Simulation time: 0 hr 39 min 34 sec) 
Heartbeat CPU 0 instructions: 76000000 cycles: 101068539 heartbeat IPC: 0.347401 cumulative IPC: 0.361195 (Simulation time: 0 hr 40 min 8 sec) 
Heartbeat CPU 0 instructions: 77000000 cycles: 103978105 heartbeat IPC: 0.343694 cumulative IPC: 0.360515 (Simulation time: 0 hr 40 min 41 sec) 
Heartbeat CPU 0 instructions: 78000001 cycles: 106887451 heartbeat IPC: 0.34372 cumulative IPC: 0.359887 (Simulation time: 0 hr 41 min 16 sec) 
Heartbeat CPU 0 instructions: 79000001 cycles: 109793948 heartbeat IPC: 0.344057 cumulative IPC: 0.359317 (Simulation time: 0 hr 41 min 51 sec) 
Heartbeat CPU 0 instructions: 80000000 cycles: 112676525 heartbeat IPC: 0.346911 cumulative IPC: 0.358889 (Simulation time: 0 hr 42 min 24 sec) 
Heartbeat CPU 0 instructions: 81000002 cycles: 115629572 heartbeat IPC: 0.338634 cumulative IPC: 0.358198 (Simulation time: 0 hr 42 min 58 sec) 
Heartbeat CPU 0 instructions: 82000001 cycles: 118498167 heartbeat IPC: 0.348602 cumulative IPC: 0.35789 (Simulation time: 0 hr 43 min 37 sec) 
Heartbeat CPU 0 instructions: 83000002 cycles: 121429032 heartbeat IPC: 0.341197 cumulative IPC: 0.35736 (Simulation time: 0 hr 44 min 17 sec) 
Heartbeat CPU 0 instructions: 84000000 cycles: 124392646 heartbeat IPC: 0.337425 cumulative IPC: 0.356741 (Simulation time: 0 hr 44 min 50 sec) 
Heartbeat CPU 0 instructions: 85000002 cycles: 127848225 heartbeat IPC: 0.289388 cumulative IPC: 0.354384 (Simulation time: 0 hr 45 min 33 sec) 
Heartbeat CPU 0 instructions: 86000002 cycles: 131296196 heartbeat IPC: 0.290026 cumulative IPC: 0.352213 (Simulation time: 0 hr 46 min 12 sec) 
Heartbeat CPU 0 instructions: 87000000 cycles: 134400219 heartbeat IPC: 0.322162 cumulative IPC: 0.351327 (Simulation time: 0 hr 46 min 47 sec) 
Heartbeat CPU 0 instructions: 88000000 cycles: 137505289 heartbeat IPC: 0.322054 cumulative IPC: 0.350489 (Simulation time: 0 hr 47 min 25 sec) 
Heartbeat CPU 0 instructions: 89000002 cycles: 140692565 heartbeat IPC: 0.313748 cumulative IPC: 0.34944 (Simulation time: 0 hr 48 min 2 sec) 
Heartbeat CPU 0 instructions: 90000001 cycles: 143540942 heartbeat IPC: 0.351077 cumulative IPC: 0.34948 (Simulation time: 0 hr 48 min 40 sec) 
Heartbeat CPU 0 instructions: 91000001 cycles: 146415571 heartbeat IPC: 0.347871 cumulative IPC: 0.349441 (Simulation time: 0 hr 49 min 17 sec) 
Heartbeat CPU 0 instructions: 92000000 cycles: 149383376 heartbeat IPC: 0.336949 cumulative IPC: 0.349133 (Simulation time: 0 hr 49 min 57 sec) 
Heartbeat CPU 0 instructions: 93000000 cycles: 152274561 heartbeat IPC: 0.345879 cumulative IPC: 0.349056 (Simulation time: 0 hr 50 min 35 sec) 
Heartbeat CPU 0 instructions: 94000000 cycles: 156964054 heartbeat IPC: 0.213243 cumulative IPC: 0.344076 (Simulation time: 0 hr 51 min 21 sec) 
Heartbeat CPU 0 instructions: 95000000 cycles: 158152882 heartbeat IPC: 0.841165 cumulative IPC: 0.348655 (Simulation time: 0 hr 51 min 49 sec) 
Heartbeat CPU 0 instructions: 96000000 cycles: 159295863 heartbeat IPC: 0.874905 cumulative IPC: 0.353274 (Simulation time: 0 hr 52 min 17 sec) 
Heartbeat CPU 0 instructions: 97000002 cycles: 160414566 heartbeat IPC: 0.893894 cumulative IPC: 0.357879 (Simulation time: 0 hr 52 min 47 sec) 
Heartbeat CPU 0 instructions: 98000001 cycles: 161556503 heartbeat IPC: 0.875704 cumulative IPC: 0.362343 (Simulation time: 0 hr 53 min 18 sec) 
Heartbeat CPU 0 instructions: 99000002 cycles: 163464661 heartbeat IPC: 0.524066 cumulative IPC: 0.364639 (Simulation time: 0 hr 53 min 50 sec) 
Heartbeat CPU 0 instructions: 100000000 cycles: 166994573 heartbeat IPC: 0.283293 cumulative IPC: 0.362557 (Simulation time: 0 hr 54 min 32 sec) 
Heartbeat CPU 0 instructions: 101000002 cycles: 170174619 heartbeat IPC: 0.314461 cumulative IPC: 0.361473 (Simulation time: 0 hr 55 min 11 sec) 
Heartbeat CPU 0 instructions: 102000001 cycles: 173268362 heartbeat IPC: 0.323233 cumulative IPC: 0.360653 (Simulation time: 0 hr 55 min 53 sec) 
Heartbeat CPU 0 instructions: 103000000 cycles: 176162434 heartbeat IPC: 0.345534 cumulative IPC: 0.360355 (Simulation time: 0 hr 56 min 29 sec) 
Heartbeat CPU 0 instructions: 104000000 cycles: 179046385 heartbeat IPC: 0.346747 cumulative IPC: 0.360093 (Simulation time: 0 hr 57 min 1 sec) 
Heartbeat CPU 0 instructions: 105000001 cycles: 181902080 heartbeat IPC: 0.350178 cumulative IPC: 0.359908 (Simulation time: 0 hr 57 min 32 sec) 
Heartbeat CPU 0 instructions: 106000000 cycles: 184874217 heartbeat IPC: 0.336458 cumulative IPC: 0.359461 (Simulation time: 0 hr 58 min 6 sec) 
Heartbeat CPU 0 instructions: 107000002 cycles: 187756119 heartbeat IPC: 0.346994 cumulative IPC: 0.359234 (Simulation time: 0 hr 58 min 37 sec) 
Heartbeat CPU 0 instructions: 108000000 cycles: 190648152 heartbeat IPC: 0.345777 cumulative IPC: 0.358993 (Simulation time: 0 hr 59 min 10 sec) 
Heartbeat CPU 0 instructions: 109000002 cycles: 193545798 heartbeat IPC: 0.345108 cumulative IPC: 0.358749 (Simulation time: 0 hr 59 min 44 sec) 
Heartbeat CPU 0 instructions: 110000001 cycles: 196477938 heartbeat IPC: 0.341047 cumulative IPC: 0.358439 (Simulation time: 1 hr 0 min 19 sec) 
Heartbeat CPU 0 instructions: 111000001 cycles: 199541205 heartbeat IPC: 0.326449 cumulative IPC: 0.357864 (Simulation time: 1 hr 0 min 52 sec) 
Heartbeat CPU 0 instructions: 112000000 cycles: 202951584 heartbeat IPC: 0.293222 cumulative IPC: 0.356596 (Simulation time: 1 hr 1 min 26 sec) 
Heartbeat CPU 0 instructions: 113000002 cycles: 206068323 heartbeat IPC: 0.320849 cumulative IPC: 0.355966 (Simulation time: 1 hr 2 min 2 sec) 
Heartbeat CPU 0 instructions: 114000001 cycles: 209446101 heartbeat IPC: 0.296052 cumulative IPC: 0.354844 (Simulation time: 1 hr 2 min 42 sec) 
Heartbeat CPU 0 instructions: 115000001 cycles: 212624693 heartbeat IPC: 0.314605 cumulative IPC: 0.354147 (Simulation time: 1 hr 3 min 15 sec) 
Heartbeat CPU 0 instructions: 116000000 cycles: 215585521 heartbeat IPC: 0.337743 cumulative IPC: 0.353887 (Simulation time: 1 hr 3 min 48 sec) 
Heartbeat CPU 0 instructions: 117000001 cycles: 218492336 heartbeat IPC: 0.344019 cumulative IPC: 0.353736 (Simulation time: 1 hr 4 min 29 sec) 
Heartbeat CPU 0 instructions: 118000000 cycles: 221488812 heartbeat IPC: 0.333725 cumulative IPC: 0.353424 (Simulation time: 1 hr 5 min 7 sec) 
Heartbeat CPU 0 instructions: 119000001 cycles: 224399266 heartbeat IPC: 0.343589 cumulative IPC: 0.353277 (Simulation time: 1 hr 5 min 43 sec) 
Heartbeat CPU 0 instructions: 120000000 cycles: 227324971 heartbeat IPC: 0.341798 cumulative IPC: 0.353108 (Simulation time: 1 hr 6 min 18 sec) 
Heartbeat CPU 0 instructions: 121000003 cycles: 230259339 heartbeat IPC: 0.34079 cumulative IPC: 0.352928 (Simulation time: 1 hr 6 min 54 sec) 
Heartbeat CPU 0 instructions: 122000000 cycles: 234944226 heartbeat IPC: 0.213452 cumulative IPC: 0.349754 (Simulation time: 1 hr 7 min 39 sec) 
Heartbeat CPU 0 instructions: 123000001 cycles: 236109520 heartbeat IPC: 0.858153 cumulative IPC: 0.352616 (Simulation time: 1 hr 8 min 5 sec) 
Heartbeat CPU 0 instructions: 124000000 cycles: 237231496 heartbeat IPC: 0.891284 cumulative IPC: 0.355519 (Simulation time: 1 hr 8 min 28 sec) 
Heartbeat CPU 0 instructions: 125000000 cycles: 238373133 heartbeat IPC: 0.875935 cumulative IPC: 0.358358 (Simulation time: 1 hr 8 min 57 sec) 
Heartbeat CPU 0 instructions: 126000001 cycles: 239599003 heartbeat IPC: 0.815748 cumulative IPC: 0.361022 (Simulation time: 1 hr 9 min 25 sec) 
Heartbeat CPU 0 instructions: 127000000 cycles: 241624925 heartbeat IPC: 0.493602 cumulative IPC: 0.362285 (Simulation time: 1 hr 9 min 57 sec) 
Heartbeat CPU 0 instructions: 128000000 cycles: 245126667 heartbeat IPC: 0.285572 cumulative IPC: 0.361042 (Simulation time: 1 hr 10 min 35 sec) 
Heartbeat CPU 0 instructions: 129000001 cycles: 248329724 heartbeat IPC: 0.312202 cumulative IPC: 0.360328 (Simulation time: 1 hr 11 min 8 sec) 
Heartbeat CPU 0 instructions: 130000000 cycles: 251231699 heartbeat IPC: 0.344593 cumulative IPC: 0.360123 (Simulation time: 1 hr 11 min 39 sec) 
Heartbeat CPU 0 instructions: 131000001 cycles: 254122749 heartbeat IPC: 0.345895 cumulative IPC: 0.35994 (Simulation time: 1 hr 12 min 9 sec) 
Heartbeat CPU 0 instructions: 132000000 cycles: 257071577 heartbeat IPC: 0.339117 cumulative IPC: 0.359671 (Simulation time: 1 hr 12 min 41 sec) 
Heartbeat CPU 0 instructions: 133000000 cycles: 260018554 heartbeat IPC: 0.339331 cumulative IPC: 0.359411 (Simulation time: 1 hr 13 min 15 sec) 
Heartbeat CPU 0 instructions: 134000000 cycles: 262947479 heartbeat IPC: 0.341422 cumulative IPC: 0.359186 (Simulation time: 1 hr 13 min 47 sec) 
Heartbeat CPU 0 instructions: 135000000 cycles: 265857180 heartbeat IPC: 0.343678 cumulative IPC: 0.358995 (Simulation time: 1 hr 14 min 16 sec) 
Heartbeat CPU 0 instructions: 136000000 cycles: 268751574 heartbeat IPC: 0.345495 cumulative IPC: 0.358832 (Simulation time: 1 hr 14 min 44 sec) 
Heartbeat CPU 0 instructions: 137000000 cycles: 271615916 heartbeat IPC: 0.34912 cumulative IPC: 0.358718 (Simulation time: 1 hr 15 min 14 sec) 
Heartbeat CPU 0 instructions: 138000001 cycles: 274937873 heartbeat IPC: 0.301028 cumulative IPC: 0.357938 (Simulation time: 1 hr 15 min 45 sec) 
Heartbeat CPU 0 instructions: 139000000 cycles: 277712878 heartbeat IPC: 0.360359 cumulative IPC: 0.357965 (Simulation time: 1 hr 16 min 14 sec) 
Heartbeat CPU 0 instructions: 140000000 cycles: 281173047 heartbeat IPC: 0.289003 cumulative IPC: 0.357019 (Simulation time: 1 hr 16 min 42 sec) 
Heartbeat CPU 0 instructions: 141000002 cycles: 284633483 heartbeat IPC: 0.288981 cumulative IPC: 0.356097 (Simulation time: 1 hr 17 min 6 sec) 
Heartbeat CPU 0 instructions: 142000001 cycles: 288000031 heartbeat IPC: 0.29704 cumulative IPC: 0.355329 (Simulation time: 1 hr 17 min 32 sec) 
Heartbeat CPU 0 instructions: 143000001 cycles: 290936222 heartbeat IPC: 0.340577 cumulative IPC: 0.355164 (Simulation time: 1 hr 17 min 55 sec) 
Heartbeat CPU 0 instructions: 144000000 cycles: 293919755 heartbeat IPC: 0.335173 cumulative IPC: 0.354939 (Simulation time: 1 hr 18 min 19 sec) 
Heartbeat CPU 0 instructions: 145000001 cycles: 296809637 heartbeat IPC: 0.346035 cumulative IPC: 0.354843 (Simulation time: 1 hr 18 min 42 sec) 
Heartbeat CPU 0 instructions: 146000000 cycles: 299748259 heartbeat IPC: 0.340295 cumulative IPC: 0.354685 (Simulation time: 1 hr 19 min 3 sec) 
Heartbeat CPU 0 instructions: 147000001 cycles: 302694440 heartbeat IPC: 0.339423 cumulative IPC: 0.35452 (Simulation time: 1 hr 19 min 25 sec) 
Heartbeat CPU 0 instructions: 148000000 cycles: 305634324 heartbeat IPC: 0.340149 cumulative IPC: 0.354368 (Simulation time: 1 hr 19 min 46 sec) 
Heartbeat CPU 0 instructions: 149000002 cycles: 308524162 heartbeat IPC: 0.346041 cumulative IPC: 0.354281 (Simulation time: 1 hr 20 min 8 sec) 
Heartbeat CPU 0 instructions: 150000001 cycles: 313191633 heartbeat IPC: 0.214249 cumulative IPC: 0.351981 (Simulation time: 1 hr 20 min 33 sec) 
Finished CPU 0 instructions: 100000000 cycles: 284106332 cummulative IPC: 0.351981 (Simulation time: 1 hr 20 min 33 sec) 

ChampSim completed all CPUs

Region of Interest Statistics

CPU 0 cummulative IPC: 0.351981 instructions: 100000000 cycles: 284106332
LLC TOTAL     ACCESS:    4942073  HIT:    2181882  MISS:    2760191
LLC LOAD      ACCESS:    2311606  HIT:    1810003  MISS:     501603
LLC RFO       ACCESS:      25014  HIT:       7436  MISS:      17578
LLC PREFETCH  ACCESS:    2524151  HIT:     293423  MISS:    2230728
LLC WRITEBACK ACCESS:      81302  HIT:      71020  MISS:      10282
OPTgen accesses: 53260
OPTgen hits: 50525
OPTgen hit rate: 94.8648


