
*** ChampSim Multicore Out-of-Order Simulator ***

Warmup Instructions: 50000000
Simulation Instructions: 100000000
Configuration: 2
Number of CPUs: 1
LLC sets: 2048
LLC ways: 16
Off-chip DRAM Channels: 1 Width: 64-bit Data Rate: 1600 MT/s

CPU 0 runs /datasets/cs240c-wi22-a00-public/data/Assignment2-gz/milc_744B.trace.gz
CPU 0 L1D next line prefetcher
CPU 0 L2C IP-based stride prefetcher
Initialize Hawkeye state
Heartbeat CPU 0 instructions: 1000000 cycles: 383656 heartbeat IPC: 2.6065 cumulative IPC: 2.6065 (Simulation time: 0 hr 0 min 30 sec) 
Heartbeat CPU 0 instructions: 2000001 cycles: 767293 heartbeat IPC: 2.60663 cumulative IPC: 2.60657 (Simulation time: 0 hr 1 min 1 sec) 
Heartbeat CPU 0 instructions: 3000001 cycles: 1150974 heartbeat IPC: 2.60633 cumulative IPC: 2.60649 (Simulation time: 0 hr 1 min 32 sec) 
Heartbeat CPU 0 instructions: 4000000 cycles: 1534617 heartbeat IPC: 2.60659 cumulative IPC: 2.60651 (Simulation time: 0 hr 2 min 2 sec) 
Heartbeat CPU 0 instructions: 5000001 cycles: 1918298 heartbeat IPC: 2.60633 cumulative IPC: 2.60648 (Simulation time: 0 hr 2 min 32 sec) 
Heartbeat CPU 0 instructions: 6000002 cycles: 2301951 heartbeat IPC: 2.60652 cumulative IPC: 2.60649 (Simulation time: 0 hr 3 min 2 sec) 
Heartbeat CPU 0 instructions: 7000002 cycles: 2685605 heartbeat IPC: 2.60652 cumulative IPC: 2.60649 (Simulation time: 0 hr 3 min 31 sec) 
Heartbeat CPU 0 instructions: 8000000 cycles: 3069239 heartbeat IPC: 2.60665 cumulative IPC: 2.60651 (Simulation time: 0 hr 4 min 1 sec) 
Heartbeat CPU 0 instructions: 9000003 cycles: 3452946 heartbeat IPC: 2.60616 cumulative IPC: 2.60647 (Simulation time: 0 hr 4 min 36 sec) 
Heartbeat CPU 0 instructions: 10000002 cycles: 3836611 heartbeat IPC: 2.60644 cumulative IPC: 2.60647 (Simulation time: 0 hr 5 min 10 sec) 
Heartbeat CPU 0 instructions: 11000003 cycles: 4220269 heartbeat IPC: 2.60649 cumulative IPC: 2.60647 (Simulation time: 0 hr 5 min 46 sec) 
Heartbeat CPU 0 instructions: 12000000 cycles: 4603919 heartbeat IPC: 2.60653 cumulative IPC: 2.60648 (Simulation time: 0 hr 6 min 22 sec) 
Heartbeat CPU 0 instructions: 13000002 cycles: 4987595 heartbeat IPC: 2.60637 cumulative IPC: 2.60647 (Simulation time: 0 hr 6 min 53 sec) 
Heartbeat CPU 0 instructions: 14000001 cycles: 5371239 heartbeat IPC: 2.60658 cumulative IPC: 2.60648 (Simulation time: 0 hr 7 min 25 sec) 
Heartbeat CPU 0 instructions: 15000001 cycles: 5754911 heartbeat IPC: 2.60639 cumulative IPC: 2.60647 (Simulation time: 0 hr 7 min 57 sec) 
Heartbeat CPU 0 instructions: 16000000 cycles: 6138558 heartbeat IPC: 2.60656 cumulative IPC: 2.60648 (Simulation time: 0 hr 8 min 28 sec) 
Heartbeat CPU 0 instructions: 17000001 cycles: 6522213 heartbeat IPC: 2.60651 cumulative IPC: 2.60648 (Simulation time: 0 hr 8 min 59 sec) 
Heartbeat CPU 0 instructions: 18000003 cycles: 6905855 heartbeat IPC: 2.6066 cumulative IPC: 2.60648 (Simulation time: 0 hr 9 min 28 sec) 
Heartbeat CPU 0 instructions: 19000002 cycles: 7289496 heartbeat IPC: 2.6066 cumulative IPC: 2.60649 (Simulation time: 0 hr 9 min 57 sec) 
Heartbeat CPU 0 instructions: 20000000 cycles: 7673132 heartbeat IPC: 2.60663 cumulative IPC: 2.6065 (Simulation time: 0 hr 10 min 25 sec) 
Heartbeat CPU 0 instructions: 21000003 cycles: 8056837 heartbeat IPC: 2.60618 cumulative IPC: 2.60648 (Simulation time: 0 hr 10 min 56 sec) 
Heartbeat CPU 0 instructions: 22000002 cycles: 8440504 heartbeat IPC: 2.60642 cumulative IPC: 2.60648 (Simulation time: 0 hr 11 min 25 sec) 
Heartbeat CPU 0 instructions: 23000000 cycles: 8824165 heartbeat IPC: 2.60646 cumulative IPC: 2.60648 (Simulation time: 0 hr 11 min 53 sec) 
Heartbeat CPU 0 instructions: 24000000 cycles: 9207788 heartbeat IPC: 2.60673 cumulative IPC: 2.60649 (Simulation time: 0 hr 12 min 23 sec) 
Heartbeat CPU 0 instructions: 25000002 cycles: 9591463 heartbeat IPC: 2.60638 cumulative IPC: 2.60648 (Simulation time: 0 hr 12 min 56 sec) 
Heartbeat CPU 0 instructions: 26000001 cycles: 9975122 heartbeat IPC: 2.60648 cumulative IPC: 2.60648 (Simulation time: 0 hr 13 min 30 sec) 
Heartbeat CPU 0 instructions: 27000001 cycles: 10358818 heartbeat IPC: 2.60623 cumulative IPC: 2.60648 (Simulation time: 0 hr 14 min 4 sec) 
Heartbeat CPU 0 instructions: 28000000 cycles: 10742467 heartbeat IPC: 2.60655 cumulative IPC: 2.60648 (Simulation time: 0 hr 14 min 35 sec) 
Heartbeat CPU 0 instructions: 29000000 cycles: 11126140 heartbeat IPC: 2.60639 cumulative IPC: 2.60647 (Simulation time: 0 hr 15 min 6 sec) 
Heartbeat CPU 0 instructions: 30000003 cycles: 11509791 heartbeat IPC: 2.60654 cumulative IPC: 2.60648 (Simulation time: 0 hr 15 min 36 sec) 
Heartbeat CPU 0 instructions: 31000002 cycles: 11893424 heartbeat IPC: 2.60666 cumulative IPC: 2.60648 (Simulation time: 0 hr 16 min 6 sec) 
Heartbeat CPU 0 instructions: 32000000 cycles: 12277079 heartbeat IPC: 2.6065 cumulative IPC: 2.60648 (Simulation time: 0 hr 16 min 34 sec) 
Heartbeat CPU 0 instructions: 33000001 cycles: 12660737 heartbeat IPC: 2.60649 cumulative IPC: 2.60648 (Simulation time: 0 hr 17 min 3 sec) 
Heartbeat CPU 0 instructions: 34000002 cycles: 13044413 heartbeat IPC: 2.60637 cumulative IPC: 2.60648 (Simulation time: 0 hr 17 min 32 sec) 
Heartbeat CPU 0 instructions: 35000000 cycles: 13428051 heartbeat IPC: 2.60662 cumulative IPC: 2.60648 (Simulation time: 0 hr 18 min 0 sec) 
Heartbeat CPU 0 instructions: 36000000 cycles: 13811694 heartbeat IPC: 2.60659 cumulative IPC: 2.60649 (Simulation time: 0 hr 18 min 32 sec) 
Heartbeat CPU 0 instructions: 37000001 cycles: 14195360 heartbeat IPC: 2.60644 cumulative IPC: 2.60649 (Simulation time: 0 hr 19 min 4 sec) 
Heartbeat CPU 0 instructions: 38000000 cycles: 14579025 heartbeat IPC: 2.60644 cumulative IPC: 2.60648 (Simulation time: 0 hr 19 min 34 sec) 
Heartbeat CPU 0 instructions: 39000002 cycles: 14962680 heartbeat IPC: 2.60651 cumulative IPC: 2.60649 (Simulation time: 0 hr 20 min 4 sec) 
Heartbeat CPU 0 instructions: 40000000 cycles: 15346358 heartbeat IPC: 2.60635 cumulative IPC: 2.60648 (Simulation time: 0 hr 20 min 32 sec) 
Heartbeat CPU 0 instructions: 41000003 cycles: 15730024 heartbeat IPC: 2.60644 cumulative IPC: 2.60648 (Simulation time: 0 hr 21 min 0 sec) 
Heartbeat CPU 0 instructions: 42000002 cycles: 16113669 heartbeat IPC: 2.60657 cumulative IPC: 2.60648 (Simulation time: 0 hr 21 min 29 sec) 
Heartbeat CPU 0 instructions: 43000002 cycles: 16497335 heartbeat IPC: 2.60643 cumulative IPC: 2.60648 (Simulation time: 0 hr 21 min 59 sec) 
Heartbeat CPU 0 instructions: 44000000 cycles: 16880988 heartbeat IPC: 2.60652 cumulative IPC: 2.60648 (Simulation time: 0 hr 22 min 29 sec) 
Heartbeat CPU 0 instructions: 45000000 cycles: 17264648 heartbeat IPC: 2.60647 cumulative IPC: 2.60648 (Simulation time: 0 hr 22 min 58 sec) 
Heartbeat CPU 0 instructions: 46000002 cycles: 17648338 heartbeat IPC: 2.60628 cumulative IPC: 2.60648 (Simulation time: 0 hr 23 min 26 sec) 
Heartbeat CPU 0 instructions: 47000002 cycles: 18031991 heartbeat IPC: 2.60652 cumulative IPC: 2.60648 (Simulation time: 0 hr 23 min 55 sec) 
Heartbeat CPU 0 instructions: 48000000 cycles: 18415635 heartbeat IPC: 2.60658 cumulative IPC: 2.60648 (Simulation time: 0 hr 24 min 24 sec) 
Heartbeat CPU 0 instructions: 49000001 cycles: 18799298 heartbeat IPC: 2.60646 cumulative IPC: 2.60648 (Simulation time: 0 hr 24 min 52 sec) 
Heartbeat CPU 0 instructions: 50000000 cycles: 19182930 heartbeat IPC: 2.60666 cumulative IPC: 2.60648 (Simulation time: 0 hr 25 min 24 sec) 

Warmup complete CPU 0 instructions: 50000004 cycles: 19182931 (Simulation time: 0 hr 25 min 24 sec) 

Heartbeat CPU 0 instructions: 51000001 cycles: 20624476 heartbeat IPC: 0.6937 cumulative IPC: 0.693698 (Simulation time: 0 hr 25 min 57 sec) 
Heartbeat CPU 0 instructions: 52000000 cycles: 22054846 heartbeat IPC: 0.699119 cumulative IPC: 0.696398 (Simulation time: 0 hr 26 min 29 sec) 
Heartbeat CPU 0 instructions: 53000000 cycles: 23477689 heartbeat IPC: 0.702818 cumulative IPC: 0.698525 (Simulation time: 0 hr 27 min 3 sec) 
Heartbeat CPU 0 instructions: 54000001 cycles: 24896257 heartbeat IPC: 0.704937 cumulative IPC: 0.700117 (Simulation time: 0 hr 27 min 38 sec) 
Heartbeat CPU 0 instructions: 55000003 cycles: 26321747 heartbeat IPC: 0.701515 cumulative IPC: 0.700396 (Simulation time: 0 hr 28 min 16 sec) 
Heartbeat CPU 0 instructions: 56000000 cycles: 27748008 heartbeat IPC: 0.701132 cumulative IPC: 0.700519 (Simulation time: 0 hr 28 min 47 sec) 
Heartbeat CPU 0 instructions: 57000000 cycles: 29169665 heartbeat IPC: 0.703405 cumulative IPC: 0.700929 (Simulation time: 0 hr 29 min 18 sec) 
Heartbeat CPU 0 instructions: 58000000 cycles: 30587961 heartbeat IPC: 0.705071 cumulative IPC: 0.701445 (Simulation time: 0 hr 29 min 54 sec) 
Heartbeat CPU 0 instructions: 59000002 cycles: 32011899 heartbeat IPC: 0.702279 cumulative IPC: 0.701537 (Simulation time: 0 hr 30 min 25 sec) 
Heartbeat CPU 0 instructions: 60000000 cycles: 33424884 heartbeat IPC: 0.70772 cumulative IPC: 0.702151 (Simulation time: 0 hr 30 min 55 sec) 
Heartbeat CPU 0 instructions: 61000001 cycles: 34847890 heartbeat IPC: 0.702738 cumulative IPC: 0.702204 (Simulation time: 0 hr 31 min 26 sec) 
Heartbeat CPU 0 instructions: 62000003 cycles: 36276257 heartbeat IPC: 0.700102 cumulative IPC: 0.702028 (Simulation time: 0 hr 32 min 0 sec) 
Heartbeat CPU 0 instructions: 63000001 cycles: 37697968 heartbeat IPC: 0.703376 cumulative IPC: 0.702132 (Simulation time: 0 hr 32 min 36 sec) 
Heartbeat CPU 0 instructions: 64000000 cycles: 39116600 heartbeat IPC: 0.704904 cumulative IPC: 0.702329 (Simulation time: 0 hr 33 min 7 sec) 
Heartbeat CPU 0 instructions: 65000002 cycles: 40539522 heartbeat IPC: 0.702781 cumulative IPC: 0.702359 (Simulation time: 0 hr 33 min 40 sec) 
Heartbeat CPU 0 instructions: 66000001 cycles: 41958159 heartbeat IPC: 0.704901 cumulative IPC: 0.702518 (Simulation time: 0 hr 34 min 16 sec) 
Heartbeat CPU 0 instructions: 67000003 cycles: 43380343 heartbeat IPC: 0.703145 cumulative IPC: 0.702554 (Simulation time: 0 hr 34 min 50 sec) 
Heartbeat CPU 0 instructions: 68000000 cycles: 44809069 heartbeat IPC: 0.699922 cumulative IPC: 0.702408 (Simulation time: 0 hr 35 min 20 sec) 
Heartbeat CPU 0 instructions: 69000003 cycles: 46232310 heartbeat IPC: 0.702624 cumulative IPC: 0.702419 (Simulation time: 0 hr 35 min 54 sec) 
Heartbeat CPU 0 instructions: 70000002 cycles: 47654130 heartbeat IPC: 0.703323 cumulative IPC: 0.702464 (Simulation time: 0 hr 36 min 27 sec) 
Heartbeat CPU 0 instructions: 71000002 cycles: 49053352 heartbeat IPC: 0.714683 cumulative IPC: 0.703037 (Simulation time: 0 hr 36 min 59 sec) 
Heartbeat CPU 0 instructions: 72000000 cycles: 50473933 heartbeat IPC: 0.703936 cumulative IPC: 0.703077 (Simulation time: 0 hr 37 min 33 sec) 
Heartbeat CPU 0 instructions: 73000002 cycles: 51894433 heartbeat IPC: 0.703979 cumulative IPC: 0.703117 (Simulation time: 0 hr 38 min 7 sec) 
Heartbeat CPU 0 instructions: 74000002 cycles: 53314760 heartbeat IPC: 0.704063 cumulative IPC: 0.703156 (Simulation time: 0 hr 38 min 42 sec) 
Heartbeat CPU 0 instructions: 75000001 cycles: 54730515 heartbeat IPC: 0.706336 cumulative IPC: 0.703283 (Simulation time: 0 hr 39 min 15 sec) 
Heartbeat CPU 0 instructions: 76000000 cycles: 56155090 heartbeat IPC: 0.701963 cumulative IPC: 0.703232 (Simulation time: 0 hr 39 min 47 sec) 
Heartbeat CPU 0 instructions: 77000002 cycles: 57577221 heartbeat IPC: 0.703171 cumulative IPC: 0.703229 (Simulation time: 0 hr 40 min 17 sec) 
Heartbeat CPU 0 instructions: 78000000 cycles: 58998901 heartbeat IPC: 0.703392 cumulative IPC: 0.703235 (Simulation time: 0 hr 40 min 47 sec) 
Heartbeat CPU 0 instructions: 79000000 cycles: 60425284 heartbeat IPC: 0.701074 cumulative IPC: 0.703161 (Simulation time: 0 hr 41 min 23 sec) 
Heartbeat CPU 0 instructions: 80000000 cycles: 61849988 heartbeat IPC: 0.7019 cumulative IPC: 0.703119 (Simulation time: 0 hr 41 min 52 sec) 
Heartbeat CPU 0 instructions: 81000003 cycles: 63266834 heartbeat IPC: 0.705795 cumulative IPC: 0.703205 (Simulation time: 0 hr 42 min 27 sec) 
Heartbeat CPU 0 instructions: 82000003 cycles: 64688138 heartbeat IPC: 0.703579 cumulative IPC: 0.703216 (Simulation time: 0 hr 42 min 58 sec) 
Heartbeat CPU 0 instructions: 83000002 cycles: 66106203 heartbeat IPC: 0.705186 cumulative IPC: 0.703276 (Simulation time: 0 hr 43 min 35 sec) 
Heartbeat CPU 0 instructions: 84000000 cycles: 67527120 heartbeat IPC: 0.703769 cumulative IPC: 0.70329 (Simulation time: 0 hr 44 min 11 sec) 
Heartbeat CPU 0 instructions: 85000000 cycles: 68945099 heartbeat IPC: 0.705229 cumulative IPC: 0.703345 (Simulation time: 0 hr 44 min 46 sec) 
Heartbeat CPU 0 instructions: 86000001 cycles: 70359176 heartbeat IPC: 0.707176 cumulative IPC: 0.703451 (Simulation time: 0 hr 45 min 21 sec) 
Heartbeat CPU 0 instructions: 87000001 cycles: 71783614 heartbeat IPC: 0.702031 cumulative IPC: 0.703413 (Simulation time: 0 hr 46 min 1 sec) 
Heartbeat CPU 0 instructions: 88000000 cycles: 73204881 heartbeat IPC: 0.703597 cumulative IPC: 0.703418 (Simulation time: 0 hr 46 min 35 sec) 
Heartbeat CPU 0 instructions: 89000001 cycles: 74620202 heartbeat IPC: 0.706554 cumulative IPC: 0.703498 (Simulation time: 0 hr 47 min 11 sec) 
Heartbeat CPU 0 instructions: 90000000 cycles: 76042470 heartbeat IPC: 0.703102 cumulative IPC: 0.703488 (Simulation time: 0 hr 47 min 47 sec) 
Heartbeat CPU 0 instructions: 91000001 cycles: 77467164 heartbeat IPC: 0.701906 cumulative IPC: 0.703449 (Simulation time: 0 hr 48 min 19 sec) 
Heartbeat CPU 0 instructions: 92000000 cycles: 81943082 heartbeat IPC: 0.223418 cumulative IPC: 0.669214 (Simulation time: 0 hr 49 min 32 sec) 
Heartbeat CPU 0 instructions: 93000000 cycles: 86575082 heartbeat IPC: 0.215889 cumulative IPC: 0.638056 (Simulation time: 0 hr 50 min 47 sec) 
Heartbeat CPU 0 instructions: 94000002 cycles: 89743892 heartbeat IPC: 0.315577 cumulative IPC: 0.623574 (Simulation time: 0 hr 51 min 48 sec) 
Heartbeat CPU 0 instructions: 95000000 cycles: 91051088 heartbeat IPC: 0.764995 cumulative IPC: 0.626146 (Simulation time: 0 hr 52 min 33 sec) 
Heartbeat CPU 0 instructions: 96000000 cycles: 92378611 heartbeat IPC: 0.753283 cumulative IPC: 0.628452 (Simulation time: 0 hr 53 min 8 sec) 
Heartbeat CPU 0 instructions: 97000002 cycles: 93617661 heartbeat IPC: 0.807072 cumulative IPC: 0.631426 (Simulation time: 0 hr 53 min 38 sec) 
Heartbeat CPU 0 instructions: 98000003 cycles: 94856955 heartbeat IPC: 0.806912 cumulative IPC: 0.6343 (Simulation time: 0 hr 54 min 9 sec) 
Heartbeat CPU 0 instructions: 99000000 cycles: 96095509 heartbeat IPC: 0.807391 cumulative IPC: 0.637087 (Simulation time: 0 hr 54 min 41 sec) 
Heartbeat CPU 0 instructions: 100000000 cycles: 97349943 heartbeat IPC: 0.797172 cumulative IPC: 0.639656 (Simulation time: 0 hr 55 min 14 sec) 
Heartbeat CPU 0 instructions: 101000001 cycles: 98599893 heartbeat IPC: 0.800033 cumulative IPC: 0.64218 (Simulation time: 0 hr 55 min 46 sec) 
Heartbeat CPU 0 instructions: 102000000 cycles: 99857937 heartbeat IPC: 0.794884 cumulative IPC: 0.644561 (Simulation time: 0 hr 56 min 18 sec) 
Heartbeat CPU 0 instructions: 103000002 cycles: 101115967 heartbeat IPC: 0.794895 cumulative IPC: 0.64687 (Simulation time: 0 hr 56 min 48 sec) 
Heartbeat CPU 0 instructions: 104000000 cycles: 102374069 heartbeat IPC: 0.794847 cumulative IPC: 0.649108 (Simulation time: 0 hr 57 min 20 sec) 
Heartbeat CPU 0 instructions: 105000003 cycles: 103634244 heartbeat IPC: 0.793543 cumulative IPC: 0.651263 (Simulation time: 0 hr 57 min 51 sec) 
Heartbeat CPU 0 instructions: 106000002 cycles: 104888028 heartbeat IPC: 0.797585 cumulative IPC: 0.653403 (Simulation time: 0 hr 58 min 21 sec) 
Heartbeat CPU 0 instructions: 107000002 cycles: 106148930 heartbeat IPC: 0.793083 cumulative IPC: 0.655429 (Simulation time: 0 hr 58 min 49 sec) 
Heartbeat CPU 0 instructions: 108000000 cycles: 107408441 heartbeat IPC: 0.793957 cumulative IPC: 0.657406 (Simulation time: 0 hr 59 min 19 sec) 
Heartbeat CPU 0 instructions: 109000001 cycles: 108664376 heartbeat IPC: 0.79622 cumulative IPC: 0.659355 (Simulation time: 0 hr 59 min 50 sec) 
Heartbeat CPU 0 instructions: 110000001 cycles: 109925717 heartbeat IPC: 0.792807 cumulative IPC: 0.66121 (Simulation time: 1 hr 0 min 22 sec) 
Heartbeat CPU 0 instructions: 111000000 cycles: 111185929 heartbeat IPC: 0.793517 cumulative IPC: 0.663022 (Simulation time: 1 hr 0 min 51 sec) 
Heartbeat CPU 0 instructions: 112000000 cycles: 112443584 heartbeat IPC: 0.795131 cumulative IPC: 0.664803 (Simulation time: 1 hr 1 min 19 sec) 
Heartbeat CPU 0 instructions: 113000002 cycles: 113704623 heartbeat IPC: 0.792998 cumulative IPC: 0.666514 (Simulation time: 1 hr 1 min 46 sec) 
Heartbeat CPU 0 instructions: 114000000 cycles: 114956006 heartbeat IPC: 0.799114 cumulative IPC: 0.668246 (Simulation time: 1 hr 2 min 16 sec) 
Heartbeat CPU 0 instructions: 115000002 cycles: 116216817 heartbeat IPC: 0.793142 cumulative IPC: 0.669869 (Simulation time: 1 hr 2 min 47 sec) 
Heartbeat CPU 0 instructions: 116000000 cycles: 117476747 heartbeat IPC: 0.793693 cumulative IPC: 0.671456 (Simulation time: 1 hr 3 min 20 sec) 
Heartbeat CPU 0 instructions: 117000003 cycles: 118731366 heartbeat IPC: 0.797057 cumulative IPC: 0.673039 (Simulation time: 1 hr 3 min 50 sec) 
Heartbeat CPU 0 instructions: 118000000 cycles: 119993869 heartbeat IPC: 0.792075 cumulative IPC: 0.67453 (Simulation time: 1 hr 4 min 24 sec) 
Heartbeat CPU 0 instructions: 119000003 cycles: 121256024 heartbeat IPC: 0.792298 cumulative IPC: 0.675986 (Simulation time: 1 hr 4 min 57 sec) 
Heartbeat CPU 0 instructions: 120000000 cycles: 122516916 heartbeat IPC: 0.793087 cumulative IPC: 0.677415 (Simulation time: 1 hr 5 min 28 sec) 
Heartbeat CPU 0 instructions: 121000003 cycles: 123774667 heartbeat IPC: 0.795072 cumulative IPC: 0.67883 (Simulation time: 1 hr 5 min 57 sec) 
Heartbeat CPU 0 instructions: 122000001 cycles: 125032256 heartbeat IPC: 0.795171 cumulative IPC: 0.680212 (Simulation time: 1 hr 6 min 34 sec) 
Heartbeat CPU 0 instructions: 123000000 cycles: 126286466 heartbeat IPC: 0.797314 cumulative IPC: 0.681583 (Simulation time: 1 hr 7 min 4 sec) 
Heartbeat CPU 0 instructions: 124000000 cycles: 127543753 heartbeat IPC: 0.795363 cumulative IPC: 0.682904 (Simulation time: 1 hr 7 min 33 sec) 
Heartbeat CPU 0 instructions: 125000003 cycles: 128804248 heartbeat IPC: 0.793342 cumulative IPC: 0.684173 (Simulation time: 1 hr 8 min 6 sec) 
Heartbeat CPU 0 instructions: 126000000 cycles: 130060831 heartbeat IPC: 0.795807 cumulative IPC: 0.685439 (Simulation time: 1 hr 8 min 36 sec) 
Heartbeat CPU 0 instructions: 127000000 cycles: 131320409 heartbeat IPC: 0.793917 cumulative IPC: 0.686657 (Simulation time: 1 hr 9 min 7 sec) 
Heartbeat CPU 0 instructions: 128000000 cycles: 132578079 heartbeat IPC: 0.795121 cumulative IPC: 0.68786 (Simulation time: 1 hr 9 min 35 sec) 
Heartbeat CPU 0 instructions: 129000000 cycles: 133837423 heartbeat IPC: 0.794064 cumulative IPC: 0.689027 (Simulation time: 1 hr 10 min 4 sec) 
Heartbeat CPU 0 instructions: 130000002 cycles: 135095082 heartbeat IPC: 0.79513 cumulative IPC: 0.690178 (Simulation time: 1 hr 10 min 36 sec) 
Heartbeat CPU 0 instructions: 131000002 cycles: 136350979 heartbeat IPC: 0.796244 cumulative IPC: 0.691315 (Simulation time: 1 hr 11 min 9 sec) 
Heartbeat CPU 0 instructions: 132000000 cycles: 137608293 heartbeat IPC: 0.795345 cumulative IPC: 0.692419 (Simulation time: 1 hr 11 min 43 sec) 
Heartbeat CPU 0 instructions: 133000002 cycles: 138865161 heartbeat IPC: 0.79563 cumulative IPC: 0.693503 (Simulation time: 1 hr 12 min 12 sec) 
Heartbeat CPU 0 instructions: 134000002 cycles: 140125457 heartbeat IPC: 0.793464 cumulative IPC: 0.694545 (Simulation time: 1 hr 12 min 43 sec) 
Heartbeat CPU 0 instructions: 135000000 cycles: 141382596 heartbeat IPC: 0.795455 cumulative IPC: 0.695583 (Simulation time: 1 hr 13 min 14 sec) 
Heartbeat CPU 0 instructions: 136000000 cycles: 142643334 heartbeat IPC: 0.793186 cumulative IPC: 0.69658 (Simulation time: 1 hr 13 min 49 sec) 
Heartbeat CPU 0 instructions: 137000001 cycles: 143897169 heartbeat IPC: 0.797554 cumulative IPC: 0.697595 (Simulation time: 1 hr 14 min 18 sec) 
Heartbeat CPU 0 instructions: 138000003 cycles: 145160463 heartbeat IPC: 0.791583 cumulative IPC: 0.698537 (Simulation time: 1 hr 14 min 44 sec) 
Heartbeat CPU 0 instructions: 139000001 cycles: 146418421 heartbeat IPC: 0.794937 cumulative IPC: 0.69949 (Simulation time: 1 hr 15 min 9 sec) 
Heartbeat CPU 0 instructions: 140000000 cycles: 147682590 heartbeat IPC: 0.791033 cumulative IPC: 0.700391 (Simulation time: 1 hr 15 min 35 sec) 
Heartbeat CPU 0 instructions: 141000003 cycles: 148945361 heartbeat IPC: 0.791912 cumulative IPC: 0.701282 (Simulation time: 1 hr 16 min 1 sec) 
Heartbeat CPU 0 instructions: 142000001 cycles: 150205535 heartbeat IPC: 0.79354 cumulative IPC: 0.702169 (Simulation time: 1 hr 16 min 26 sec) 
Heartbeat CPU 0 instructions: 143000001 cycles: 151468275 heartbeat IPC: 0.791929 cumulative IPC: 0.703026 (Simulation time: 1 hr 16 min 48 sec) 
Heartbeat CPU 0 instructions: 144000000 cycles: 152724915 heartbeat IPC: 0.795772 cumulative IPC: 0.703898 (Simulation time: 1 hr 17 min 11 sec) 
Heartbeat CPU 0 instructions: 145000001 cycles: 153980982 heartbeat IPC: 0.796137 cumulative IPC: 0.704758 (Simulation time: 1 hr 17 min 32 sec) 
Heartbeat CPU 0 instructions: 146000003 cycles: 155241023 heartbeat IPC: 0.793627 cumulative IPC: 0.705581 (Simulation time: 1 hr 17 min 55 sec) 
Heartbeat CPU 0 instructions: 147000003 cycles: 156498306 heartbeat IPC: 0.795366 cumulative IPC: 0.706403 (Simulation time: 1 hr 18 min 16 sec) 
Heartbeat CPU 0 instructions: 148000000 cycles: 157755546 heartbeat IPC: 0.795391 cumulative IPC: 0.70721 (Simulation time: 1 hr 18 min 41 sec) 
Heartbeat CPU 0 instructions: 149000001 cycles: 159014828 heartbeat IPC: 0.794104 cumulative IPC: 0.707993 (Simulation time: 1 hr 19 min 3 sec) 
Heartbeat CPU 0 instructions: 150000003 cycles: 160279155 heartbeat IPC: 0.790936 cumulative IPC: 0.708736 (Simulation time: 1 hr 19 min 24 sec) 
Finished CPU 0 instructions: 100000003 cycles: 141096225 cummulative IPC: 0.708736 (Simulation time: 1 hr 19 min 24 sec) 

ChampSim completed all CPUs

Region of Interest Statistics

CPU 0 cummulative IPC: 0.708736 instructions: 100000003 cycles: 141096225
LLC TOTAL     ACCESS:    2853535  HIT:      50117  MISS:    2803418
LLC LOAD      ACCESS:     878643  HIT:        239  MISS:     878404
LLC RFO       ACCESS:     539880  HIT:       6617  MISS:     533263
LLC PREFETCH  ACCESS:     755029  HIT:       3388  MISS:     751641
LLC WRITEBACK ACCESS:     679983  HIT:      39873  MISS:     640110
OPTgen accesses: 25468
OPTgen hits: 199
OPTgen hit rate: 0.781373


