
*** ChampSim Multicore Out-of-Order Simulator ***

Warmup Instructions: 50000000
Simulation Instructions: 100000000
Configuration: 2
Number of CPUs: 1
LLC sets: 2048
LLC ways: 16
Off-chip DRAM Channels: 1 Width: 64-bit Data Rate: 1600 MT/s

CPU 0 runs /datasets/cs240c-wi22-a00-public/data/Assignment2-gz/omnetpp_17B.trace.gz
CPU 0 L1D next line prefetcher
CPU 0 L2C IP-based stride prefetcher
Initialize Hawkeye state
Heartbeat CPU 0 instructions: 1000000 cycles: 559560 heartbeat IPC: 1.78712 cumulative IPC: 1.78712 (Simulation time: 0 hr 0 min 35 sec) 
Heartbeat CPU 0 instructions: 2000002 cycles: 1133716 heartbeat IPC: 1.74169 cumulative IPC: 1.76411 (Simulation time: 0 hr 1 min 4 sec) 
Heartbeat CPU 0 instructions: 3000001 cycles: 1769024 heartbeat IPC: 1.57404 cumulative IPC: 1.69585 (Simulation time: 0 hr 1 min 30 sec) 
Heartbeat CPU 0 instructions: 4000000 cycles: 2333917 heartbeat IPC: 1.77024 cumulative IPC: 1.71386 (Simulation time: 0 hr 2 min 0 sec) 
Heartbeat CPU 0 instructions: 5000002 cycles: 2892922 heartbeat IPC: 1.7889 cumulative IPC: 1.72836 (Simulation time: 0 hr 2 min 31 sec) 
Heartbeat CPU 0 instructions: 6000000 cycles: 3471607 heartbeat IPC: 1.72805 cumulative IPC: 1.72831 (Simulation time: 0 hr 2 min 58 sec) 
Heartbeat CPU 0 instructions: 7000000 cycles: 4036093 heartbeat IPC: 1.77152 cumulative IPC: 1.73435 (Simulation time: 0 hr 3 min 28 sec) 
Heartbeat CPU 0 instructions: 8000000 cycles: 4697827 heartbeat IPC: 1.51118 cumulative IPC: 1.70291 (Simulation time: 0 hr 3 min 55 sec) 
Heartbeat CPU 0 instructions: 9000000 cycles: 5359632 heartbeat IPC: 1.51102 cumulative IPC: 1.67922 (Simulation time: 0 hr 4 min 20 sec) 
Heartbeat CPU 0 instructions: 10000001 cycles: 6021201 heartbeat IPC: 1.51156 cumulative IPC: 1.6608 (Simulation time: 0 hr 4 min 48 sec) 
Heartbeat CPU 0 instructions: 11000001 cycles: 6682591 heartbeat IPC: 1.51197 cumulative IPC: 1.64607 (Simulation time: 0 hr 5 min 15 sec) 
Heartbeat CPU 0 instructions: 12000000 cycles: 7343367 heartbeat IPC: 1.51337 cumulative IPC: 1.63413 (Simulation time: 0 hr 5 min 41 sec) 
Heartbeat CPU 0 instructions: 13000001 cycles: 8002067 heartbeat IPC: 1.51814 cumulative IPC: 1.62458 (Simulation time: 0 hr 6 min 9 sec) 
Heartbeat CPU 0 instructions: 14000000 cycles: 8663356 heartbeat IPC: 1.5122 cumulative IPC: 1.616 (Simulation time: 0 hr 6 min 36 sec) 
Heartbeat CPU 0 instructions: 15000000 cycles: 9325071 heartbeat IPC: 1.51122 cumulative IPC: 1.60857 (Simulation time: 0 hr 7 min 4 sec) 
Heartbeat CPU 0 instructions: 16000000 cycles: 9986982 heartbeat IPC: 1.51078 cumulative IPC: 1.60209 (Simulation time: 0 hr 7 min 33 sec) 
Heartbeat CPU 0 instructions: 17000000 cycles: 10652708 heartbeat IPC: 1.50212 cumulative IPC: 1.59584 (Simulation time: 0 hr 8 min 0 sec) 
Heartbeat CPU 0 instructions: 18000001 cycles: 11319265 heartbeat IPC: 1.50025 cumulative IPC: 1.59021 (Simulation time: 0 hr 8 min 29 sec) 
Heartbeat CPU 0 instructions: 19000002 cycles: 11988072 heartbeat IPC: 1.4952 cumulative IPC: 1.58491 (Simulation time: 0 hr 8 min 58 sec) 
Heartbeat CPU 0 instructions: 20000000 cycles: 12559853 heartbeat IPC: 1.74892 cumulative IPC: 1.59238 (Simulation time: 0 hr 9 min 32 sec) 
Heartbeat CPU 0 instructions: 21000000 cycles: 13148912 heartbeat IPC: 1.69762 cumulative IPC: 1.59709 (Simulation time: 0 hr 10 min 1 sec) 
Heartbeat CPU 0 instructions: 22000001 cycles: 13760828 heartbeat IPC: 1.63421 cumulative IPC: 1.59874 (Simulation time: 0 hr 10 min 30 sec) 
Heartbeat CPU 0 instructions: 23000000 cycles: 14318714 heartbeat IPC: 1.79248 cumulative IPC: 1.60629 (Simulation time: 0 hr 10 min 59 sec) 
Heartbeat CPU 0 instructions: 24000000 cycles: 14878366 heartbeat IPC: 1.78682 cumulative IPC: 1.61308 (Simulation time: 0 hr 11 min 32 sec) 
Heartbeat CPU 0 instructions: 25000001 cycles: 15461907 heartbeat IPC: 1.71368 cumulative IPC: 1.61688 (Simulation time: 0 hr 12 min 2 sec) 
Heartbeat CPU 0 instructions: 26000001 cycles: 16078776 heartbeat IPC: 1.62109 cumulative IPC: 1.61704 (Simulation time: 0 hr 12 min 29 sec) 
Heartbeat CPU 0 instructions: 27000000 cycles: 16638408 heartbeat IPC: 1.78689 cumulative IPC: 1.62275 (Simulation time: 0 hr 12 min 58 sec) 
Heartbeat CPU 0 instructions: 28000000 cycles: 17196708 heartbeat IPC: 1.79115 cumulative IPC: 1.62822 (Simulation time: 0 hr 13 min 26 sec) 
Heartbeat CPU 0 instructions: 29000000 cycles: 17775402 heartbeat IPC: 1.72803 cumulative IPC: 1.63147 (Simulation time: 0 hr 13 min 55 sec) 
Heartbeat CPU 0 instructions: 30000000 cycles: 18397953 heartbeat IPC: 1.60629 cumulative IPC: 1.63062 (Simulation time: 0 hr 14 min 22 sec) 
Heartbeat CPU 0 instructions: 31000000 cycles: 18959386 heartbeat IPC: 1.78116 cumulative IPC: 1.63507 (Simulation time: 0 hr 14 min 55 sec) 
Heartbeat CPU 0 instructions: 32000000 cycles: 19516681 heartbeat IPC: 1.79438 cumulative IPC: 1.63962 (Simulation time: 0 hr 15 min 26 sec) 
Heartbeat CPU 0 instructions: 33000001 cycles: 20088527 heartbeat IPC: 1.74872 cumulative IPC: 1.64273 (Simulation time: 0 hr 15 min 52 sec) 
Heartbeat CPU 0 instructions: 34000001 cycles: 20724229 heartbeat IPC: 1.57306 cumulative IPC: 1.64059 (Simulation time: 0 hr 16 min 18 sec) 
Heartbeat CPU 0 instructions: 35000002 cycles: 21289457 heartbeat IPC: 1.7692 cumulative IPC: 1.64401 (Simulation time: 0 hr 16 min 47 sec) 
Heartbeat CPU 0 instructions: 36000000 cycles: 21849183 heartbeat IPC: 1.78658 cumulative IPC: 1.64766 (Simulation time: 0 hr 17 min 17 sec) 
Heartbeat CPU 0 instructions: 37000001 cycles: 22427354 heartbeat IPC: 1.72959 cumulative IPC: 1.64977 (Simulation time: 0 hr 17 min 47 sec) 
Heartbeat CPU 0 instructions: 38000002 cycles: 23056394 heartbeat IPC: 1.58973 cumulative IPC: 1.64813 (Simulation time: 0 hr 18 min 13 sec) 
Heartbeat CPU 0 instructions: 39000000 cycles: 23619099 heartbeat IPC: 1.77713 cumulative IPC: 1.65121 (Simulation time: 0 hr 18 min 42 sec) 
Heartbeat CPU 0 instructions: 40000000 cycles: 24179200 heartbeat IPC: 1.78539 cumulative IPC: 1.65431 (Simulation time: 0 hr 19 min 9 sec) 
Heartbeat CPU 0 instructions: 41000002 cycles: 24762284 heartbeat IPC: 1.71502 cumulative IPC: 1.65574 (Simulation time: 0 hr 19 min 37 sec) 
Heartbeat CPU 0 instructions: 42000000 cycles: 25389264 heartbeat IPC: 1.59494 cumulative IPC: 1.65424 (Simulation time: 0 hr 20 min 3 sec) 
Heartbeat CPU 0 instructions: 43000001 cycles: 25876625 heartbeat IPC: 2.05187 cumulative IPC: 1.66173 (Simulation time: 0 hr 20 min 35 sec) 
Heartbeat CPU 0 instructions: 44000000 cycles: 26537322 heartbeat IPC: 1.51355 cumulative IPC: 1.65804 (Simulation time: 0 hr 21 min 3 sec) 
Heartbeat CPU 0 instructions: 45000003 cycles: 27198965 heartbeat IPC: 1.51139 cumulative IPC: 1.65447 (Simulation time: 0 hr 21 min 29 sec) 
Heartbeat CPU 0 instructions: 46000000 cycles: 27861340 heartbeat IPC: 1.50971 cumulative IPC: 1.65103 (Simulation time: 0 hr 21 min 55 sec) 
Heartbeat CPU 0 instructions: 47000001 cycles: 28524354 heartbeat IPC: 1.50827 cumulative IPC: 1.64771 (Simulation time: 0 hr 22 min 23 sec) 
Heartbeat CPU 0 instructions: 48000000 cycles: 29187105 heartbeat IPC: 1.50886 cumulative IPC: 1.64456 (Simulation time: 0 hr 22 min 48 sec) 
Heartbeat CPU 0 instructions: 49000000 cycles: 29848603 heartbeat IPC: 1.51172 cumulative IPC: 1.64162 (Simulation time: 0 hr 23 min 14 sec) 
Heartbeat CPU 0 instructions: 50000000 cycles: 30510794 heartbeat IPC: 1.51014 cumulative IPC: 1.63876 (Simulation time: 0 hr 23 min 41 sec) 

Warmup complete CPU 0 instructions: 50000002 cycles: 30510795 (Simulation time: 0 hr 23 min 41 sec) 

Heartbeat CPU 0 instructions: 51000002 cycles: 31554147 heartbeat IPC: 0.95845 cumulative IPC: 0.958449 (Simulation time: 0 hr 24 min 5 sec) 
Heartbeat CPU 0 instructions: 52000000 cycles: 32598386 heartbeat IPC: 0.957633 cumulative IPC: 0.958041 (Simulation time: 0 hr 24 min 30 sec) 
Heartbeat CPU 0 instructions: 53000001 cycles: 33640878 heartbeat IPC: 0.959241 cumulative IPC: 0.958441 (Simulation time: 0 hr 25 min 0 sec) 
Heartbeat CPU 0 instructions: 54000002 cycles: 34709135 heartbeat IPC: 0.936105 cumulative IPC: 0.952758 (Simulation time: 0 hr 25 min 25 sec) 
Heartbeat CPU 0 instructions: 55000003 cycles: 35749355 heartbeat IPC: 0.961336 cumulative IPC: 0.954461 (Simulation time: 0 hr 25 min 51 sec) 
Heartbeat CPU 0 instructions: 56000000 cycles: 38049547 heartbeat IPC: 0.434745 cumulative IPC: 0.795887 (Simulation time: 0 hr 26 min 23 sec) 
Heartbeat CPU 0 instructions: 57000003 cycles: 40113977 heartbeat IPC: 0.484397 cumulative IPC: 0.728925 (Simulation time: 0 hr 26 min 53 sec) 
Heartbeat CPU 0 instructions: 58000000 cycles: 43461751 heartbeat IPC: 0.298705 cumulative IPC: 0.617715 (Simulation time: 0 hr 27 min 27 sec) 
Heartbeat CPU 0 instructions: 59000003 cycles: 46791076 heartbeat IPC: 0.300362 cumulative IPC: 0.552816 (Simulation time: 0 hr 28 min 3 sec) 
Heartbeat CPU 0 instructions: 60000000 cycles: 49252330 heartbeat IPC: 0.406296 cumulative IPC: 0.533574 (Simulation time: 0 hr 28 min 34 sec) 
Heartbeat CPU 0 instructions: 61000001 cycles: 51157705 heartbeat IPC: 0.524832 cumulative IPC: 0.532767 (Simulation time: 0 hr 29 min 3 sec) 
Heartbeat CPU 0 instructions: 62000001 cycles: 54510687 heartbeat IPC: 0.298242 cumulative IPC: 0.500002 (Simulation time: 0 hr 29 min 41 sec) 
Heartbeat CPU 0 instructions: 63000000 cycles: 57869019 heartbeat IPC: 0.297767 cumulative IPC: 0.475177 (Simulation time: 0 hr 30 min 17 sec) 
Heartbeat CPU 0 instructions: 64000000 cycles: 60528548 heartbeat IPC: 0.376006 cumulative IPC: 0.466391 (Simulation time: 0 hr 30 min 53 sec) 
Heartbeat CPU 0 instructions: 65000000 cycles: 62252895 heartbeat IPC: 0.57993 cumulative IPC: 0.472558 (Simulation time: 0 hr 31 min 20 sec) 
Heartbeat CPU 0 instructions: 66000000 cycles: 65615174 heartbeat IPC: 0.297417 cumulative IPC: 0.455784 (Simulation time: 0 hr 31 min 55 sec) 
Heartbeat CPU 0 instructions: 67000001 cycles: 69020072 heartbeat IPC: 0.293695 cumulative IPC: 0.441452 (Simulation time: 0 hr 32 min 31 sec) 
Heartbeat CPU 0 instructions: 68000000 cycles: 71903449 heartbeat IPC: 0.346815 cumulative IPC: 0.43486 (Simulation time: 0 hr 33 min 2 sec) 
Heartbeat CPU 0 instructions: 69000001 cycles: 73448245 heartbeat IPC: 0.647335 cumulative IPC: 0.442504 (Simulation time: 0 hr 33 min 28 sec) 
Heartbeat CPU 0 instructions: 70000001 cycles: 76829239 heartbeat IPC: 0.295771 cumulative IPC: 0.431793 (Simulation time: 0 hr 34 min 2 sec) 
Heartbeat CPU 0 instructions: 71000001 cycles: 80211493 heartbeat IPC: 0.295661 cumulative IPC: 0.422529 (Simulation time: 0 hr 34 min 33 sec) 
Heartbeat CPU 0 instructions: 72000000 cycles: 83083449 heartbeat IPC: 0.348194 cumulative IPC: 0.418468 (Simulation time: 0 hr 35 min 3 sec) 
Heartbeat CPU 0 instructions: 73000000 cycles: 84633089 heartbeat IPC: 0.645311 cumulative IPC: 0.424963 (Simulation time: 0 hr 35 min 32 sec) 
Heartbeat CPU 0 instructions: 74000003 cycles: 88001926 heartbeat IPC: 0.296839 cumulative IPC: 0.417456 (Simulation time: 0 hr 36 min 8 sec) 
Heartbeat CPU 0 instructions: 75000001 cycles: 91374067 heartbeat IPC: 0.296547 cumulative IPC: 0.410757 (Simulation time: 0 hr 36 min 44 sec) 
Heartbeat CPU 0 instructions: 76000000 cycles: 94134294 heartbeat IPC: 0.362289 cumulative IPC: 0.408654 (Simulation time: 0 hr 37 min 14 sec) 
Heartbeat CPU 0 instructions: 77000001 cycles: 95790874 heartbeat IPC: 0.603654 cumulative IPC: 0.413602 (Simulation time: 0 hr 37 min 43 sec) 
Heartbeat CPU 0 instructions: 78000000 cycles: 99177307 heartbeat IPC: 0.295296 cumulative IPC: 0.407768 (Simulation time: 0 hr 38 min 17 sec) 
Heartbeat CPU 0 instructions: 79000000 cycles: 102712339 heartbeat IPC: 0.282883 cumulative IPC: 0.401653 (Simulation time: 0 hr 38 min 53 sec) 
Heartbeat CPU 0 instructions: 80000000 cycles: 104612203 heartbeat IPC: 0.526353 cumulative IPC: 0.404851 (Simulation time: 0 hr 39 min 22 sec) 
Heartbeat CPU 0 instructions: 81000001 cycles: 107123725 heartbeat IPC: 0.398165 cumulative IPC: 0.404631 (Simulation time: 0 hr 39 min 55 sec) 
Heartbeat CPU 0 instructions: 82000000 cycles: 110525067 heartbeat IPC: 0.294001 cumulative IPC: 0.399929 (Simulation time: 0 hr 40 min 32 sec) 
Heartbeat CPU 0 instructions: 83000000 cycles: 113908476 heartbeat IPC: 0.29556 cumulative IPC: 0.395694 (Simulation time: 0 hr 41 min 7 sec) 
Heartbeat CPU 0 instructions: 84000000 cycles: 115769773 heartbeat IPC: 0.53726 cumulative IPC: 0.398785 (Simulation time: 0 hr 41 min 35 sec) 
Heartbeat CPU 0 instructions: 85000003 cycles: 118312553 heartbeat IPC: 0.393272 cumulative IPC: 0.398625 (Simulation time: 0 hr 42 min 8 sec) 
Heartbeat CPU 0 instructions: 86000001 cycles: 121705850 heartbeat IPC: 0.294698 cumulative IPC: 0.394758 (Simulation time: 0 hr 42 min 42 sec) 
Heartbeat CPU 0 instructions: 87000000 cycles: 125095007 heartbeat IPC: 0.295058 cumulative IPC: 0.391186 (Simulation time: 0 hr 43 min 23 sec) 
Heartbeat CPU 0 instructions: 88000000 cycles: 126802002 heartbeat IPC: 0.585825 cumulative IPC: 0.394636 (Simulation time: 0 hr 43 min 52 sec) 
Heartbeat CPU 0 instructions: 89000000 cycles: 131687027 heartbeat IPC: 0.204707 cumulative IPC: 0.385466 (Simulation time: 0 hr 44 min 34 sec) 
Heartbeat CPU 0 instructions: 90000002 cycles: 132730471 heartbeat IPC: 0.958367 cumulative IPC: 0.391314 (Simulation time: 0 hr 45 min 0 sec) 
Heartbeat CPU 0 instructions: 91000001 cycles: 133774864 heartbeat IPC: 0.957493 cumulative IPC: 0.39704 (Simulation time: 0 hr 45 min 30 sec) 
Heartbeat CPU 0 instructions: 92000000 cycles: 134818510 heartbeat IPC: 0.958178 cumulative IPC: 0.402655 (Simulation time: 0 hr 46 min 2 sec) 
Heartbeat CPU 0 instructions: 93000002 cycles: 135862850 heartbeat IPC: 0.957545 cumulative IPC: 0.408155 (Simulation time: 0 hr 46 min 30 sec) 
Heartbeat CPU 0 instructions: 94000001 cycles: 136906678 heartbeat IPC: 0.958011 cumulative IPC: 0.41355 (Simulation time: 0 hr 46 min 57 sec) 
Heartbeat CPU 0 instructions: 95000000 cycles: 137950942 heartbeat IPC: 0.957611 cumulative IPC: 0.418838 (Simulation time: 0 hr 47 min 24 sec) 
Heartbeat CPU 0 instructions: 96000000 cycles: 138995812 heartbeat IPC: 0.957057 cumulative IPC: 0.424022 (Simulation time: 0 hr 47 min 53 sec) 
Heartbeat CPU 0 instructions: 97000002 cycles: 140066690 heartbeat IPC: 0.933815 cumulative IPC: 0.429005 (Simulation time: 0 hr 48 min 22 sec) 
Heartbeat CPU 0 instructions: 98000000 cycles: 141112649 heartbeat IPC: 0.956059 cumulative IPC: 0.433989 (Simulation time: 0 hr 48 min 49 sec) 
Heartbeat CPU 0 instructions: 99000003 cycles: 142151096 heartbeat IPC: 0.962979 cumulative IPC: 0.43891 (Simulation time: 0 hr 49 min 16 sec) 
Heartbeat CPU 0 instructions: 100000000 cycles: 143187550 heartbeat IPC: 0.964825 cumulative IPC: 0.443747 (Simulation time: 0 hr 49 min 45 sec) 
Heartbeat CPU 0 instructions: 101000001 cycles: 144228833 heartbeat IPC: 0.960355 cumulative IPC: 0.448478 (Simulation time: 0 hr 50 min 17 sec) 
Heartbeat CPU 0 instructions: 102000001 cycles: 147555778 heartbeat IPC: 0.300576 cumulative IPC: 0.444274 (Simulation time: 0 hr 50 min 55 sec) 
Heartbeat CPU 0 instructions: 103000000 cycles: 148979274 heartbeat IPC: 0.702495 cumulative IPC: 0.447376 (Simulation time: 0 hr 51 min 25 sec) 
Heartbeat CPU 0 instructions: 104000000 cycles: 152006158 heartbeat IPC: 0.330373 cumulative IPC: 0.444461 (Simulation time: 0 hr 51 min 59 sec) 
Heartbeat CPU 0 instructions: 105000000 cycles: 155365250 heartbeat IPC: 0.2977 cumulative IPC: 0.440513 (Simulation time: 0 hr 52 min 37 sec) 
Heartbeat CPU 0 instructions: 106000000 cycles: 158669255 heartbeat IPC: 0.302663 cumulative IPC: 0.436959 (Simulation time: 0 hr 53 min 15 sec) 
Heartbeat CPU 0 instructions: 107000001 cycles: 160256083 heartbeat IPC: 0.630189 cumulative IPC: 0.439322 (Simulation time: 0 hr 53 min 48 sec) 
Heartbeat CPU 0 instructions: 108000000 cycles: 163104164 heartbeat IPC: 0.351113 cumulative IPC: 0.437428 (Simulation time: 0 hr 54 min 30 sec) 
Heartbeat CPU 0 instructions: 109000000 cycles: 166426969 heartbeat IPC: 0.300951 cumulative IPC: 0.434091 (Simulation time: 0 hr 55 min 8 sec) 
Heartbeat CPU 0 instructions: 110000000 cycles: 169771725 heartbeat IPC: 0.298975 cumulative IPC: 0.430846 (Simulation time: 0 hr 55 min 45 sec) 
Heartbeat CPU 0 instructions: 111000000 cycles: 171505376 heartbeat IPC: 0.576817 cumulative IPC: 0.432641 (Simulation time: 0 hr 56 min 16 sec) 
Heartbeat CPU 0 instructions: 112000000 cycles: 174178597 heartbeat IPC: 0.374081 cumulative IPC: 0.431551 (Simulation time: 0 hr 56 min 46 sec) 
Heartbeat CPU 0 instructions: 113000001 cycles: 177550838 heartbeat IPC: 0.296539 cumulative IPC: 0.428455 (Simulation time: 0 hr 57 min 20 sec) 
Heartbeat CPU 0 instructions: 114000001 cycles: 180917355 heartbeat IPC: 0.297043 cumulative IPC: 0.425513 (Simulation time: 0 hr 57 min 59 sec) 
Heartbeat CPU 0 instructions: 115000002 cycles: 182844129 heartbeat IPC: 0.519003 cumulative IPC: 0.426696 (Simulation time: 0 hr 58 min 31 sec) 
Heartbeat CPU 0 instructions: 116000000 cycles: 185332928 heartbeat IPC: 0.401799 cumulative IPC: 0.426296 (Simulation time: 0 hr 59 min 4 sec) 
Heartbeat CPU 0 instructions: 117000000 cycles: 188699325 heartbeat IPC: 0.297053 cumulative IPC: 0.423545 (Simulation time: 0 hr 59 min 40 sec) 
Heartbeat CPU 0 instructions: 118000001 cycles: 192116534 heartbeat IPC: 0.292637 cumulative IPC: 0.420777 (Simulation time: 1 hr 0 min 20 sec) 
Heartbeat CPU 0 instructions: 119000002 cycles: 193926557 heartbeat IPC: 0.55248 cumulative IPC: 0.422236 (Simulation time: 1 hr 0 min 47 sec) 
Heartbeat CPU 0 instructions: 120000000 cycles: 196491711 heartbeat IPC: 0.389839 cumulative IPC: 0.421735 (Simulation time: 1 hr 1 min 19 sec) 
Heartbeat CPU 0 instructions: 121000000 cycles: 199867125 heartbeat IPC: 0.29626 cumulative IPC: 0.419234 (Simulation time: 1 hr 1 min 54 sec) 
Heartbeat CPU 0 instructions: 122000000 cycles: 203247628 heartbeat IPC: 0.295814 cumulative IPC: 0.416819 (Simulation time: 1 hr 2 min 38 sec) 
Heartbeat CPU 0 instructions: 123000002 cycles: 204964180 heartbeat IPC: 0.582564 cumulative IPC: 0.41845 (Simulation time: 1 hr 3 min 6 sec) 
Heartbeat CPU 0 instructions: 124000000 cycles: 207641964 heartbeat IPC: 0.373442 cumulative IPC: 0.417769 (Simulation time: 1 hr 3 min 44 sec) 
Heartbeat CPU 0 instructions: 125000000 cycles: 211177857 heartbeat IPC: 0.282814 cumulative IPC: 0.415128 (Simulation time: 1 hr 4 min 25 sec) 
Heartbeat CPU 0 instructions: 126000001 cycles: 214424388 heartbeat IPC: 0.308021 cumulative IPC: 0.413238 (Simulation time: 1 hr 5 min 4 sec) 
Heartbeat CPU 0 instructions: 127000002 cycles: 215584733 heartbeat IPC: 0.861813 cumulative IPC: 0.41605 (Simulation time: 1 hr 5 min 31 sec) 
Heartbeat CPU 0 instructions: 128000000 cycles: 218968055 heartbeat IPC: 0.295567 cumulative IPC: 0.413887 (Simulation time: 1 hr 6 min 7 sec) 
Heartbeat CPU 0 instructions: 129000000 cycles: 222332274 heartbeat IPC: 0.297246 cumulative IPC: 0.411841 (Simulation time: 1 hr 6 min 46 sec) 
Heartbeat CPU 0 instructions: 130000001 cycles: 225555914 heartbeat IPC: 0.310209 cumulative IPC: 0.410161 (Simulation time: 1 hr 7 min 18 sec) 
Heartbeat CPU 0 instructions: 131000002 cycles: 226755839 heartbeat IPC: 0.833386 cumulative IPC: 0.412749 (Simulation time: 1 hr 7 min 46 sec) 
Heartbeat CPU 0 instructions: 132000000 cycles: 230137205 heartbeat IPC: 0.295738 cumulative IPC: 0.410767 (Simulation time: 1 hr 8 min 18 sec) 
Heartbeat CPU 0 instructions: 133000000 cycles: 233513598 heartbeat IPC: 0.296174 cumulative IPC: 0.408861 (Simulation time: 1 hr 8 min 50 sec) 
Heartbeat CPU 0 instructions: 134000000 cycles: 236592297 heartbeat IPC: 0.324813 cumulative IPC: 0.407606 (Simulation time: 1 hr 9 min 21 sec) 
Heartbeat CPU 0 instructions: 135000001 cycles: 240109976 heartbeat IPC: 0.284279 cumulative IPC: 0.405536 (Simulation time: 1 hr 9 min 55 sec) 
Heartbeat CPU 0 instructions: 136000000 cycles: 241154147 heartbeat IPC: 0.957697 cumulative IPC: 0.408273 (Simulation time: 1 hr 10 min 22 sec) 
Heartbeat CPU 0 instructions: 137000001 cycles: 242199332 heartbeat IPC: 0.956769 cumulative IPC: 0.410981 (Simulation time: 1 hr 10 min 52 sec) 
Heartbeat CPU 0 instructions: 138000001 cycles: 243244036 heartbeat IPC: 0.957209 cumulative IPC: 0.413664 (Simulation time: 1 hr 11 min 18 sec) 
Heartbeat CPU 0 instructions: 139000001 cycles: 244289437 heartbeat IPC: 0.956571 cumulative IPC: 0.416318 (Simulation time: 1 hr 11 min 41 sec) 
Heartbeat CPU 0 instructions: 140000000 cycles: 245335961 heartbeat IPC: 0.955543 cumulative IPC: 0.418945 (Simulation time: 1 hr 12 min 5 sec) 
Heartbeat CPU 0 instructions: 141000001 cycles: 246406396 heartbeat IPC: 0.934201 cumulative IPC: 0.4215 (Simulation time: 1 hr 12 min 30 sec) 
Heartbeat CPU 0 instructions: 142000002 cycles: 247450270 heartbeat IPC: 0.957971 cumulative IPC: 0.424081 (Simulation time: 1 hr 12 min 55 sec) 
Heartbeat CPU 0 instructions: 143000001 cycles: 248495424 heartbeat IPC: 0.956796 cumulative IPC: 0.426636 (Simulation time: 1 hr 13 min 19 sec) 
Heartbeat CPU 0 instructions: 144000000 cycles: 249539206 heartbeat IPC: 0.958054 cumulative IPC: 0.429168 (Simulation time: 1 hr 13 min 46 sec) 
Heartbeat CPU 0 instructions: 145000003 cycles: 250581915 heartbeat IPC: 0.959043 cumulative IPC: 0.431679 (Simulation time: 1 hr 14 min 8 sec) 
Heartbeat CPU 0 instructions: 146000001 cycles: 251623241 heartbeat IPC: 0.960312 cumulative IPC: 0.434168 (Simulation time: 1 hr 14 min 30 sec) 
Heartbeat CPU 0 instructions: 147000000 cycles: 252665148 heartbeat IPC: 0.959778 cumulative IPC: 0.436633 (Simulation time: 1 hr 14 min 53 sec) 
Heartbeat CPU 0 instructions: 148000000 cycles: 256037167 heartbeat IPC: 0.296558 cumulative IPC: 0.434539 (Simulation time: 1 hr 15 min 28 sec) 
Heartbeat CPU 0 instructions: 149000000 cycles: 258743317 heartbeat IPC: 0.369529 cumulative IPC: 0.433768 (Simulation time: 1 hr 15 min 58 sec) 
Heartbeat CPU 0 instructions: 150000000 cycles: 260419073 heartbeat IPC: 0.596746 cumulative IPC: 0.434956 (Simulation time: 1 hr 16 min 26 sec) 
Finished CPU 0 instructions: 100000002 cycles: 229908284 cummulative IPC: 0.434956 (Simulation time: 1 hr 16 min 26 sec) 

ChampSim completed all CPUs

Region of Interest Statistics

CPU 0 cummulative IPC: 0.434956 instructions: 100000002 cycles: 229908284
LLC TOTAL     ACCESS:    3408638  HIT:    1090540  MISS:    2318098
LLC LOAD      ACCESS:    1622469  HIT:    1025630  MISS:     596839
LLC RFO       ACCESS:       5352  HIT:       2106  MISS:       3246
LLC PREFETCH  ACCESS:    1763416  HIT:      51055  MISS:    1712361
LLC WRITEBACK ACCESS:      17401  HIT:      11749  MISS:       5652
OPTgen accesses: 38928
OPTgen hits: 31643
OPTgen hit rate: 81.286


