
*** ChampSim Multicore Out-of-Order Simulator ***

Warmup Instructions: 50000000
Simulation Instructions: 100000000
Configuration: 2
Number of CPUs: 1
LLC sets: 2048
LLC ways: 16
Off-chip DRAM Channels: 1 Width: 64-bit Data Rate: 1600 MT/s

CPU 0 runs /datasets/cs240c-wi22-a00-public/data/Assignment2-gz/omnetpp_340B.trace.gz
CPU 0 L1D next line prefetcher
CPU 0 L2C IP-based stride prefetcher
Initialize Hawkeye state
Heartbeat CPU 0 instructions: 1000001 cycles: 576945 heartbeat IPC: 1.73327 cumulative IPC: 1.73327 (Simulation time: 0 hr 0 min 39 sec) 
Heartbeat CPU 0 instructions: 2000000 cycles: 1160881 heartbeat IPC: 1.71251 cumulative IPC: 1.72283 (Simulation time: 0 hr 1 min 20 sec) 
Heartbeat CPU 0 instructions: 3000001 cycles: 1758199 heartbeat IPC: 1.67415 cumulative IPC: 1.70629 (Simulation time: 0 hr 2 min 2 sec) 
Heartbeat CPU 0 instructions: 4000000 cycles: 2379253 heartbeat IPC: 1.61016 cumulative IPC: 1.6812 (Simulation time: 0 hr 2 min 43 sec) 
Heartbeat CPU 0 instructions: 5000002 cycles: 2954794 heartbeat IPC: 1.7375 cumulative IPC: 1.69217 (Simulation time: 0 hr 3 min 23 sec) 
Heartbeat CPU 0 instructions: 6000003 cycles: 3556245 heartbeat IPC: 1.66265 cumulative IPC: 1.68717 (Simulation time: 0 hr 4 min 7 sec) 
Heartbeat CPU 0 instructions: 7000003 cycles: 4205662 heartbeat IPC: 1.53984 cumulative IPC: 1.66442 (Simulation time: 0 hr 4 min 56 sec) 
Heartbeat CPU 0 instructions: 8000000 cycles: 4800194 heartbeat IPC: 1.68199 cumulative IPC: 1.6666 (Simulation time: 0 hr 5 min 37 sec) 
Heartbeat CPU 0 instructions: 9000002 cycles: 5433687 heartbeat IPC: 1.57855 cumulative IPC: 1.65633 (Simulation time: 0 hr 6 min 17 sec) 
Heartbeat CPU 0 instructions: 10000002 cycles: 6028219 heartbeat IPC: 1.682 cumulative IPC: 1.65887 (Simulation time: 0 hr 7 min 0 sec) 
Heartbeat CPU 0 instructions: 11000003 cycles: 6627734 heartbeat IPC: 1.66802 cumulative IPC: 1.65969 (Simulation time: 0 hr 7 min 40 sec) 
Heartbeat CPU 0 instructions: 12000000 cycles: 7230194 heartbeat IPC: 1.65986 cumulative IPC: 1.65971 (Simulation time: 0 hr 8 min 24 sec) 
Heartbeat CPU 0 instructions: 13000002 cycles: 7833781 heartbeat IPC: 1.65677 cumulative IPC: 1.65948 (Simulation time: 0 hr 9 min 15 sec) 
Heartbeat CPU 0 instructions: 14000000 cycles: 8429586 heartbeat IPC: 1.6784 cumulative IPC: 1.66082 (Simulation time: 0 hr 10 min 4 sec) 
Heartbeat CPU 0 instructions: 15000001 cycles: 9021194 heartbeat IPC: 1.69031 cumulative IPC: 1.66275 (Simulation time: 0 hr 11 min 0 sec) 
Heartbeat CPU 0 instructions: 16000000 cycles: 9644357 heartbeat IPC: 1.60471 cumulative IPC: 1.659 (Simulation time: 0 hr 11 min 53 sec) 
Heartbeat CPU 0 instructions: 17000000 cycles: 10250202 heartbeat IPC: 1.65059 cumulative IPC: 1.6585 (Simulation time: 0 hr 12 min 48 sec) 
Heartbeat CPU 0 instructions: 18000000 cycles: 10870513 heartbeat IPC: 1.61209 cumulative IPC: 1.65586 (Simulation time: 0 hr 13 min 43 sec) 
Heartbeat CPU 0 instructions: 19000000 cycles: 11502262 heartbeat IPC: 1.58291 cumulative IPC: 1.65185 (Simulation time: 0 hr 14 min 40 sec) 
Heartbeat CPU 0 instructions: 20000000 cycles: 12088477 heartbeat IPC: 1.70586 cumulative IPC: 1.65447 (Simulation time: 0 hr 15 min 47 sec) 
Heartbeat CPU 0 instructions: 21000000 cycles: 12686003 heartbeat IPC: 1.67357 cumulative IPC: 1.65537 (Simulation time: 0 hr 16 min 40 sec) 
Heartbeat CPU 0 instructions: 22000001 cycles: 13300455 heartbeat IPC: 1.62747 cumulative IPC: 1.65408 (Simulation time: 0 hr 17 min 43 sec) 
Heartbeat CPU 0 instructions: 23000001 cycles: 13922460 heartbeat IPC: 1.6077 cumulative IPC: 1.65201 (Simulation time: 0 hr 18 min 48 sec) 
Heartbeat CPU 0 instructions: 24000000 cycles: 14545462 heartbeat IPC: 1.60513 cumulative IPC: 1.65 (Simulation time: 0 hr 19 min 50 sec) 
Heartbeat CPU 0 instructions: 25000001 cycles: 15162623 heartbeat IPC: 1.62032 cumulative IPC: 1.64879 (Simulation time: 0 hr 20 min 55 sec) 
Heartbeat CPU 0 instructions: 26000001 cycles: 15753507 heartbeat IPC: 1.69238 cumulative IPC: 1.65043 (Simulation time: 0 hr 22 min 9 sec) 
Heartbeat CPU 0 instructions: 27000000 cycles: 16324263 heartbeat IPC: 1.75206 cumulative IPC: 1.65398 (Simulation time: 0 hr 23 min 18 sec) 
Heartbeat CPU 0 instructions: 28000000 cycles: 16919712 heartbeat IPC: 1.6794 cumulative IPC: 1.65487 (Simulation time: 0 hr 24 min 22 sec) 
Heartbeat CPU 0 instructions: 29000003 cycles: 17543391 heartbeat IPC: 1.60339 cumulative IPC: 1.65304 (Simulation time: 0 hr 25 min 33 sec) 
Heartbeat CPU 0 instructions: 30000003 cycles: 18120508 heartbeat IPC: 1.73275 cumulative IPC: 1.65558 (Simulation time: 0 hr 26 min 38 sec) 
Heartbeat CPU 0 instructions: 31000001 cycles: 18729437 heartbeat IPC: 1.64222 cumulative IPC: 1.65515 (Simulation time: 0 hr 27 min 45 sec) 
Heartbeat CPU 0 instructions: 32000000 cycles: 19334853 heartbeat IPC: 1.65176 cumulative IPC: 1.65504 (Simulation time: 0 hr 28 min 53 sec) 
Heartbeat CPU 0 instructions: 33000001 cycles: 19914900 heartbeat IPC: 1.724 cumulative IPC: 1.65705 (Simulation time: 0 hr 29 min 59 sec) 
Heartbeat CPU 0 instructions: 34000001 cycles: 20565908 heartbeat IPC: 1.53608 cumulative IPC: 1.65322 (Simulation time: 0 hr 31 min 1 sec) 
Heartbeat CPU 0 instructions: 35000002 cycles: 21146293 heartbeat IPC: 1.723 cumulative IPC: 1.65514 (Simulation time: 0 hr 32 min 3 sec) 
Heartbeat CPU 0 instructions: 36000000 cycles: 21755801 heartbeat IPC: 1.64066 cumulative IPC: 1.65473 (Simulation time: 0 hr 33 min 10 sec) 
Heartbeat CPU 0 instructions: 37000002 cycles: 22394998 heartbeat IPC: 1.56447 cumulative IPC: 1.65215 (Simulation time: 0 hr 34 min 20 sec) 
Heartbeat CPU 0 instructions: 38000000 cycles: 22977767 heartbeat IPC: 1.71594 cumulative IPC: 1.65377 (Simulation time: 0 hr 35 min 26 sec) 
Heartbeat CPU 0 instructions: 39000001 cycles: 23646371 heartbeat IPC: 1.49566 cumulative IPC: 1.6493 (Simulation time: 0 hr 36 min 27 sec) 
Heartbeat CPU 0 instructions: 40000000 cycles: 24236194 heartbeat IPC: 1.69542 cumulative IPC: 1.65042 (Simulation time: 0 hr 37 min 28 sec) 
Heartbeat CPU 0 instructions: 41000000 cycles: 24824620 heartbeat IPC: 1.69945 cumulative IPC: 1.65159 (Simulation time: 0 hr 38 min 30 sec) 
Heartbeat CPU 0 instructions: 42000001 cycles: 25452557 heartbeat IPC: 1.59252 cumulative IPC: 1.65013 (Simulation time: 0 hr 39 min 30 sec) 
Heartbeat CPU 0 instructions: 43000003 cycles: 26058559 heartbeat IPC: 1.65016 cumulative IPC: 1.65013 (Simulation time: 0 hr 40 min 26 sec) 
Heartbeat CPU 0 instructions: 44000000 cycles: 26612133 heartbeat IPC: 1.80644 cumulative IPC: 1.65338 (Simulation time: 0 hr 41 min 26 sec) 
Heartbeat CPU 0 instructions: 45000003 cycles: 27171562 heartbeat IPC: 1.78754 cumulative IPC: 1.65614 (Simulation time: 0 hr 42 min 22 sec) 
Heartbeat CPU 0 instructions: 46000001 cycles: 27786776 heartbeat IPC: 1.62545 cumulative IPC: 1.65546 (Simulation time: 0 hr 43 min 30 sec) 
Heartbeat CPU 0 instructions: 47000000 cycles: 28360195 heartbeat IPC: 1.74392 cumulative IPC: 1.65725 (Simulation time: 0 hr 44 min 27 sec) 
Heartbeat CPU 0 instructions: 48000000 cycles: 28962166 heartbeat IPC: 1.66121 cumulative IPC: 1.65733 (Simulation time: 0 hr 45 min 37 sec) 
Heartbeat CPU 0 instructions: 49000000 cycles: 29541801 heartbeat IPC: 1.72522 cumulative IPC: 1.65867 (Simulation time: 0 hr 46 min 37 sec) 
Heartbeat CPU 0 instructions: 50000000 cycles: 30185213 heartbeat IPC: 1.55421 cumulative IPC: 1.65644 (Simulation time: 0 hr 47 min 38 sec) 

Warmup complete CPU 0 instructions: 50000004 cycles: 30185214 (Simulation time: 0 hr 47 min 38 sec) 

Heartbeat CPU 0 instructions: 51000003 cycles: 33931761 heartbeat IPC: 0.266913 cumulative IPC: 0.266912 (Simulation time: 0 hr 49 min 3 sec) 
Heartbeat CPU 0 instructions: 52000000 cycles: 37937288 heartbeat IPC: 0.249654 cumulative IPC: 0.257995 (Simulation time: 0 hr 50 min 26 sec) 
Heartbeat CPU 0 instructions: 53000000 cycles: 42542426 heartbeat IPC: 0.217149 cumulative IPC: 0.242773 (Simulation time: 0 hr 51 min 57 sec) 
Heartbeat CPU 0 instructions: 54000002 cycles: 46636739 heartbeat IPC: 0.244242 cumulative IPC: 0.243138 (Simulation time: 0 hr 53 min 18 sec) 
Heartbeat CPU 0 instructions: 55000001 cycles: 50485717 heartbeat IPC: 0.259809 cumulative IPC: 0.246299 (Simulation time: 0 hr 54 min 42 sec) 
Heartbeat CPU 0 instructions: 56000000 cycles: 54752324 heartbeat IPC: 0.234378 cumulative IPC: 0.244229 (Simulation time: 0 hr 56 min 4 sec) 
Heartbeat CPU 0 instructions: 57000001 cycles: 58805809 heartbeat IPC: 0.246702 cumulative IPC: 0.244579 (Simulation time: 0 hr 57 min 24 sec) 
Heartbeat CPU 0 instructions: 58000000 cycles: 62051946 heartbeat IPC: 0.308058 cumulative IPC: 0.251045 (Simulation time: 0 hr 58 min 39 sec) 
Heartbeat CPU 0 instructions: 59000003 cycles: 65993731 heartbeat IPC: 0.253693 cumulative IPC: 0.251337 (Simulation time: 0 hr 59 min 56 sec) 
Heartbeat CPU 0 instructions: 60000000 cycles: 70409362 heartbeat IPC: 0.226468 cumulative IPC: 0.248607 (Simulation time: 1 hr 1 min 15 sec) 
Heartbeat CPU 0 instructions: 61000001 cycles: 74827307 heartbeat IPC: 0.22635 cumulative IPC: 0.246404 (Simulation time: 1 hr 2 min 40 sec) 
Heartbeat CPU 0 instructions: 62000000 cycles: 79247672 heartbeat IPC: 0.226225 cumulative IPC: 0.244586 (Simulation time: 1 hr 3 min 57 sec) 
Heartbeat CPU 0 instructions: 63000001 cycles: 82940822 heartbeat IPC: 0.270772 cumulative IPC: 0.246419 (Simulation time: 1 hr 5 min 14 sec) 
Heartbeat CPU 0 instructions: 64000000 cycles: 86762257 heartbeat IPC: 0.261682 cumulative IPC: 0.24745 (Simulation time: 1 hr 6 min 31 sec) 
Heartbeat CPU 0 instructions: 65000001 cycles: 90170704 heartbeat IPC: 0.293389 cumulative IPC: 0.25006 (Simulation time: 1 hr 7 min 48 sec) 
Heartbeat CPU 0 instructions: 66000002 cycles: 94134235 heartbeat IPC: 0.252301 cumulative IPC: 0.250199 (Simulation time: 1 hr 8 min 56 sec) 
Heartbeat CPU 0 instructions: 67000002 cycles: 97865986 heartbeat IPC: 0.267971 cumulative IPC: 0.251179 (Simulation time: 1 hr 10 min 7 sec) 
Heartbeat CPU 0 instructions: 68000000 cycles: 101728266 heartbeat IPC: 0.258914 cumulative IPC: 0.251597 (Simulation time: 1 hr 11 min 20 sec) 
Heartbeat CPU 0 instructions: 69000000 cycles: 105741601 heartbeat IPC: 0.249169 cumulative IPC: 0.251468 (Simulation time: 1 hr 12 min 33 sec) 
Heartbeat CPU 0 instructions: 70000001 cycles: 109441926 heartbeat IPC: 0.270247 cumulative IPC: 0.252345 (Simulation time: 1 hr 13 min 38 sec) 
Heartbeat CPU 0 instructions: 71000003 cycles: 113373144 heartbeat IPC: 0.254375 cumulative IPC: 0.25244 (Simulation time: 1 hr 14 min 46 sec) 
Heartbeat CPU 0 instructions: 72000000 cycles: 117836557 heartbeat IPC: 0.224043 cumulative IPC: 0.250994 (Simulation time: 1 hr 15 min 59 sec) 
Heartbeat CPU 0 instructions: 73000002 cycles: 121857740 heartbeat IPC: 0.248684 cumulative IPC: 0.250893 (Simulation time: 1 hr 17 min 0 sec) 
Heartbeat CPU 0 instructions: 74000000 cycles: 125686095 heartbeat IPC: 0.261208 cumulative IPC: 0.251307 (Simulation time: 1 hr 17 min 55 sec) 
Heartbeat CPU 0 instructions: 75000003 cycles: 129707339 heartbeat IPC: 0.24868 cumulative IPC: 0.2512 (Simulation time: 1 hr 18 min 48 sec) 
Heartbeat CPU 0 instructions: 76000000 cycles: 133515602 heartbeat IPC: 0.262586 cumulative IPC: 0.25162 (Simulation time: 1 hr 19 min 37 sec) 
Heartbeat CPU 0 instructions: 77000002 cycles: 138100725 heartbeat IPC: 0.218097 cumulative IPC: 0.250196 (Simulation time: 1 hr 20 min 22 sec) 
Heartbeat CPU 0 instructions: 78000003 cycles: 141909564 heartbeat IPC: 0.262547 cumulative IPC: 0.250617 (Simulation time: 1 hr 20 min 59 sec) 
Heartbeat CPU 0 instructions: 79000002 cycles: 145776079 heartbeat IPC: 0.258631 cumulative IPC: 0.250885 (Simulation time: 1 hr 21 min 34 sec) 
Heartbeat CPU 0 instructions: 80000000 cycles: 149580730 heartbeat IPC: 0.262836 cumulative IPC: 0.251266 (Simulation time: 1 hr 22 min 12 sec) 
Heartbeat CPU 0 instructions: 81000002 cycles: 153682921 heartbeat IPC: 0.243773 cumulative IPC: 0.251017 (Simulation time: 1 hr 22 min 51 sec) 
Heartbeat CPU 0 instructions: 82000000 cycles: 158191200 heartbeat IPC: 0.221814 cumulative IPC: 0.249988 (Simulation time: 1 hr 23 min 28 sec) 
Heartbeat CPU 0 instructions: 83000002 cycles: 161865857 heartbeat IPC: 0.272135 cumulative IPC: 0.250606 (Simulation time: 1 hr 24 min 2 sec) 
Heartbeat CPU 0 instructions: 84000000 cycles: 165781686 heartbeat IPC: 0.255373 cumulative IPC: 0.250744 (Simulation time: 1 hr 24 min 34 sec) 
Heartbeat CPU 0 instructions: 85000000 cycles: 169571619 heartbeat IPC: 0.263857 cumulative IPC: 0.251101 (Simulation time: 1 hr 25 min 6 sec) 
Heartbeat CPU 0 instructions: 86000000 cycles: 173461300 heartbeat IPC: 0.25709 cumulative IPC: 0.251263 (Simulation time: 1 hr 25 min 36 sec) 
Heartbeat CPU 0 instructions: 87000001 cycles: 177244568 heartbeat IPC: 0.264322 cumulative IPC: 0.251599 (Simulation time: 1 hr 26 min 4 sec) 
Heartbeat CPU 0 instructions: 88000000 cycles: 181042690 heartbeat IPC: 0.263288 cumulative IPC: 0.251893 (Simulation time: 1 hr 26 min 28 sec) 
Heartbeat CPU 0 instructions: 89000003 cycles: 184563314 heartbeat IPC: 0.284041 cumulative IPC: 0.252627 (Simulation time: 1 hr 26 min 49 sec) 
Heartbeat CPU 0 instructions: 90000000 cycles: 188462899 heartbeat IPC: 0.256437 cumulative IPC: 0.25272 (Simulation time: 1 hr 27 min 11 sec) 
Heartbeat CPU 0 instructions: 91000001 cycles: 192109597 heartbeat IPC: 0.274221 cumulative IPC: 0.253205 (Simulation time: 1 hr 27 min 34 sec) 
Heartbeat CPU 0 instructions: 92000000 cycles: 196226336 heartbeat IPC: 0.24291 cumulative IPC: 0.252949 (Simulation time: 1 hr 27 min 55 sec) 
Heartbeat CPU 0 instructions: 93000001 cycles: 200746281 heartbeat IPC: 0.221242 cumulative IPC: 0.252109 (Simulation time: 1 hr 28 min 20 sec) 
Heartbeat CPU 0 instructions: 94000001 cycles: 204623732 heartbeat IPC: 0.257901 cumulative IPC: 0.252238 (Simulation time: 1 hr 28 min 43 sec) 
Heartbeat CPU 0 instructions: 95000000 cycles: 208642508 heartbeat IPC: 0.248832 cumulative IPC: 0.252161 (Simulation time: 1 hr 29 min 7 sec) 
Heartbeat CPU 0 instructions: 96000000 cycles: 213026698 heartbeat IPC: 0.228092 cumulative IPC: 0.251584 (Simulation time: 1 hr 29 min 26 sec) 
Heartbeat CPU 0 instructions: 97000000 cycles: 216643157 heartbeat IPC: 0.276514 cumulative IPC: 0.252068 (Simulation time: 1 hr 29 min 43 sec) 
Heartbeat CPU 0 instructions: 98000000 cycles: 220882686 heartbeat IPC: 0.235875 cumulative IPC: 0.251708 (Simulation time: 1 hr 30 min 0 sec) 
Heartbeat CPU 0 instructions: 99000000 cycles: 225413652 heartbeat IPC: 0.220703 cumulative IPC: 0.250988 (Simulation time: 1 hr 30 min 14 sec) 
Heartbeat CPU 0 instructions: 100000000 cycles: 229464445 heartbeat IPC: 0.246865 cumulative IPC: 0.250904 (Simulation time: 1 hr 30 min 25 sec) 
Heartbeat CPU 0 instructions: 101000000 cycles: 233366305 heartbeat IPC: 0.256288 cumulative IPC: 0.251008 (Simulation time: 1 hr 30 min 34 sec) 
Heartbeat CPU 0 instructions: 102000003 cycles: 237519122 heartbeat IPC: 0.240801 cumulative IPC: 0.250803 (Simulation time: 1 hr 30 min 43 sec) 
Heartbeat CPU 0 instructions: 103000000 cycles: 241285331 heartbeat IPC: 0.265518 cumulative IPC: 0.251066 (Simulation time: 1 hr 30 min 51 sec) 
Heartbeat CPU 0 instructions: 104000000 cycles: 245119276 heartbeat IPC: 0.260828 cumulative IPC: 0.25124 (Simulation time: 1 hr 31 min 0 sec) 
Heartbeat CPU 0 instructions: 105000003 cycles: 249246267 heartbeat IPC: 0.242308 cumulative IPC: 0.251072 (Simulation time: 1 hr 31 min 8 sec) 
Heartbeat CPU 0 instructions: 106000001 cycles: 252922538 heartbeat IPC: 0.272014 cumulative IPC: 0.251417 (Simulation time: 1 hr 31 min 16 sec) 
Heartbeat CPU 0 instructions: 107000000 cycles: 257185013 heartbeat IPC: 0.234605 cumulative IPC: 0.251102 (Simulation time: 1 hr 31 min 23 sec) 
Heartbeat CPU 0 instructions: 108000000 cycles: 261200763 heartbeat IPC: 0.249019 cumulative IPC: 0.251065 (Simulation time: 1 hr 31 min 30 sec) 
Heartbeat CPU 0 instructions: 109000000 cycles: 265673461 heartbeat IPC: 0.223579 cumulative IPC: 0.250543 (Simulation time: 1 hr 31 min 37 sec) 
Heartbeat CPU 0 instructions: 110000000 cycles: 269329987 heartbeat IPC: 0.273484 cumulative IPC: 0.250894 (Simulation time: 1 hr 31 min 43 sec) 
Heartbeat CPU 0 instructions: 111000002 cycles: 273801970 heartbeat IPC: 0.223615 cumulative IPC: 0.250393 (Simulation time: 1 hr 31 min 50 sec) 
Heartbeat CPU 0 instructions: 112000000 cycles: 277721419 heartbeat IPC: 0.255137 cumulative IPC: 0.250468 (Simulation time: 1 hr 31 min 56 sec) 
Heartbeat CPU 0 instructions: 113000002 cycles: 281310169 heartbeat IPC: 0.278649 cumulative IPC: 0.250871 (Simulation time: 1 hr 32 min 2 sec) 
Heartbeat CPU 0 instructions: 114000000 cycles: 284772145 heartbeat IPC: 0.288852 cumulative IPC: 0.251388 (Simulation time: 1 hr 32 min 8 sec) 
Heartbeat CPU 0 instructions: 115000000 cycles: 288499299 heartbeat IPC: 0.268301 cumulative IPC: 0.251632 (Simulation time: 1 hr 32 min 14 sec) 
Heartbeat CPU 0 instructions: 116000000 cycles: 292645200 heartbeat IPC: 0.241202 cumulative IPC: 0.251467 (Simulation time: 1 hr 32 min 21 sec) 
Heartbeat CPU 0 instructions: 117000000 cycles: 296385914 heartbeat IPC: 0.267329 cumulative IPC: 0.25169 (Simulation time: 1 hr 32 min 28 sec) 
Heartbeat CPU 0 instructions: 118000000 cycles: 300056146 heartbeat IPC: 0.272462 cumulative IPC: 0.251972 (Simulation time: 1 hr 32 min 34 sec) 
Heartbeat CPU 0 instructions: 119000003 cycles: 303891492 heartbeat IPC: 0.260733 cumulative IPC: 0.252095 (Simulation time: 1 hr 32 min 41 sec) 
Heartbeat CPU 0 instructions: 120000000 cycles: 307588692 heartbeat IPC: 0.270474 cumulative IPC: 0.25234 (Simulation time: 1 hr 32 min 47 sec) 
Heartbeat CPU 0 instructions: 121000001 cycles: 311175641 heartbeat IPC: 0.278789 cumulative IPC: 0.252678 (Simulation time: 1 hr 32 min 53 sec) 
Heartbeat CPU 0 instructions: 122000001 cycles: 314828781 heartbeat IPC: 0.273737 cumulative IPC: 0.252948 (Simulation time: 1 hr 33 min 0 sec) 
Heartbeat CPU 0 instructions: 123000000 cycles: 318464101 heartbeat IPC: 0.275079 cumulative IPC: 0.253227 (Simulation time: 1 hr 33 min 6 sec) 
Heartbeat CPU 0 instructions: 124000000 cycles: 322142585 heartbeat IPC: 0.271851 cumulative IPC: 0.253462 (Simulation time: 1 hr 33 min 12 sec) 
Heartbeat CPU 0 instructions: 125000001 cycles: 325793073 heartbeat IPC: 0.273936 cumulative IPC: 0.253715 (Simulation time: 1 hr 33 min 18 sec) 
Heartbeat CPU 0 instructions: 126000003 cycles: 329316243 heartbeat IPC: 0.283836 cumulative IPC: 0.254069 (Simulation time: 1 hr 33 min 24 sec) 
Heartbeat CPU 0 instructions: 127000001 cycles: 332835243 heartbeat IPC: 0.284171 cumulative IPC: 0.254419 (Simulation time: 1 hr 33 min 30 sec) 
Heartbeat CPU 0 instructions: 128000000 cycles: 336455180 heartbeat IPC: 0.276248 cumulative IPC: 0.254677 (Simulation time: 1 hr 33 min 36 sec) 
Heartbeat CPU 0 instructions: 129000001 cycles: 339802212 heartbeat IPC: 0.298772 cumulative IPC: 0.255154 (Simulation time: 1 hr 33 min 42 sec) 
Heartbeat CPU 0 instructions: 130000000 cycles: 343437948 heartbeat IPC: 0.275047 cumulative IPC: 0.255385 (Simulation time: 1 hr 33 min 48 sec) 
Heartbeat CPU 0 instructions: 131000000 cycles: 347089554 heartbeat IPC: 0.273852 cumulative IPC: 0.255598 (Simulation time: 1 hr 33 min 54 sec) 
Heartbeat CPU 0 instructions: 132000000 cycles: 350921514 heartbeat IPC: 0.260963 cumulative IPC: 0.255662 (Simulation time: 1 hr 34 min 0 sec) 
Heartbeat CPU 0 instructions: 133000003 cycles: 354822449 heartbeat IPC: 0.25635 cumulative IPC: 0.25567 (Simulation time: 1 hr 34 min 6 sec) 
Heartbeat CPU 0 instructions: 134000000 cycles: 358828863 heartbeat IPC: 0.249599 cumulative IPC: 0.255596 (Simulation time: 1 hr 34 min 12 sec) 
Heartbeat CPU 0 instructions: 135000001 cycles: 362657374 heartbeat IPC: 0.261198 cumulative IPC: 0.255661 (Simulation time: 1 hr 34 min 18 sec) 
Heartbeat CPU 0 instructions: 136000000 cycles: 366448962 heartbeat IPC: 0.263741 cumulative IPC: 0.255752 (Simulation time: 1 hr 34 min 24 sec) 
Heartbeat CPU 0 instructions: 137000000 cycles: 370317026 heartbeat IPC: 0.258527 cumulative IPC: 0.255783 (Simulation time: 1 hr 34 min 30 sec) 
Heartbeat CPU 0 instructions: 138000000 cycles: 374149699 heartbeat IPC: 0.260915 cumulative IPC: 0.25584 (Simulation time: 1 hr 34 min 36 sec) 
Heartbeat CPU 0 instructions: 139000000 cycles: 378230109 heartbeat IPC: 0.245073 cumulative IPC: 0.255714 (Simulation time: 1 hr 34 min 42 sec) 
Heartbeat CPU 0 instructions: 140000000 cycles: 381781569 heartbeat IPC: 0.281574 cumulative IPC: 0.255975 (Simulation time: 1 hr 34 min 48 sec) 
Heartbeat CPU 0 instructions: 141000001 cycles: 386084769 heartbeat IPC: 0.232385 cumulative IPC: 0.25569 (Simulation time: 1 hr 34 min 54 sec) 
Heartbeat CPU 0 instructions: 142000000 cycles: 390174549 heartbeat IPC: 0.244512 cumulative IPC: 0.255563 (Simulation time: 1 hr 35 min 0 sec) 
Heartbeat CPU 0 instructions: 143000000 cycles: 394321560 heartbeat IPC: 0.241138 cumulative IPC: 0.255399 (Simulation time: 1 hr 35 min 5 sec) 
Heartbeat CPU 0 instructions: 144000000 cycles: 398345114 heartbeat IPC: 0.248536 cumulative IPC: 0.255324 (Simulation time: 1 hr 35 min 10 sec) 
Heartbeat CPU 0 instructions: 145000001 cycles: 401641152 heartbeat IPC: 0.303395 cumulative IPC: 0.25575 (Simulation time: 1 hr 35 min 16 sec) 
Heartbeat CPU 0 instructions: 146000001 cycles: 405853282 heartbeat IPC: 0.23741 cumulative IPC: 0.255545 (Simulation time: 1 hr 35 min 21 sec) 
Heartbeat CPU 0 instructions: 147000002 cycles: 410044787 heartbeat IPC: 0.238578 cumulative IPC: 0.255358 (Simulation time: 1 hr 35 min 27 sec) 
Heartbeat CPU 0 instructions: 148000000 cycles: 413806288 heartbeat IPC: 0.265851 cumulative IPC: 0.25546 (Simulation time: 1 hr 35 min 33 sec) 
Heartbeat CPU 0 instructions: 149000000 cycles: 417526812 heartbeat IPC: 0.268779 cumulative IPC: 0.255588 (Simulation time: 1 hr 35 min 38 sec) 
Heartbeat CPU 0 instructions: 150000000 cycles: 420731584 heartbeat IPC: 0.312035 cumulative IPC: 0.256052 (Simulation time: 1 hr 35 min 43 sec) 
Finished CPU 0 instructions: 100000000 cycles: 390546371 cummulative IPC: 0.256052 (Simulation time: 1 hr 35 min 43 sec) 

ChampSim completed all CPUs

Region of Interest Statistics

CPU 0 cummulative IPC: 0.256052 instructions: 100000000 cycles: 390546371
LLC TOTAL     ACCESS:    4288100  HIT:    1604621  MISS:    2683479
LLC LOAD      ACCESS:    1519056  HIT:     457838  MISS:    1061218
LLC RFO       ACCESS:     246618  HIT:      98448  MISS:     148170
LLC PREFETCH  ACCESS:    1524868  HIT:     322385  MISS:    1202483
LLC WRITEBACK ACCESS:     997558  HIT:     725950  MISS:     271608
OPTgen accesses: 39540
OPTgen hits: 20750
OPTgen hit rate: 52.4785


