
*** ChampSim Multicore Out-of-Order Simulator ***

Warmup Instructions: 50000000
Simulation Instructions: 100000000
Configuration: 2
Number of CPUs: 1
LLC sets: 2048
LLC ways: 16
Off-chip DRAM Channels: 1 Width: 64-bit Data Rate: 1600 MT/s

CPU 0 runs /datasets/cs240c-wi22-a00-public/data/Assignment2-gz/astar_23B.trace.gz
CPU 0 L1D next line prefetcher
CPU 0 L2C IP-based stride prefetcher
Initialize Hawkeye state
Heartbeat CPU 0 instructions: 1000000 cycles: 359869 heartbeat IPC: 2.77879 cumulative IPC: 2.77879 (Simulation time: 0 hr 0 min 32 sec) 
Heartbeat CPU 0 instructions: 2000001 cycles: 720498 heartbeat IPC: 2.77294 cumulative IPC: 2.77586 (Simulation time: 0 hr 1 min 3 sec) 
Heartbeat CPU 0 instructions: 3000000 cycles: 1079245 heartbeat IPC: 2.78748 cumulative IPC: 2.77972 (Simulation time: 0 hr 1 min 39 sec) 
Heartbeat CPU 0 instructions: 4000000 cycles: 1440499 heartbeat IPC: 2.76814 cumulative IPC: 2.77682 (Simulation time: 0 hr 2 min 13 sec) 
Heartbeat CPU 0 instructions: 5000000 cycles: 1802439 heartbeat IPC: 2.76289 cumulative IPC: 2.77402 (Simulation time: 0 hr 2 min 43 sec) 
Heartbeat CPU 0 instructions: 6000002 cycles: 2163910 heartbeat IPC: 2.76648 cumulative IPC: 2.77276 (Simulation time: 0 hr 3 min 13 sec) 
Heartbeat CPU 0 instructions: 7000002 cycles: 2525202 heartbeat IPC: 2.76784 cumulative IPC: 2.77206 (Simulation time: 0 hr 3 min 46 sec) 
Heartbeat CPU 0 instructions: 8000000 cycles: 2887899 heartbeat IPC: 2.75712 cumulative IPC: 2.77018 (Simulation time: 0 hr 4 min 19 sec) 
Heartbeat CPU 0 instructions: 9000000 cycles: 3250621 heartbeat IPC: 2.75693 cumulative IPC: 2.7687 (Simulation time: 0 hr 4 min 53 sec) 
Heartbeat CPU 0 instructions: 10000003 cycles: 3615245 heartbeat IPC: 2.74256 cumulative IPC: 2.76607 (Simulation time: 0 hr 5 min 29 sec) 
Heartbeat CPU 0 instructions: 11000000 cycles: 3979319 heartbeat IPC: 2.74669 cumulative IPC: 2.76429 (Simulation time: 0 hr 6 min 3 sec) 
Heartbeat CPU 0 instructions: 12000000 cycles: 4343809 heartbeat IPC: 2.74356 cumulative IPC: 2.76255 (Simulation time: 0 hr 6 min 39 sec) 
Heartbeat CPU 0 instructions: 13000001 cycles: 4706262 heartbeat IPC: 2.75898 cumulative IPC: 2.76228 (Simulation time: 0 hr 7 min 15 sec) 
Heartbeat CPU 0 instructions: 14000003 cycles: 5069096 heartbeat IPC: 2.75609 cumulative IPC: 2.76183 (Simulation time: 0 hr 7 min 50 sec) 
Heartbeat CPU 0 instructions: 15000003 cycles: 5431707 heartbeat IPC: 2.75778 cumulative IPC: 2.76156 (Simulation time: 0 hr 8 min 31 sec) 
Heartbeat CPU 0 instructions: 16000000 cycles: 5794049 heartbeat IPC: 2.75982 cumulative IPC: 2.76145 (Simulation time: 0 hr 9 min 5 sec) 
Heartbeat CPU 0 instructions: 17000000 cycles: 6155188 heartbeat IPC: 2.76902 cumulative IPC: 2.7619 (Simulation time: 0 hr 9 min 34 sec) 
Heartbeat CPU 0 instructions: 18000001 cycles: 6515371 heartbeat IPC: 2.77637 cumulative IPC: 2.7627 (Simulation time: 0 hr 10 min 6 sec) 
Heartbeat CPU 0 instructions: 19000002 cycles: 6876050 heartbeat IPC: 2.77255 cumulative IPC: 2.76321 (Simulation time: 0 hr 10 min 37 sec) 
Heartbeat CPU 0 instructions: 20000000 cycles: 7236049 heartbeat IPC: 2.77778 cumulative IPC: 2.76394 (Simulation time: 0 hr 11 min 9 sec) 
Heartbeat CPU 0 instructions: 21000001 cycles: 7596965 heartbeat IPC: 2.77073 cumulative IPC: 2.76426 (Simulation time: 0 hr 11 min 41 sec) 
Heartbeat CPU 0 instructions: 22000000 cycles: 7958985 heartbeat IPC: 2.76228 cumulative IPC: 2.76417 (Simulation time: 0 hr 12 min 13 sec) 
Heartbeat CPU 0 instructions: 23000000 cycles: 8320214 heartbeat IPC: 2.76833 cumulative IPC: 2.76435 (Simulation time: 0 hr 12 min 48 sec) 
Heartbeat CPU 0 instructions: 24000000 cycles: 8681015 heartbeat IPC: 2.77161 cumulative IPC: 2.76465 (Simulation time: 0 hr 13 min 24 sec) 
Heartbeat CPU 0 instructions: 25000001 cycles: 9041604 heartbeat IPC: 2.77324 cumulative IPC: 2.765 (Simulation time: 0 hr 13 min 55 sec) 
Heartbeat CPU 0 instructions: 26000002 cycles: 9402713 heartbeat IPC: 2.76925 cumulative IPC: 2.76516 (Simulation time: 0 hr 14 min 30 sec) 
Heartbeat CPU 0 instructions: 27000000 cycles: 9763215 heartbeat IPC: 2.7739 cumulative IPC: 2.76548 (Simulation time: 0 hr 15 min 2 sec) 
Heartbeat CPU 0 instructions: 28000000 cycles: 10124496 heartbeat IPC: 2.76793 cumulative IPC: 2.76557 (Simulation time: 0 hr 15 min 34 sec) 
Heartbeat CPU 0 instructions: 29000000 cycles: 10485988 heartbeat IPC: 2.76631 cumulative IPC: 2.7656 (Simulation time: 0 hr 16 min 11 sec) 
Heartbeat CPU 0 instructions: 30000000 cycles: 10848150 heartbeat IPC: 2.7612 cumulative IPC: 2.76545 (Simulation time: 0 hr 16 min 46 sec) 
Heartbeat CPU 0 instructions: 31000001 cycles: 11209319 heartbeat IPC: 2.76879 cumulative IPC: 2.76556 (Simulation time: 0 hr 17 min 19 sec) 
Heartbeat CPU 0 instructions: 32000000 cycles: 11570039 heartbeat IPC: 2.77223 cumulative IPC: 2.76576 (Simulation time: 0 hr 17 min 55 sec) 
Heartbeat CPU 0 instructions: 33000002 cycles: 11930963 heartbeat IPC: 2.77067 cumulative IPC: 2.76591 (Simulation time: 0 hr 18 min 29 sec) 
Heartbeat CPU 0 instructions: 34000001 cycles: 12292587 heartbeat IPC: 2.7653 cumulative IPC: 2.76589 (Simulation time: 0 hr 19 min 3 sec) 
Heartbeat CPU 0 instructions: 35000000 cycles: 12653294 heartbeat IPC: 2.77233 cumulative IPC: 2.76608 (Simulation time: 0 hr 19 min 34 sec) 
Heartbeat CPU 0 instructions: 36000000 cycles: 13013133 heartbeat IPC: 2.77902 cumulative IPC: 2.76644 (Simulation time: 0 hr 20 min 8 sec) 
Heartbeat CPU 0 instructions: 37000000 cycles: 13372958 heartbeat IPC: 2.77913 cumulative IPC: 2.76678 (Simulation time: 0 hr 20 min 40 sec) 
Heartbeat CPU 0 instructions: 38000003 cycles: 13733011 heartbeat IPC: 2.77738 cumulative IPC: 2.76706 (Simulation time: 0 hr 21 min 16 sec) 
Heartbeat CPU 0 instructions: 39000003 cycles: 14093626 heartbeat IPC: 2.77304 cumulative IPC: 2.76721 (Simulation time: 0 hr 21 min 49 sec) 
Heartbeat CPU 0 instructions: 40000000 cycles: 14453877 heartbeat IPC: 2.77583 cumulative IPC: 2.76742 (Simulation time: 0 hr 22 min 23 sec) 
Heartbeat CPU 0 instructions: 41000002 cycles: 14813998 heartbeat IPC: 2.77685 cumulative IPC: 2.76765 (Simulation time: 0 hr 23 min 1 sec) 
Heartbeat CPU 0 instructions: 42000003 cycles: 15175810 heartbeat IPC: 2.76387 cumulative IPC: 2.76756 (Simulation time: 0 hr 23 min 33 sec) 
Heartbeat CPU 0 instructions: 43000003 cycles: 15537000 heartbeat IPC: 2.76863 cumulative IPC: 2.76759 (Simulation time: 0 hr 24 min 4 sec) 
Heartbeat CPU 0 instructions: 44000000 cycles: 15899924 heartbeat IPC: 2.75539 cumulative IPC: 2.76731 (Simulation time: 0 hr 24 min 39 sec) 
Heartbeat CPU 0 instructions: 45000002 cycles: 16264041 heartbeat IPC: 2.74638 cumulative IPC: 2.76684 (Simulation time: 0 hr 25 min 11 sec) 
Heartbeat CPU 0 instructions: 46000001 cycles: 16628067 heartbeat IPC: 2.74705 cumulative IPC: 2.76641 (Simulation time: 0 hr 25 min 47 sec) 
Heartbeat CPU 0 instructions: 47000002 cycles: 16991880 heartbeat IPC: 2.74867 cumulative IPC: 2.76603 (Simulation time: 0 hr 26 min 22 sec) 
Heartbeat CPU 0 instructions: 48000000 cycles: 17354259 heartbeat IPC: 2.75954 cumulative IPC: 2.76589 (Simulation time: 0 hr 26 min 53 sec) 
Heartbeat CPU 0 instructions: 49000000 cycles: 17716466 heartbeat IPC: 2.76085 cumulative IPC: 2.76579 (Simulation time: 0 hr 27 min 25 sec) 
Heartbeat CPU 0 instructions: 50000000 cycles: 18078275 heartbeat IPC: 2.76389 cumulative IPC: 2.76575 (Simulation time: 0 hr 27 min 57 sec) 

Warmup complete CPU 0 instructions: 50000004 cycles: 18078276 (Simulation time: 0 hr 27 min 57 sec) 

Heartbeat CPU 0 instructions: 51000001 cycles: 21806694 heartbeat IPC: 0.26821 cumulative IPC: 0.268209 (Simulation time: 0 hr 28 min 30 sec) 
Heartbeat CPU 0 instructions: 52000000 cycles: 25780689 heartbeat IPC: 0.251636 cumulative IPC: 0.259658 (Simulation time: 0 hr 29 min 4 sec) 
Heartbeat CPU 0 instructions: 53000000 cycles: 28589212 heartbeat IPC: 0.356059 cumulative IPC: 0.285417 (Simulation time: 0 hr 29 min 40 sec) 
Heartbeat CPU 0 instructions: 54000002 cycles: 31447206 heartbeat IPC: 0.349896 cumulative IPC: 0.299201 (Simulation time: 0 hr 30 min 12 sec) 
Heartbeat CPU 0 instructions: 55000002 cycles: 34260879 heartbeat IPC: 0.355407 cumulative IPC: 0.308974 (Simulation time: 0 hr 30 min 43 sec) 
Heartbeat CPU 0 instructions: 56000000 cycles: 37022154 heartbeat IPC: 0.362151 cumulative IPC: 0.316725 (Simulation time: 0 hr 31 min 15 sec) 
Heartbeat CPU 0 instructions: 57000000 cycles: 39612866 heartbeat IPC: 0.385994 cumulative IPC: 0.325058 (Simulation time: 0 hr 31 min 49 sec) 
Heartbeat CPU 0 instructions: 58000001 cycles: 42180318 heartbeat IPC: 0.389492 cumulative IPC: 0.331922 (Simulation time: 0 hr 32 min 20 sec) 
Heartbeat CPU 0 instructions: 59000000 cycles: 44950551 heartbeat IPC: 0.36098 cumulative IPC: 0.334918 (Simulation time: 0 hr 32 min 54 sec) 
Heartbeat CPU 0 instructions: 60000000 cycles: 47524489 heartbeat IPC: 0.38851 cumulative IPC: 0.339602 (Simulation time: 0 hr 33 min 27 sec) 
Heartbeat CPU 0 instructions: 61000000 cycles: 50017534 heartbeat IPC: 0.401116 cumulative IPC: 0.344404 (Simulation time: 0 hr 33 min 58 sec) 
Heartbeat CPU 0 instructions: 62000003 cycles: 52486637 heartbeat IPC: 0.405007 cumulative IPC: 0.348752 (Simulation time: 0 hr 34 min 31 sec) 
Heartbeat CPU 0 instructions: 63000000 cycles: 55105063 heartbeat IPC: 0.381908 cumulative IPC: 0.351097 (Simulation time: 0 hr 35 min 1 sec) 
Heartbeat CPU 0 instructions: 64000000 cycles: 57629971 heartbeat IPC: 0.396054 cumulative IPC: 0.353967 (Simulation time: 0 hr 35 min 39 sec) 
Heartbeat CPU 0 instructions: 65000000 cycles: 60074434 heartbeat IPC: 0.409088 cumulative IPC: 0.357175 (Simulation time: 0 hr 36 min 11 sec) 
Heartbeat CPU 0 instructions: 66000000 cycles: 62539107 heartbeat IPC: 0.405733 cumulative IPC: 0.359867 (Simulation time: 0 hr 36 min 41 sec) 
Heartbeat CPU 0 instructions: 67000000 cycles: 65012333 heartbeat IPC: 0.40433 cumulative IPC: 0.36221 (Simulation time: 0 hr 37 min 11 sec) 
Heartbeat CPU 0 instructions: 68000000 cycles: 67403361 heartbeat IPC: 0.41823 cumulative IPC: 0.364926 (Simulation time: 0 hr 37 min 50 sec) 
Heartbeat CPU 0 instructions: 69000000 cycles: 69986387 heartbeat IPC: 0.387143 cumulative IPC: 0.366031 (Simulation time: 0 hr 38 min 23 sec) 
Heartbeat CPU 0 instructions: 70000000 cycles: 72522561 heartbeat IPC: 0.394295 cumulative IPC: 0.367348 (Simulation time: 0 hr 38 min 54 sec) 
Heartbeat CPU 0 instructions: 71000001 cycles: 75119747 heartbeat IPC: 0.385033 cumulative IPC: 0.368153 (Simulation time: 0 hr 39 min 25 sec) 
Heartbeat CPU 0 instructions: 72000000 cycles: 77743681 heartbeat IPC: 0.381107 cumulative IPC: 0.368723 (Simulation time: 0 hr 39 min 56 sec) 
Heartbeat CPU 0 instructions: 73000001 cycles: 80246183 heartbeat IPC: 0.3996 cumulative IPC: 0.369966 (Simulation time: 0 hr 40 min 28 sec) 
Heartbeat CPU 0 instructions: 74000002 cycles: 82494201 heartbeat IPC: 0.444837 cumulative IPC: 0.372579 (Simulation time: 0 hr 41 min 1 sec) 
Heartbeat CPU 0 instructions: 75000002 cycles: 84982649 heartbeat IPC: 0.401857 cumulative IPC: 0.373668 (Simulation time: 0 hr 41 min 31 sec) 
Heartbeat CPU 0 instructions: 76000000 cycles: 87475633 heartbeat IPC: 0.401125 cumulative IPC: 0.374654 (Simulation time: 0 hr 42 min 4 sec) 
Heartbeat CPU 0 instructions: 77000000 cycles: 90535536 heartbeat IPC: 0.326808 cumulative IPC: 0.372633 (Simulation time: 0 hr 42 min 35 sec) 
Heartbeat CPU 0 instructions: 78000003 cycles: 93551820 heartbeat IPC: 0.331535 cumulative IPC: 0.370991 (Simulation time: 0 hr 43 min 6 sec) 
Heartbeat CPU 0 instructions: 79000001 cycles: 96000343 heartbeat IPC: 0.408409 cumulative IPC: 0.372167 (Simulation time: 0 hr 43 min 38 sec) 
Heartbeat CPU 0 instructions: 80000000 cycles: 98569593 heartbeat IPC: 0.389218 cumulative IPC: 0.372711 (Simulation time: 0 hr 44 min 15 sec) 
Heartbeat CPU 0 instructions: 81000001 cycles: 101168253 heartbeat IPC: 0.384814 cumulative IPC: 0.373089 (Simulation time: 0 hr 44 min 46 sec) 
Heartbeat CPU 0 instructions: 82000002 cycles: 103710982 heartbeat IPC: 0.393279 cumulative IPC: 0.373689 (Simulation time: 0 hr 45 min 18 sec) 
Heartbeat CPU 0 instructions: 83000002 cycles: 106145957 heartbeat IPC: 0.410682 cumulative IPC: 0.374712 (Simulation time: 0 hr 46 min 0 sec) 
Heartbeat CPU 0 instructions: 84000000 cycles: 108621778 heartbeat IPC: 0.403906 cumulative IPC: 0.37551 (Simulation time: 0 hr 46 min 40 sec) 
Heartbeat CPU 0 instructions: 85000000 cycles: 111121733 heartbeat IPC: 0.400007 cumulative IPC: 0.376168 (Simulation time: 0 hr 47 min 17 sec) 
Heartbeat CPU 0 instructions: 86000001 cycles: 113527031 heartbeat IPC: 0.415749 cumulative IPC: 0.377166 (Simulation time: 0 hr 47 min 46 sec) 
Heartbeat CPU 0 instructions: 87000000 cycles: 115896009 heartbeat IPC: 0.422123 cumulative IPC: 0.378254 (Simulation time: 0 hr 48 min 22 sec) 
Heartbeat CPU 0 instructions: 88000000 cycles: 118414564 heartbeat IPC: 0.397053 cumulative IPC: 0.378726 (Simulation time: 0 hr 48 min 53 sec) 
Heartbeat CPU 0 instructions: 89000000 cycles: 120957816 heartbeat IPC: 0.393197 cumulative IPC: 0.379084 (Simulation time: 0 hr 49 min 29 sec) 
Heartbeat CPU 0 instructions: 90000001 cycles: 123439270 heartbeat IPC: 0.40299 cumulative IPC: 0.379647 (Simulation time: 0 hr 50 min 10 sec) 
Heartbeat CPU 0 instructions: 91000000 cycles: 125877660 heartbeat IPC: 0.410106 cumulative IPC: 0.380336 (Simulation time: 0 hr 50 min 48 sec) 
Heartbeat CPU 0 instructions: 92000000 cycles: 128813658 heartbeat IPC: 0.3406 cumulative IPC: 0.379283 (Simulation time: 0 hr 51 min 26 sec) 
Heartbeat CPU 0 instructions: 93000000 cycles: 131344890 heartbeat IPC: 0.395065 cumulative IPC: 0.379635 (Simulation time: 0 hr 52 min 1 sec) 
Heartbeat CPU 0 instructions: 94000003 cycles: 133881619 heartbeat IPC: 0.39421 cumulative IPC: 0.379954 (Simulation time: 0 hr 52 min 35 sec) 
Heartbeat CPU 0 instructions: 95000000 cycles: 136308477 heartbeat IPC: 0.412054 cumulative IPC: 0.380613 (Simulation time: 0 hr 53 min 10 sec) 
Heartbeat CPU 0 instructions: 96000000 cycles: 138823189 heartbeat IPC: 0.39766 cumulative IPC: 0.380968 (Simulation time: 0 hr 53 min 42 sec) 
Heartbeat CPU 0 instructions: 97000000 cycles: 141251123 heartbeat IPC: 0.411873 cumulative IPC: 0.381578 (Simulation time: 0 hr 54 min 17 sec) 
Heartbeat CPU 0 instructions: 98000000 cycles: 143771433 heartbeat IPC: 0.396777 cumulative IPC: 0.381882 (Simulation time: 0 hr 54 min 49 sec) 
Heartbeat CPU 0 instructions: 99000002 cycles: 146728064 heartbeat IPC: 0.338223 cumulative IPC: 0.380879 (Simulation time: 0 hr 55 min 20 sec) 
Heartbeat CPU 0 instructions: 100000000 cycles: 149478024 heartbeat IPC: 0.363641 cumulative IPC: 0.380518 (Simulation time: 0 hr 55 min 53 sec) 
Heartbeat CPU 0 instructions: 101000000 cycles: 152408419 heartbeat IPC: 0.341251 cumulative IPC: 0.379662 (Simulation time: 0 hr 56 min 25 sec) 
Heartbeat CPU 0 instructions: 102000001 cycles: 155872765 heartbeat IPC: 0.288655 cumulative IPC: 0.377374 (Simulation time: 0 hr 56 min 56 sec) 
Heartbeat CPU 0 instructions: 103000002 cycles: 159346993 heartbeat IPC: 0.287834 cumulative IPC: 0.375172 (Simulation time: 0 hr 57 min 28 sec) 
Heartbeat CPU 0 instructions: 104000000 cycles: 162450247 heartbeat IPC: 0.322242 cumulative IPC: 0.374034 (Simulation time: 0 hr 58 min 0 sec) 
Heartbeat CPU 0 instructions: 105000001 cycles: 165254075 heartbeat IPC: 0.356656 cumulative IPC: 0.373703 (Simulation time: 0 hr 58 min 33 sec) 
Heartbeat CPU 0 instructions: 106000001 cycles: 167864917 heartbeat IPC: 0.383018 cumulative IPC: 0.373865 (Simulation time: 0 hr 59 min 4 sec) 
Heartbeat CPU 0 instructions: 107000002 cycles: 170635472 heartbeat IPC: 0.360939 cumulative IPC: 0.37363 (Simulation time: 0 hr 59 min 34 sec) 
Heartbeat CPU 0 instructions: 108000000 cycles: 173556863 heartbeat IPC: 0.342302 cumulative IPC: 0.373042 (Simulation time: 1 hr 0 min 4 sec) 
Heartbeat CPU 0 instructions: 109000003 cycles: 176610860 heartbeat IPC: 0.327441 cumulative IPC: 0.372163 (Simulation time: 1 hr 0 min 36 sec) 
Heartbeat CPU 0 instructions: 110000003 cycles: 179602128 heartbeat IPC: 0.334306 cumulative IPC: 0.371462 (Simulation time: 1 hr 1 min 6 sec) 
Heartbeat CPU 0 instructions: 111000001 cycles: 182743504 heartbeat IPC: 0.318331 cumulative IPC: 0.370449 (Simulation time: 1 hr 1 min 36 sec) 
Heartbeat CPU 0 instructions: 112000000 cycles: 185925475 heartbeat IPC: 0.31427 cumulative IPC: 0.369384 (Simulation time: 1 hr 2 min 9 sec) 
Heartbeat CPU 0 instructions: 113000001 cycles: 188807549 heartbeat IPC: 0.346973 cumulative IPC: 0.369005 (Simulation time: 1 hr 2 min 44 sec) 
Heartbeat CPU 0 instructions: 114000000 cycles: 191543438 heartbeat IPC: 0.365512 cumulative IPC: 0.36895 (Simulation time: 1 hr 3 min 17 sec) 
Heartbeat CPU 0 instructions: 115000000 cycles: 194283561 heartbeat IPC: 0.364947 cumulative IPC: 0.368888 (Simulation time: 1 hr 3 min 51 sec) 
Heartbeat CPU 0 instructions: 116000000 cycles: 196985039 heartbeat IPC: 0.370168 cumulative IPC: 0.368907 (Simulation time: 1 hr 4 min 29 sec) 
Heartbeat CPU 0 instructions: 117000001 cycles: 199333752 heartbeat IPC: 0.425766 cumulative IPC: 0.369644 (Simulation time: 1 hr 5 min 4 sec) 
Heartbeat CPU 0 instructions: 118000002 cycles: 201620069 heartbeat IPC: 0.437385 cumulative IPC: 0.370488 (Simulation time: 1 hr 5 min 37 sec) 
Heartbeat CPU 0 instructions: 119000002 cycles: 204139870 heartbeat IPC: 0.396857 cumulative IPC: 0.370845 (Simulation time: 1 hr 6 min 10 sec) 
Heartbeat CPU 0 instructions: 120000000 cycles: 206893326 heartbeat IPC: 0.363179 cumulative IPC: 0.370733 (Simulation time: 1 hr 6 min 43 sec) 
Heartbeat CPU 0 instructions: 121000002 cycles: 209598850 heartbeat IPC: 0.369615 cumulative IPC: 0.370717 (Simulation time: 1 hr 7 min 16 sec) 
Heartbeat CPU 0 instructions: 122000001 cycles: 212537440 heartbeat IPC: 0.340299 cumulative IPC: 0.370258 (Simulation time: 1 hr 7 min 48 sec) 
Heartbeat CPU 0 instructions: 123000000 cycles: 215803409 heartbeat IPC: 0.306188 cumulative IPC: 0.369199 (Simulation time: 1 hr 8 min 21 sec) 
Heartbeat CPU 0 instructions: 124000000 cycles: 219344831 heartbeat IPC: 0.282372 cumulative IPC: 0.367672 (Simulation time: 1 hr 8 min 54 sec) 
Heartbeat CPU 0 instructions: 125000002 cycles: 222893015 heartbeat IPC: 0.281835 cumulative IPC: 0.366185 (Simulation time: 1 hr 9 min 26 sec) 
Heartbeat CPU 0 instructions: 126000000 cycles: 226816406 heartbeat IPC: 0.254881 cumulative IPC: 0.364093 (Simulation time: 1 hr 10 min 3 sec) 
Heartbeat CPU 0 instructions: 127000002 cycles: 231007592 heartbeat IPC: 0.238596 cumulative IPC: 0.361622 (Simulation time: 1 hr 10 min 34 sec) 
Heartbeat CPU 0 instructions: 128000000 cycles: 235139977 heartbeat IPC: 0.241991 cumulative IPC: 0.359345 (Simulation time: 1 hr 11 min 4 sec) 
Heartbeat CPU 0 instructions: 129000003 cycles: 239333767 heartbeat IPC: 0.238449 cumulative IPC: 0.357053 (Simulation time: 1 hr 11 min 33 sec) 
Heartbeat CPU 0 instructions: 130000003 cycles: 243454984 heartbeat IPC: 0.242647 cumulative IPC: 0.354961 (Simulation time: 1 hr 12 min 6 sec) 
Heartbeat CPU 0 instructions: 131000000 cycles: 247363320 heartbeat IPC: 0.255863 cumulative IPC: 0.353272 (Simulation time: 1 hr 12 min 34 sec) 
Heartbeat CPU 0 instructions: 132000000 cycles: 251457762 heartbeat IPC: 0.244234 cumulative IPC: 0.351359 (Simulation time: 1 hr 13 min 7 sec) 
Heartbeat CPU 0 instructions: 133000002 cycles: 255442612 heartbeat IPC: 0.250951 cumulative IPC: 0.349673 (Simulation time: 1 hr 13 min 44 sec) 
Heartbeat CPU 0 instructions: 134000000 cycles: 259437438 heartbeat IPC: 0.250323 cumulative IPC: 0.348029 (Simulation time: 1 hr 14 min 13 sec) 
Heartbeat CPU 0 instructions: 135000001 cycles: 263639808 heartbeat IPC: 0.237961 cumulative IPC: 0.346145 (Simulation time: 1 hr 14 min 43 sec) 
Heartbeat CPU 0 instructions: 136000000 cycles: 268118901 heartbeat IPC: 0.223259 cumulative IPC: 0.343944 (Simulation time: 1 hr 15 min 16 sec) 
Heartbeat CPU 0 instructions: 137000000 cycles: 272748016 heartbeat IPC: 0.216024 cumulative IPC: 0.341619 (Simulation time: 1 hr 15 min 45 sec) 
Heartbeat CPU 0 instructions: 138000000 cycles: 276594943 heartbeat IPC: 0.259948 cumulative IPC: 0.340404 (Simulation time: 1 hr 16 min 15 sec) 
Heartbeat CPU 0 instructions: 139000001 cycles: 278880589 heartbeat IPC: 0.437514 cumulative IPC: 0.341255 (Simulation time: 1 hr 16 min 40 sec) 
Heartbeat CPU 0 instructions: 140000000 cycles: 281457362 heartbeat IPC: 0.388082 cumulative IPC: 0.341713 (Simulation time: 1 hr 17 min 4 sec) 
Heartbeat CPU 0 instructions: 141000000 cycles: 283606077 heartbeat IPC: 0.465394 cumulative IPC: 0.342714 (Simulation time: 1 hr 17 min 27 sec) 
Heartbeat CPU 0 instructions: 142000000 cycles: 285967515 heartbeat IPC: 0.423471 cumulative IPC: 0.343426 (Simulation time: 1 hr 17 min 50 sec) 
Heartbeat CPU 0 instructions: 143000000 cycles: 288533040 heartbeat IPC: 0.389784 cumulative IPC: 0.343865 (Simulation time: 1 hr 18 min 12 sec) 
Heartbeat CPU 0 instructions: 144000000 cycles: 291062907 heartbeat IPC: 0.395278 cumulative IPC: 0.344342 (Simulation time: 1 hr 18 min 34 sec) 
Heartbeat CPU 0 instructions: 145000000 cycles: 293474726 heartbeat IPC: 0.414625 cumulative IPC: 0.344957 (Simulation time: 1 hr 18 min 57 sec) 
Heartbeat CPU 0 instructions: 146000001 cycles: 296260590 heartbeat IPC: 0.358955 cumulative IPC: 0.345097 (Simulation time: 1 hr 19 min 20 sec) 
Heartbeat CPU 0 instructions: 147000001 cycles: 298920650 heartbeat IPC: 0.375931 cumulative IPC: 0.345389 (Simulation time: 1 hr 19 min 43 sec) 
Heartbeat CPU 0 instructions: 148000000 cycles: 301597501 heartbeat IPC: 0.373573 cumulative IPC: 0.345656 (Simulation time: 1 hr 20 min 2 sec) 
Heartbeat CPU 0 instructions: 149000002 cycles: 304183290 heartbeat IPC: 0.38673 cumulative IPC: 0.346027 (Simulation time: 1 hr 20 min 26 sec) 
Heartbeat CPU 0 instructions: 150000001 cycles: 307353610 heartbeat IPC: 0.315425 cumulative IPC: 0.345691 (Simulation time: 1 hr 20 min 47 sec) 
Finished CPU 0 instructions: 100000000 cycles: 289275352 cummulative IPC: 0.345691 (Simulation time: 1 hr 20 min 47 sec) 

ChampSim completed all CPUs

Region of Interest Statistics

CPU 0 cummulative IPC: 0.345691 instructions: 100000000 cycles: 289275352
LLC TOTAL     ACCESS:    5177830  HIT:    4881235  MISS:     296595
LLC LOAD      ACCESS:    2110908  HIT:    2001130  MISS:     109778
LLC RFO       ACCESS:      25553  HIT:      25054  MISS:        499
LLC PREFETCH  ACCESS:    2248611  HIT:    2064304  MISS:     184307
LLC WRITEBACK ACCESS:     792758  HIT:     790747  MISS:       2011
OPTgen accesses: 51963
OPTgen hits: 65831
OPTgen hit rate: 126.688


