
*** ChampSim Multicore Out-of-Order Simulator ***

Warmup Instructions: 50000000
Simulation Instructions: 100000000
Configuration: 2
Number of CPUs: 1
LLC sets: 2048
LLC ways: 16
Off-chip DRAM Channels: 1 Width: 64-bit Data Rate: 1600 MT/s

CPU 0 runs /datasets/cs240c-wi22-a00-public/data/Assignment2-gz/bzip2_281B.trace.gz
CPU 0 L1D next line prefetcher
CPU 0 L2C IP-based stride prefetcher
Initialize Hawkeye state
Heartbeat CPU 0 instructions: 1000000 cycles: 445877 heartbeat IPC: 2.24277 cumulative IPC: 2.24277 (Simulation time: 0 hr 0 min 40 sec) 
Heartbeat CPU 0 instructions: 2000003 cycles: 900175 heartbeat IPC: 2.20121 cumulative IPC: 2.22179 (Simulation time: 0 hr 1 min 14 sec) 
Heartbeat CPU 0 instructions: 3000002 cycles: 1315067 heartbeat IPC: 2.41026 cumulative IPC: 2.28125 (Simulation time: 0 hr 1 min 46 sec) 
Heartbeat CPU 0 instructions: 4000000 cycles: 1753556 heartbeat IPC: 2.28055 cumulative IPC: 2.28108 (Simulation time: 0 hr 2 min 22 sec) 
Heartbeat CPU 0 instructions: 5000002 cycles: 2175545 heartbeat IPC: 2.36973 cumulative IPC: 2.29828 (Simulation time: 0 hr 2 min 52 sec) 
Heartbeat CPU 0 instructions: 6000000 cycles: 2666194 heartbeat IPC: 2.03811 cumulative IPC: 2.2504 (Simulation time: 0 hr 3 min 25 sec) 
Heartbeat CPU 0 instructions: 7000001 cycles: 3193462 heartbeat IPC: 1.89657 cumulative IPC: 2.19198 (Simulation time: 0 hr 3 min 59 sec) 
Heartbeat CPU 0 instructions: 8000000 cycles: 3726055 heartbeat IPC: 1.8776 cumulative IPC: 2.14704 (Simulation time: 0 hr 4 min 40 sec) 
Heartbeat CPU 0 instructions: 9000000 cycles: 4232472 heartbeat IPC: 1.97466 cumulative IPC: 2.12642 (Simulation time: 0 hr 5 min 19 sec) 
Heartbeat CPU 0 instructions: 10000002 cycles: 4685414 heartbeat IPC: 2.20779 cumulative IPC: 2.13428 (Simulation time: 0 hr 5 min 52 sec) 
Heartbeat CPU 0 instructions: 11000000 cycles: 5132849 heartbeat IPC: 2.23496 cumulative IPC: 2.14306 (Simulation time: 0 hr 6 min 24 sec) 
Heartbeat CPU 0 instructions: 12000000 cycles: 5613926 heartbeat IPC: 2.07867 cumulative IPC: 2.13754 (Simulation time: 0 hr 6 min 56 sec) 
Heartbeat CPU 0 instructions: 13000001 cycles: 6025310 heartbeat IPC: 2.43082 cumulative IPC: 2.15757 (Simulation time: 0 hr 7 min 28 sec) 
Heartbeat CPU 0 instructions: 14000003 cycles: 6483725 heartbeat IPC: 2.18143 cumulative IPC: 2.15925 (Simulation time: 0 hr 7 min 59 sec) 
Heartbeat CPU 0 instructions: 15000003 cycles: 6944068 heartbeat IPC: 2.17229 cumulative IPC: 2.16012 (Simulation time: 0 hr 8 min 33 sec) 
Heartbeat CPU 0 instructions: 16000000 cycles: 7340650 heartbeat IPC: 2.52154 cumulative IPC: 2.17964 (Simulation time: 0 hr 9 min 3 sec) 
Heartbeat CPU 0 instructions: 17000000 cycles: 7729809 heartbeat IPC: 2.56964 cumulative IPC: 2.19928 (Simulation time: 0 hr 9 min 34 sec) 
Heartbeat CPU 0 instructions: 18000002 cycles: 8186000 heartbeat IPC: 2.19207 cumulative IPC: 2.19888 (Simulation time: 0 hr 10 min 8 sec) 
Heartbeat CPU 0 instructions: 19000000 cycles: 8631937 heartbeat IPC: 2.24246 cumulative IPC: 2.20113 (Simulation time: 0 hr 10 min 42 sec) 
Heartbeat CPU 0 instructions: 20000000 cycles: 9076931 heartbeat IPC: 2.24722 cumulative IPC: 2.20339 (Simulation time: 0 hr 11 min 14 sec) 
Heartbeat CPU 0 instructions: 21000000 cycles: 9463985 heartbeat IPC: 2.58362 cumulative IPC: 2.21894 (Simulation time: 0 hr 11 min 44 sec) 
Heartbeat CPU 0 instructions: 22000003 cycles: 9839765 heartbeat IPC: 2.66114 cumulative IPC: 2.23583 (Simulation time: 0 hr 12 min 12 sec) 
Heartbeat CPU 0 instructions: 23000001 cycles: 10292743 heartbeat IPC: 2.20761 cumulative IPC: 2.23458 (Simulation time: 0 hr 12 min 43 sec) 
Heartbeat CPU 0 instructions: 24000000 cycles: 10747271 heartbeat IPC: 2.20008 cumulative IPC: 2.23312 (Simulation time: 0 hr 13 min 17 sec) 
Heartbeat CPU 0 instructions: 25000001 cycles: 11090801 heartbeat IPC: 2.91096 cumulative IPC: 2.25412 (Simulation time: 0 hr 13 min 48 sec) 
Heartbeat CPU 0 instructions: 26000003 cycles: 11528441 heartbeat IPC: 2.28499 cumulative IPC: 2.25529 (Simulation time: 0 hr 14 min 23 sec) 
Heartbeat CPU 0 instructions: 27000003 cycles: 12001010 heartbeat IPC: 2.11609 cumulative IPC: 2.24981 (Simulation time: 0 hr 14 min 53 sec) 
Heartbeat CPU 0 instructions: 28000000 cycles: 12327512 heartbeat IPC: 3.06276 cumulative IPC: 2.27134 (Simulation time: 0 hr 15 min 16 sec) 
Heartbeat CPU 0 instructions: 29000001 cycles: 12624389 heartbeat IPC: 3.3684 cumulative IPC: 2.29714 (Simulation time: 0 hr 15 min 39 sec) 
Heartbeat CPU 0 instructions: 30000000 cycles: 12921263 heartbeat IPC: 3.36843 cumulative IPC: 2.32175 (Simulation time: 0 hr 16 min 4 sec) 
Heartbeat CPU 0 instructions: 31000000 cycles: 13263622 heartbeat IPC: 2.92091 cumulative IPC: 2.33722 (Simulation time: 0 hr 16 min 28 sec) 
Heartbeat CPU 0 instructions: 32000000 cycles: 13610152 heartbeat IPC: 2.88575 cumulative IPC: 2.35119 (Simulation time: 0 hr 16 min 56 sec) 
Heartbeat CPU 0 instructions: 33000001 cycles: 13968669 heartbeat IPC: 2.78927 cumulative IPC: 2.36243 (Simulation time: 0 hr 17 min 22 sec) 
Heartbeat CPU 0 instructions: 34000001 cycles: 14312271 heartbeat IPC: 2.91034 cumulative IPC: 2.37558 (Simulation time: 0 hr 17 min 48 sec) 
Heartbeat CPU 0 instructions: 35000003 cycles: 14653369 heartbeat IPC: 2.93171 cumulative IPC: 2.38853 (Simulation time: 0 hr 18 min 12 sec) 
Heartbeat CPU 0 instructions: 36000000 cycles: 14991732 heartbeat IPC: 2.9554 cumulative IPC: 2.40132 (Simulation time: 0 hr 18 min 36 sec) 
Heartbeat CPU 0 instructions: 37000000 cycles: 15330849 heartbeat IPC: 2.94883 cumulative IPC: 2.41343 (Simulation time: 0 hr 18 min 59 sec) 
Heartbeat CPU 0 instructions: 38000002 cycles: 15672923 heartbeat IPC: 2.92335 cumulative IPC: 2.42456 (Simulation time: 0 hr 19 min 21 sec) 
Heartbeat CPU 0 instructions: 39000001 cycles: 16012633 heartbeat IPC: 2.94368 cumulative IPC: 2.43558 (Simulation time: 0 hr 19 min 46 sec) 
Heartbeat CPU 0 instructions: 40000000 cycles: 16368967 heartbeat IPC: 2.80635 cumulative IPC: 2.44365 (Simulation time: 0 hr 20 min 10 sec) 
Heartbeat CPU 0 instructions: 41000000 cycles: 16712443 heartbeat IPC: 2.91141 cumulative IPC: 2.45326 (Simulation time: 0 hr 20 min 33 sec) 
Heartbeat CPU 0 instructions: 42000002 cycles: 17054073 heartbeat IPC: 2.92715 cumulative IPC: 2.46275 (Simulation time: 0 hr 20 min 59 sec) 
Heartbeat CPU 0 instructions: 43000000 cycles: 17390109 heartbeat IPC: 2.97587 cumulative IPC: 2.47267 (Simulation time: 0 hr 21 min 25 sec) 
Heartbeat CPU 0 instructions: 44000000 cycles: 17730866 heartbeat IPC: 2.93464 cumulative IPC: 2.48155 (Simulation time: 0 hr 21 min 49 sec) 
Heartbeat CPU 0 instructions: 45000001 cycles: 18067472 heartbeat IPC: 2.97084 cumulative IPC: 2.49066 (Simulation time: 0 hr 22 min 15 sec) 
Heartbeat CPU 0 instructions: 46000000 cycles: 18420912 heartbeat IPC: 2.82933 cumulative IPC: 2.49716 (Simulation time: 0 hr 22 min 44 sec) 
Heartbeat CPU 0 instructions: 47000003 cycles: 18770582 heartbeat IPC: 2.85985 cumulative IPC: 2.50392 (Simulation time: 0 hr 23 min 9 sec) 
Heartbeat CPU 0 instructions: 48000000 cycles: 19120505 heartbeat IPC: 2.85776 cumulative IPC: 2.51039 (Simulation time: 0 hr 23 min 34 sec) 
Heartbeat CPU 0 instructions: 49000003 cycles: 19475914 heartbeat IPC: 2.81367 cumulative IPC: 2.51593 (Simulation time: 0 hr 24 min 1 sec) 
Heartbeat CPU 0 instructions: 50000003 cycles: 19824188 heartbeat IPC: 2.8713 cumulative IPC: 2.52217 (Simulation time: 0 hr 24 min 24 sec) 

Warmup complete CPU 0 instructions: 50000003 cycles: 19824188 (Simulation time: 0 hr 24 min 24 sec) 

Heartbeat CPU 0 instructions: 51000002 cycles: 20781308 heartbeat IPC: 1.0448 cumulative IPC: 1.0448 (Simulation time: 0 hr 24 min 52 sec) 
Heartbeat CPU 0 instructions: 52000000 cycles: 21746590 heartbeat IPC: 1.03596 cumulative IPC: 1.04036 (Simulation time: 0 hr 25 min 23 sec) 
Heartbeat CPU 0 instructions: 53000001 cycles: 22724573 heartbeat IPC: 1.02251 cumulative IPC: 1.03434 (Simulation time: 0 hr 25 min 52 sec) 
Heartbeat CPU 0 instructions: 54000003 cycles: 23705013 heartbeat IPC: 1.01995 cumulative IPC: 1.03071 (Simulation time: 0 hr 26 min 26 sec) 
Heartbeat CPU 0 instructions: 55000000 cycles: 24669626 heartbeat IPC: 1.03668 cumulative IPC: 1.0319 (Simulation time: 0 hr 26 min 58 sec) 
Heartbeat CPU 0 instructions: 56000000 cycles: 25645684 heartbeat IPC: 1.02453 cumulative IPC: 1.03066 (Simulation time: 0 hr 27 min 31 sec) 
Heartbeat CPU 0 instructions: 57000002 cycles: 26612989 heartbeat IPC: 1.0338 cumulative IPC: 1.03111 (Simulation time: 0 hr 28 min 4 sec) 
Heartbeat CPU 0 instructions: 58000003 cycles: 27585507 heartbeat IPC: 1.02826 cumulative IPC: 1.03075 (Simulation time: 0 hr 28 min 36 sec) 
Heartbeat CPU 0 instructions: 59000003 cycles: 28613604 heartbeat IPC: 0.972671 cumulative IPC: 1.02396 (Simulation time: 0 hr 29 min 12 sec) 
Heartbeat CPU 0 instructions: 60000000 cycles: 29822126 heartbeat IPC: 0.827455 cumulative IPC: 1.00021 (Simulation time: 0 hr 29 min 47 sec) 
Heartbeat CPU 0 instructions: 61000000 cycles: 31029473 heartbeat IPC: 0.828262 cumulative IPC: 0.981679 (Simulation time: 0 hr 30 min 25 sec) 
Heartbeat CPU 0 instructions: 62000003 cycles: 32254323 heartbeat IPC: 0.816429 cumulative IPC: 0.965396 (Simulation time: 0 hr 30 min 59 sec) 
Heartbeat CPU 0 instructions: 63000001 cycles: 33485950 heartbeat IPC: 0.811933 cumulative IPC: 0.951561 (Simulation time: 0 hr 31 min 35 sec) 
Heartbeat CPU 0 instructions: 64000000 cycles: 34806960 heartbeat IPC: 0.756996 cumulative IPC: 0.934406 (Simulation time: 0 hr 32 min 12 sec) 
Heartbeat CPU 0 instructions: 65000001 cycles: 36011014 heartbeat IPC: 0.830528 cumulative IPC: 0.926679 (Simulation time: 0 hr 32 min 51 sec) 
Heartbeat CPU 0 instructions: 66000003 cycles: 37212761 heartbeat IPC: 0.832124 cumulative IPC: 0.920144 (Simulation time: 0 hr 33 min 29 sec) 
Heartbeat CPU 0 instructions: 67000000 cycles: 38423928 heartbeat IPC: 0.825647 cumulative IPC: 0.913991 (Simulation time: 0 hr 34 min 5 sec) 
Heartbeat CPU 0 instructions: 68000000 cycles: 39737570 heartbeat IPC: 0.761242 cumulative IPC: 0.903915 (Simulation time: 0 hr 34 min 42 sec) 
Heartbeat CPU 0 instructions: 69000000 cycles: 40934027 heartbeat IPC: 0.835801 cumulative IPC: 0.900054 (Simulation time: 0 hr 35 min 22 sec) 
Heartbeat CPU 0 instructions: 70000002 cycles: 42136241 heartbeat IPC: 0.8318 cumulative IPC: 0.896376 (Simulation time: 0 hr 36 min 0 sec) 
Heartbeat CPU 0 instructions: 71000003 cycles: 43342871 heartbeat IPC: 0.828755 cumulative IPC: 0.892907 (Simulation time: 0 hr 36 min 34 sec) 
Heartbeat CPU 0 instructions: 72000000 cycles: 44550872 heartbeat IPC: 0.827811 cumulative IPC: 0.889727 (Simulation time: 0 hr 37 min 6 sec) 
Heartbeat CPU 0 instructions: 73000002 cycles: 45854267 heartbeat IPC: 0.767229 cumulative IPC: 0.883593 (Simulation time: 0 hr 37 min 37 sec) 
Heartbeat CPU 0 instructions: 74000000 cycles: 47053756 heartbeat IPC: 0.833687 cumulative IPC: 0.881395 (Simulation time: 0 hr 38 min 14 sec) 
Heartbeat CPU 0 instructions: 75000001 cycles: 48255145 heartbeat IPC: 0.832371 cumulative IPC: 0.879323 (Simulation time: 0 hr 38 min 48 sec) 
Heartbeat CPU 0 instructions: 76000000 cycles: 49464442 heartbeat IPC: 0.826926 cumulative IPC: 0.877185 (Simulation time: 0 hr 39 min 21 sec) 
Heartbeat CPU 0 instructions: 77000001 cycles: 50721546 heartbeat IPC: 0.79548 cumulative IPC: 0.873861 (Simulation time: 0 hr 39 min 53 sec) 
Heartbeat CPU 0 instructions: 78000003 cycles: 51888166 heartbeat IPC: 0.857179 cumulative IPC: 0.873254 (Simulation time: 0 hr 40 min 18 sec) 
Heartbeat CPU 0 instructions: 79000000 cycles: 52807047 heartbeat IPC: 1.08828 cumulative IPC: 0.879245 (Simulation time: 0 hr 40 min 43 sec) 
Heartbeat CPU 0 instructions: 80000000 cycles: 53710494 heartbeat IPC: 1.10687 cumulative IPC: 0.885313 (Simulation time: 0 hr 41 min 9 sec) 
Heartbeat CPU 0 instructions: 81000000 cycles: 54556235 heartbeat IPC: 1.1824 cumulative IPC: 0.892547 (Simulation time: 0 hr 41 min 34 sec) 
Heartbeat CPU 0 instructions: 82000001 cycles: 55448067 heartbeat IPC: 1.12129 cumulative IPC: 0.898274 (Simulation time: 0 hr 42 min 0 sec) 
Heartbeat CPU 0 instructions: 83000000 cycles: 56371960 heartbeat IPC: 1.08238 cumulative IPC: 0.902928 (Simulation time: 0 hr 42 min 28 sec) 
Heartbeat CPU 0 instructions: 84000000 cycles: 57288644 heartbeat IPC: 1.09089 cumulative IPC: 0.907527 (Simulation time: 0 hr 42 min 53 sec) 
Heartbeat CPU 0 instructions: 85000002 cycles: 58223784 heartbeat IPC: 1.06936 cumulative IPC: 0.911468 (Simulation time: 0 hr 43 min 27 sec) 
Heartbeat CPU 0 instructions: 86000002 cycles: 59152807 heartbeat IPC: 1.0764 cumulative IPC: 0.915364 (Simulation time: 0 hr 44 min 8 sec) 
Heartbeat CPU 0 instructions: 87000002 cycles: 60081815 heartbeat IPC: 1.07642 cumulative IPC: 0.91908 (Simulation time: 0 hr 44 min 46 sec) 
Heartbeat CPU 0 instructions: 88000000 cycles: 61129941 heartbeat IPC: 0.954082 cumulative IPC: 0.919969 (Simulation time: 0 hr 45 min 27 sec) 
Heartbeat CPU 0 instructions: 89000002 cycles: 62222568 heartbeat IPC: 0.915227 cumulative IPC: 0.919846 (Simulation time: 0 hr 46 min 9 sec) 
Heartbeat CPU 0 instructions: 90000001 cycles: 63309756 heartbeat IPC: 0.919803 cumulative IPC: 0.919845 (Simulation time: 0 hr 46 min 46 sec) 
Heartbeat CPU 0 instructions: 91000001 cycles: 64405626 heartbeat IPC: 0.912517 cumulative IPC: 0.919665 (Simulation time: 0 hr 47 min 23 sec) 
Heartbeat CPU 0 instructions: 92000000 cycles: 65490977 heartbeat IPC: 0.92136 cumulative IPC: 0.919706 (Simulation time: 0 hr 47 min 59 sec) 
Heartbeat CPU 0 instructions: 93000001 cycles: 66574771 heartbeat IPC: 0.922686 cumulative IPC: 0.919775 (Simulation time: 0 hr 48 min 36 sec) 
Heartbeat CPU 0 instructions: 94000001 cycles: 67656439 heartbeat IPC: 0.924498 cumulative IPC: 0.919881 (Simulation time: 0 hr 49 min 14 sec) 
Heartbeat CPU 0 instructions: 95000000 cycles: 68742171 heartbeat IPC: 0.921037 cumulative IPC: 0.919907 (Simulation time: 0 hr 49 min 55 sec) 
Heartbeat CPU 0 instructions: 96000000 cycles: 69826345 heartbeat IPC: 0.922361 cumulative IPC: 0.91996 (Simulation time: 0 hr 50 min 39 sec) 
Heartbeat CPU 0 instructions: 97000002 cycles: 70909196 heartbeat IPC: 0.92349 cumulative IPC: 0.920035 (Simulation time: 0 hr 51 min 20 sec) 
Heartbeat CPU 0 instructions: 98000002 cycles: 71992713 heartbeat IPC: 0.92292 cumulative IPC: 0.920095 (Simulation time: 0 hr 51 min 59 sec) 
Heartbeat CPU 0 instructions: 99000000 cycles: 73082367 heartbeat IPC: 0.917721 cumulative IPC: 0.920046 (Simulation time: 0 hr 52 min 38 sec) 
Heartbeat CPU 0 instructions: 100000000 cycles: 74170845 heartbeat IPC: 0.918714 cumulative IPC: 0.92002 (Simulation time: 0 hr 53 min 16 sec) 
Heartbeat CPU 0 instructions: 101000000 cycles: 75262781 heartbeat IPC: 0.915805 cumulative IPC: 0.919937 (Simulation time: 0 hr 53 min 55 sec) 
Heartbeat CPU 0 instructions: 102000000 cycles: 76356488 heartbeat IPC: 0.914322 cumulative IPC: 0.919828 (Simulation time: 0 hr 54 min 34 sec) 
Heartbeat CPU 0 instructions: 103000002 cycles: 77449408 heartbeat IPC: 0.914982 cumulative IPC: 0.919736 (Simulation time: 0 hr 55 min 12 sec) 
Heartbeat CPU 0 instructions: 104000000 cycles: 78541771 heartbeat IPC: 0.915445 cumulative IPC: 0.919656 (Simulation time: 0 hr 55 min 49 sec) 
Heartbeat CPU 0 instructions: 105000003 cycles: 79636379 heartbeat IPC: 0.913572 cumulative IPC: 0.919545 (Simulation time: 0 hr 56 min 23 sec) 
Heartbeat CPU 0 instructions: 106000002 cycles: 80734564 heartbeat IPC: 0.910592 cumulative IPC: 0.919384 (Simulation time: 0 hr 56 min 57 sec) 
Heartbeat CPU 0 instructions: 107000001 cycles: 81820488 heartbeat IPC: 0.920874 cumulative IPC: 0.91941 (Simulation time: 0 hr 57 min 40 sec) 
Heartbeat CPU 0 instructions: 108000000 cycles: 82916794 heartbeat IPC: 0.912153 cumulative IPC: 0.919284 (Simulation time: 0 hr 58 min 13 sec) 
Heartbeat CPU 0 instructions: 109000001 cycles: 84011650 heartbeat IPC: 0.913363 cumulative IPC: 0.919183 (Simulation time: 0 hr 58 min 50 sec) 
Heartbeat CPU 0 instructions: 110000002 cycles: 85110631 heartbeat IPC: 0.909935 cumulative IPC: 0.919027 (Simulation time: 0 hr 59 min 25 sec) 
Heartbeat CPU 0 instructions: 111000000 cycles: 86199765 heartbeat IPC: 0.918159 cumulative IPC: 0.919013 (Simulation time: 1 hr 0 min 1 sec) 
Heartbeat CPU 0 instructions: 112000000 cycles: 87291452 heartbeat IPC: 0.916013 cumulative IPC: 0.918964 (Simulation time: 1 hr 0 min 39 sec) 
Heartbeat CPU 0 instructions: 113000002 cycles: 88381928 heartbeat IPC: 0.917033 cumulative IPC: 0.918933 (Simulation time: 1 hr 1 min 11 sec) 
Heartbeat CPU 0 instructions: 114000001 cycles: 89476296 heartbeat IPC: 0.913768 cumulative IPC: 0.918852 (Simulation time: 1 hr 1 min 46 sec) 
Heartbeat CPU 0 instructions: 115000001 cycles: 90564696 heartbeat IPC: 0.91878 cumulative IPC: 0.918851 (Simulation time: 1 hr 2 min 25 sec) 
Heartbeat CPU 0 instructions: 116000000 cycles: 91652615 heartbeat IPC: 0.919185 cumulative IPC: 0.918856 (Simulation time: 1 hr 2 min 59 sec) 
Heartbeat CPU 0 instructions: 117000001 cycles: 92742089 heartbeat IPC: 0.917875 cumulative IPC: 0.918842 (Simulation time: 1 hr 3 min 34 sec) 
Heartbeat CPU 0 instructions: 118000000 cycles: 93829439 heartbeat IPC: 0.919666 cumulative IPC: 0.918854 (Simulation time: 1 hr 4 min 13 sec) 
Heartbeat CPU 0 instructions: 119000000 cycles: 94918028 heartbeat IPC: 0.91862 cumulative IPC: 0.91885 (Simulation time: 1 hr 4 min 47 sec) 
Heartbeat CPU 0 instructions: 120000000 cycles: 96007487 heartbeat IPC: 0.917887 cumulative IPC: 0.918837 (Simulation time: 1 hr 5 min 20 sec) 
Heartbeat CPU 0 instructions: 121000000 cycles: 97096634 heartbeat IPC: 0.91815 cumulative IPC: 0.918827 (Simulation time: 1 hr 5 min 53 sec) 
Heartbeat CPU 0 instructions: 122000000 cycles: 98190867 heartbeat IPC: 0.913882 cumulative IPC: 0.918758 (Simulation time: 1 hr 6 min 30 sec) 
Heartbeat CPU 0 instructions: 123000001 cycles: 99287330 heartbeat IPC: 0.912024 cumulative IPC: 0.918665 (Simulation time: 1 hr 7 min 10 sec) 
Heartbeat CPU 0 instructions: 124000000 cycles: 100383836 heartbeat IPC: 0.911987 cumulative IPC: 0.918574 (Simulation time: 1 hr 7 min 47 sec) 
Heartbeat CPU 0 instructions: 125000002 cycles: 101477140 heartbeat IPC: 0.914661 cumulative IPC: 0.918522 (Simulation time: 1 hr 8 min 22 sec) 
Heartbeat CPU 0 instructions: 126000002 cycles: 102567370 heartbeat IPC: 0.917238 cumulative IPC: 0.918505 (Simulation time: 1 hr 9 min 0 sec) 
Heartbeat CPU 0 instructions: 127000003 cycles: 103655794 heartbeat IPC: 0.918761 cumulative IPC: 0.918508 (Simulation time: 1 hr 9 min 31 sec) 
Heartbeat CPU 0 instructions: 128000000 cycles: 104745101 heartbeat IPC: 0.918012 cumulative IPC: 0.918502 (Simulation time: 1 hr 10 min 4 sec) 
Heartbeat CPU 0 instructions: 129000001 cycles: 105833583 heartbeat IPC: 0.918712 cumulative IPC: 0.918504 (Simulation time: 1 hr 10 min 39 sec) 
Heartbeat CPU 0 instructions: 130000001 cycles: 106921597 heartbeat IPC: 0.919106 cumulative IPC: 0.918512 (Simulation time: 1 hr 11 min 14 sec) 
Heartbeat CPU 0 instructions: 131000001 cycles: 108014852 heartbeat IPC: 0.9147 cumulative IPC: 0.918465 (Simulation time: 1 hr 11 min 51 sec) 
Heartbeat CPU 0 instructions: 132000000 cycles: 109108917 heartbeat IPC: 0.914022 cumulative IPC: 0.91841 (Simulation time: 1 hr 12 min 22 sec) 
Heartbeat CPU 0 instructions: 133000002 cycles: 110215702 heartbeat IPC: 0.90352 cumulative IPC: 0.918228 (Simulation time: 1 hr 12 min 53 sec) 
Heartbeat CPU 0 instructions: 134000000 cycles: 111311097 heartbeat IPC: 0.912911 cumulative IPC: 0.918164 (Simulation time: 1 hr 13 min 26 sec) 
Heartbeat CPU 0 instructions: 135000003 cycles: 112413594 heartbeat IPC: 0.907035 cumulative IPC: 0.918032 (Simulation time: 1 hr 14 min 4 sec) 
Heartbeat CPU 0 instructions: 136000000 cycles: 113515116 heartbeat IPC: 0.907832 cumulative IPC: 0.917912 (Simulation time: 1 hr 14 min 36 sec) 
Heartbeat CPU 0 instructions: 137000001 cycles: 114613097 heartbeat IPC: 0.910764 cumulative IPC: 0.917829 (Simulation time: 1 hr 15 min 9 sec) 
Heartbeat CPU 0 instructions: 138000000 cycles: 115730839 heartbeat IPC: 0.89466 cumulative IPC: 0.917559 (Simulation time: 1 hr 15 min 42 sec) 
Heartbeat CPU 0 instructions: 139000002 cycles: 116364587 heartbeat IPC: 1.57792 cumulative IPC: 0.921894 (Simulation time: 1 hr 16 min 11 sec) 
Heartbeat CPU 0 instructions: 140000000 cycles: 116997342 heartbeat IPC: 1.58039 cumulative IPC: 0.926182 (Simulation time: 1 hr 16 min 41 sec) 
Heartbeat CPU 0 instructions: 141000000 cycles: 117629084 heartbeat IPC: 1.58292 cumulative IPC: 0.930424 (Simulation time: 1 hr 17 min 6 sec) 
Heartbeat CPU 0 instructions: 142000002 cycles: 118261092 heartbeat IPC: 1.58226 cumulative IPC: 0.934609 (Simulation time: 1 hr 17 min 29 sec) 
Heartbeat CPU 0 instructions: 143000002 cycles: 118899518 heartbeat IPC: 1.56635 cumulative IPC: 0.93868 (Simulation time: 1 hr 17 min 54 sec) 
Heartbeat CPU 0 instructions: 144000000 cycles: 119539273 heartbeat IPC: 1.5631 cumulative IPC: 0.942686 (Simulation time: 1 hr 18 min 18 sec) 
Heartbeat CPU 0 instructions: 145000001 cycles: 120178990 heartbeat IPC: 1.56319 cumulative IPC: 0.946641 (Simulation time: 1 hr 18 min 40 sec) 
Heartbeat CPU 0 instructions: 146000002 cycles: 120818424 heartbeat IPC: 1.56388 cumulative IPC: 0.950549 (Simulation time: 1 hr 19 min 1 sec) 
Heartbeat CPU 0 instructions: 147000002 cycles: 122157898 heartbeat IPC: 0.746562 cumulative IPC: 0.947879 (Simulation time: 1 hr 19 min 26 sec) 
Heartbeat CPU 0 instructions: 148000000 cycles: 122675954 heartbeat IPC: 1.93029 cumulative IPC: 0.952828 (Simulation time: 1 hr 19 min 45 sec) 
Heartbeat CPU 0 instructions: 149000000 cycles: 123185918 heartbeat IPC: 1.96092 cumulative IPC: 0.957801 (Simulation time: 1 hr 20 min 3 sec) 
Heartbeat CPU 0 instructions: 150000003 cycles: 123696789 heartbeat IPC: 1.95745 cumulative IPC: 0.962718 (Simulation time: 1 hr 20 min 23 sec) 
Finished CPU 0 instructions: 100000000 cycles: 103872601 cummulative IPC: 0.962718 (Simulation time: 1 hr 20 min 23 sec) 

ChampSim completed all CPUs

Region of Interest Statistics

CPU 0 cummulative IPC: 0.962718 instructions: 100000000 cycles: 103872601
LLC TOTAL     ACCESS:     678825  HIT:     552468  MISS:     126357
LLC LOAD      ACCESS:     201690  HIT:     200284  MISS:       1406
LLC RFO       ACCESS:      77429  HIT:      16860  MISS:      60569
LLC PREFETCH  ACCESS:     319038  HIT:     270372  MISS:      48666
LLC WRITEBACK ACCESS:      80668  HIT:      64952  MISS:      15716
OPTgen accesses: 19492
OPTgen hits: 22149
OPTgen hit rate: 113.631


