
*** ChampSim Multicore Out-of-Order Simulator ***

Warmup Instructions: 50000000
Simulation Instructions: 100000000
Configuration: 2
Number of CPUs: 1
LLC sets: 2048
LLC ways: 16
Off-chip DRAM Channels: 1 Width: 64-bit Data Rate: 1600 MT/s

CPU 0 runs /datasets/cs240c-wi22-a00-public/data/Assignment2-gz/leslie3d_1186B.trace.gz
CPU 0 L1D next line prefetcher
CPU 0 L2C IP-based stride prefetcher
Initialize Hawkeye state
Heartbeat CPU 0 instructions: 1000002 cycles: 564509 heartbeat IPC: 1.77145 cumulative IPC: 1.77145 (Simulation time: 0 hr 0 min 37 sec) 
Heartbeat CPU 0 instructions: 2000000 cycles: 1215810 heartbeat IPC: 1.53539 cumulative IPC: 1.64499 (Simulation time: 0 hr 1 min 18 sec) 
Heartbeat CPU 0 instructions: 3000000 cycles: 1867537 heartbeat IPC: 1.53438 cumulative IPC: 1.60639 (Simulation time: 0 hr 2 min 1 sec) 
Heartbeat CPU 0 instructions: 4000000 cycles: 2473072 heartbeat IPC: 1.65143 cumulative IPC: 1.61742 (Simulation time: 0 hr 2 min 40 sec) 
Heartbeat CPU 0 instructions: 5000000 cycles: 3083389 heartbeat IPC: 1.63849 cumulative IPC: 1.62159 (Simulation time: 0 hr 3 min 16 sec) 
Heartbeat CPU 0 instructions: 6000000 cycles: 3735110 heartbeat IPC: 1.5344 cumulative IPC: 1.60638 (Simulation time: 0 hr 3 min 56 sec) 
Heartbeat CPU 0 instructions: 7000001 cycles: 4386339 heartbeat IPC: 1.53556 cumulative IPC: 1.59586 (Simulation time: 0 hr 4 min 40 sec) 
Heartbeat CPU 0 instructions: 8000000 cycles: 4950911 heartbeat IPC: 1.77125 cumulative IPC: 1.61586 (Simulation time: 0 hr 5 min 23 sec) 
Heartbeat CPU 0 instructions: 9000003 cycles: 5602199 heartbeat IPC: 1.53542 cumulative IPC: 1.60651 (Simulation time: 0 hr 6 min 4 sec) 
Heartbeat CPU 0 instructions: 10000001 cycles: 6253364 heartbeat IPC: 1.53571 cumulative IPC: 1.59914 (Simulation time: 0 hr 6 min 46 sec) 
Heartbeat CPU 0 instructions: 11000000 cycles: 6820146 heartbeat IPC: 1.76435 cumulative IPC: 1.61287 (Simulation time: 0 hr 7 min 28 sec) 
Heartbeat CPU 0 instructions: 12000000 cycles: 7469237 heartbeat IPC: 1.54062 cumulative IPC: 1.60659 (Simulation time: 0 hr 8 min 14 sec) 
Heartbeat CPU 0 instructions: 13000002 cycles: 8120722 heartbeat IPC: 1.53496 cumulative IPC: 1.60084 (Simulation time: 0 hr 8 min 59 sec) 
Heartbeat CPU 0 instructions: 14000000 cycles: 8755149 heartbeat IPC: 1.57622 cumulative IPC: 1.59906 (Simulation time: 0 hr 9 min 35 sec) 
Heartbeat CPU 0 instructions: 15000000 cycles: 9336234 heartbeat IPC: 1.72092 cumulative IPC: 1.60664 (Simulation time: 0 hr 10 min 15 sec) 
Heartbeat CPU 0 instructions: 16000000 cycles: 9987798 heartbeat IPC: 1.53477 cumulative IPC: 1.60195 (Simulation time: 0 hr 10 min 54 sec) 
Heartbeat CPU 0 instructions: 17000000 cycles: 10638861 heartbeat IPC: 1.53595 cumulative IPC: 1.59792 (Simulation time: 0 hr 11 min 38 sec) 
Heartbeat CPU 0 instructions: 18000003 cycles: 11203333 heartbeat IPC: 1.77157 cumulative IPC: 1.60667 (Simulation time: 0 hr 12 min 15 sec) 
Heartbeat CPU 0 instructions: 19000003 cycles: 11854613 heartbeat IPC: 1.53544 cumulative IPC: 1.60275 (Simulation time: 0 hr 13 min 2 sec) 
Heartbeat CPU 0 instructions: 20000000 cycles: 12505779 heartbeat IPC: 1.5357 cumulative IPC: 1.59926 (Simulation time: 0 hr 13 min 45 sec) 
Heartbeat CPU 0 instructions: 21000001 cycles: 13101420 heartbeat IPC: 1.67887 cumulative IPC: 1.60288 (Simulation time: 0 hr 14 min 24 sec) 
Heartbeat CPU 0 instructions: 22000003 cycles: 13721400 heartbeat IPC: 1.61296 cumulative IPC: 1.60334 (Simulation time: 0 hr 15 min 1 sec) 
Heartbeat CPU 0 instructions: 23000001 cycles: 14372561 heartbeat IPC: 1.53572 cumulative IPC: 1.60027 (Simulation time: 0 hr 15 min 40 sec) 
Heartbeat CPU 0 instructions: 24000000 cycles: 15024199 heartbeat IPC: 1.53459 cumulative IPC: 1.59742 (Simulation time: 0 hr 16 min 22 sec) 
Heartbeat CPU 0 instructions: 25000000 cycles: 15588255 heartbeat IPC: 1.77287 cumulative IPC: 1.60377 (Simulation time: 0 hr 17 min 3 sec) 
Heartbeat CPU 0 instructions: 26000003 cycles: 16240230 heartbeat IPC: 1.53381 cumulative IPC: 1.60096 (Simulation time: 0 hr 17 min 45 sec) 
Heartbeat CPU 0 instructions: 27000000 cycles: 16891854 heartbeat IPC: 1.53462 cumulative IPC: 1.5984 (Simulation time: 0 hr 18 min 27 sec) 
Heartbeat CPU 0 instructions: 28000000 cycles: 17455989 heartbeat IPC: 1.77263 cumulative IPC: 1.60403 (Simulation time: 0 hr 19 min 3 sec) 
Heartbeat CPU 0 instructions: 29000002 cycles: 18107429 heartbeat IPC: 1.53506 cumulative IPC: 1.60155 (Simulation time: 0 hr 19 min 44 sec) 
Heartbeat CPU 0 instructions: 30000002 cycles: 18758777 heartbeat IPC: 1.53528 cumulative IPC: 1.59925 (Simulation time: 0 hr 20 min 24 sec) 
Heartbeat CPU 0 instructions: 31000002 cycles: 19382827 heartbeat IPC: 1.60244 cumulative IPC: 1.59935 (Simulation time: 0 hr 21 min 1 sec) 
Heartbeat CPU 0 instructions: 32000000 cycles: 19974301 heartbeat IPC: 1.69069 cumulative IPC: 1.60206 (Simulation time: 0 hr 21 min 39 sec) 
Heartbeat CPU 0 instructions: 33000000 cycles: 20625855 heartbeat IPC: 1.53479 cumulative IPC: 1.59993 (Simulation time: 0 hr 22 min 24 sec) 
Heartbeat CPU 0 instructions: 34000000 cycles: 21277888 heartbeat IPC: 1.53366 cumulative IPC: 1.5979 (Simulation time: 0 hr 23 min 10 sec) 
Heartbeat CPU 0 instructions: 35000000 cycles: 21842130 heartbeat IPC: 1.77229 cumulative IPC: 1.60241 (Simulation time: 0 hr 23 min 47 sec) 
Heartbeat CPU 0 instructions: 36000000 cycles: 22493696 heartbeat IPC: 1.53476 cumulative IPC: 1.60045 (Simulation time: 0 hr 24 min 29 sec) 
Heartbeat CPU 0 instructions: 37000003 cycles: 23145412 heartbeat IPC: 1.53442 cumulative IPC: 1.59859 (Simulation time: 0 hr 25 min 6 sec) 
Heartbeat CPU 0 instructions: 38000002 cycles: 23731088 heartbeat IPC: 1.70743 cumulative IPC: 1.60128 (Simulation time: 0 hr 25 min 49 sec) 
Heartbeat CPU 0 instructions: 39000000 cycles: 24361296 heartbeat IPC: 1.58677 cumulative IPC: 1.6009 (Simulation time: 0 hr 26 min 26 sec) 
Heartbeat CPU 0 instructions: 40000000 cycles: 25013104 heartbeat IPC: 1.53419 cumulative IPC: 1.59916 (Simulation time: 0 hr 27 min 5 sec) 
Heartbeat CPU 0 instructions: 41000000 cycles: 25664081 heartbeat IPC: 1.53615 cumulative IPC: 1.59756 (Simulation time: 0 hr 27 min 52 sec) 
Heartbeat CPU 0 instructions: 42000000 cycles: 26228903 heartbeat IPC: 1.77047 cumulative IPC: 1.60129 (Simulation time: 0 hr 28 min 33 sec) 
Heartbeat CPU 0 instructions: 43000002 cycles: 26880015 heartbeat IPC: 1.53584 cumulative IPC: 1.5997 (Simulation time: 0 hr 29 min 18 sec) 
Heartbeat CPU 0 instructions: 44000000 cycles: 27531584 heartbeat IPC: 1.53475 cumulative IPC: 1.59816 (Simulation time: 0 hr 30 min 1 sec) 
Heartbeat CPU 0 instructions: 45000001 cycles: 28090711 heartbeat IPC: 1.7885 cumulative IPC: 1.60195 (Simulation time: 0 hr 30 min 41 sec) 
Heartbeat CPU 0 instructions: 46000001 cycles: 28591456 heartbeat IPC: 1.99702 cumulative IPC: 1.60887 (Simulation time: 0 hr 31 min 21 sec) 
Heartbeat CPU 0 instructions: 47000001 cycles: 29092130 heartbeat IPC: 1.99731 cumulative IPC: 1.61556 (Simulation time: 0 hr 32 min 0 sec) 
Heartbeat CPU 0 instructions: 48000000 cycles: 29592985 heartbeat IPC: 1.99658 cumulative IPC: 1.62201 (Simulation time: 0 hr 32 min 34 sec) 
Heartbeat CPU 0 instructions: 49000002 cycles: 30093371 heartbeat IPC: 1.99846 cumulative IPC: 1.62827 (Simulation time: 0 hr 33 min 10 sec) 
Heartbeat CPU 0 instructions: 50000001 cycles: 30594298 heartbeat IPC: 1.9963 cumulative IPC: 1.63429 (Simulation time: 0 hr 33 min 47 sec) 

Warmup complete CPU 0 instructions: 50000001 cycles: 30594298 (Simulation time: 0 hr 33 min 47 sec) 

Heartbeat CPU 0 instructions: 51000000 cycles: 32242887 heartbeat IPC: 0.606579 cumulative IPC: 0.606579 (Simulation time: 0 hr 34 min 33 sec) 
Heartbeat CPU 0 instructions: 52000000 cycles: 33799548 heartbeat IPC: 0.642401 cumulative IPC: 0.623976 (Simulation time: 0 hr 35 min 10 sec) 
Heartbeat CPU 0 instructions: 53000003 cycles: 35446573 heartbeat IPC: 0.607157 cumulative IPC: 0.618267 (Simulation time: 0 hr 35 min 59 sec) 
Heartbeat CPU 0 instructions: 54000003 cycles: 37008450 heartbeat IPC: 0.640255 cumulative IPC: 0.623621 (Simulation time: 0 hr 36 min 40 sec) 
Heartbeat CPU 0 instructions: 55000001 cycles: 38863934 heartbeat IPC: 0.538942 cumulative IPC: 0.604622 (Simulation time: 0 hr 37 min 26 sec) 
Heartbeat CPU 0 instructions: 56000000 cycles: 41269725 heartbeat IPC: 0.415663 cumulative IPC: 0.562038 (Simulation time: 0 hr 38 min 11 sec) 
Heartbeat CPU 0 instructions: 57000003 cycles: 43583428 heartbeat IPC: 0.432209 cumulative IPC: 0.538912 (Simulation time: 0 hr 38 min 56 sec) 
Heartbeat CPU 0 instructions: 58000001 cycles: 45928642 heartbeat IPC: 0.426399 cumulative IPC: 0.521705 (Simulation time: 0 hr 39 min 41 sec) 
Heartbeat CPU 0 instructions: 59000003 cycles: 48279979 heartbeat IPC: 0.425291 cumulative IPC: 0.508886 (Simulation time: 0 hr 40 min 30 sec) 
Heartbeat CPU 0 instructions: 60000000 cycles: 50629837 heartbeat IPC: 0.425556 cumulative IPC: 0.499113 (Simulation time: 0 hr 41 min 23 sec) 
Heartbeat CPU 0 instructions: 61000003 cycles: 52969796 heartbeat IPC: 0.427359 cumulative IPC: 0.491609 (Simulation time: 0 hr 42 min 15 sec) 
Heartbeat CPU 0 instructions: 62000001 cycles: 55300152 heartbeat IPC: 0.429118 cumulative IPC: 0.485715 (Simulation time: 0 hr 43 min 8 sec) 
Heartbeat CPU 0 instructions: 63000000 cycles: 57279111 heartbeat IPC: 0.505316 cumulative IPC: 0.487168 (Simulation time: 0 hr 44 min 8 sec) 
Heartbeat CPU 0 instructions: 64000000 cycles: 58516984 heartbeat IPC: 0.807837 cumulative IPC: 0.501384 (Simulation time: 0 hr 44 min 53 sec) 
Heartbeat CPU 0 instructions: 65000000 cycles: 59776326 heartbeat IPC: 0.794065 cumulative IPC: 0.514015 (Simulation time: 0 hr 45 min 41 sec) 
Heartbeat CPU 0 instructions: 66000002 cycles: 61025140 heartbeat IPC: 0.800761 cumulative IPC: 0.525782 (Simulation time: 0 hr 46 min 28 sec) 
Heartbeat CPU 0 instructions: 67000001 cycles: 62263429 heartbeat IPC: 0.807565 cumulative IPC: 0.5368 (Simulation time: 0 hr 47 min 10 sec) 
Heartbeat CPU 0 instructions: 68000000 cycles: 63575755 heartbeat IPC: 0.762005 cumulative IPC: 0.545761 (Simulation time: 0 hr 47 min 50 sec) 
Heartbeat CPU 0 instructions: 69000000 cycles: 64810427 heartbeat IPC: 0.809932 cumulative IPC: 0.555294 (Simulation time: 0 hr 48 min 31 sec) 
Heartbeat CPU 0 instructions: 70000000 cycles: 66083642 heartbeat IPC: 0.785413 cumulative IPC: 0.563549 (Simulation time: 0 hr 49 min 15 sec) 
Heartbeat CPU 0 instructions: 71000000 cycles: 67324929 heartbeat IPC: 0.805615 cumulative IPC: 0.57173 (Simulation time: 0 hr 50 min 3 sec) 
Heartbeat CPU 0 instructions: 72000000 cycles: 68592055 heartbeat IPC: 0.789187 cumulative IPC: 0.578982 (Simulation time: 0 hr 50 min 50 sec) 
Heartbeat CPU 0 instructions: 73000000 cycles: 69858347 heartbeat IPC: 0.789707 cumulative IPC: 0.585778 (Simulation time: 0 hr 51 min 41 sec) 
Heartbeat CPU 0 instructions: 74000000 cycles: 71097508 heartbeat IPC: 0.806998 cumulative IPC: 0.592546 (Simulation time: 0 hr 52 min 30 sec) 
Heartbeat CPU 0 instructions: 75000003 cycles: 72386042 heartbeat IPC: 0.776078 cumulative IPC: 0.598204 (Simulation time: 0 hr 53 min 17 sec) 
Heartbeat CPU 0 instructions: 76000000 cycles: 73631183 heartbeat IPC: 0.803119 cumulative IPC: 0.604133 (Simulation time: 0 hr 54 min 3 sec) 
Heartbeat CPU 0 instructions: 77000000 cycles: 74920052 heartbeat IPC: 0.775874 cumulative IPC: 0.609127 (Simulation time: 0 hr 54 min 45 sec) 
Heartbeat CPU 0 instructions: 78000001 cycles: 76183474 heartbeat IPC: 0.791502 cumulative IPC: 0.614181 (Simulation time: 0 hr 55 min 29 sec) 
Heartbeat CPU 0 instructions: 79000001 cycles: 77470037 heartbeat IPC: 0.777265 cumulative IPC: 0.618657 (Simulation time: 0 hr 56 min 11 sec) 
Heartbeat CPU 0 instructions: 80000000 cycles: 78748737 heartbeat IPC: 0.782043 cumulative IPC: 0.622995 (Simulation time: 0 hr 56 min 49 sec) 
Heartbeat CPU 0 instructions: 81000000 cycles: 79993954 heartbeat IPC: 0.803073 cumulative IPC: 0.627535 (Simulation time: 0 hr 57 min 30 sec) 
Heartbeat CPU 0 instructions: 82000003 cycles: 81280401 heartbeat IPC: 0.777337 cumulative IPC: 0.631337 (Simulation time: 0 hr 58 min 9 sec) 
Heartbeat CPU 0 instructions: 83000001 cycles: 82538333 heartbeat IPC: 0.794954 cumulative IPC: 0.635299 (Simulation time: 0 hr 58 min 48 sec) 
Heartbeat CPU 0 instructions: 84000000 cycles: 83818795 heartbeat IPC: 0.780967 cumulative IPC: 0.638804 (Simulation time: 0 hr 59 min 29 sec) 
Heartbeat CPU 0 instructions: 85000001 cycles: 85075642 heartbeat IPC: 0.795643 cumulative IPC: 0.642422 (Simulation time: 1 hr 0 min 9 sec) 
Heartbeat CPU 0 instructions: 86000003 cycles: 86351220 heartbeat IPC: 0.78396 cumulative IPC: 0.64566 (Simulation time: 1 hr 0 min 51 sec) 
Heartbeat CPU 0 instructions: 87000001 cycles: 87608904 heartbeat IPC: 0.795111 cumulative IPC: 0.648957 (Simulation time: 1 hr 1 min 29 sec) 
Heartbeat CPU 0 instructions: 88000000 cycles: 88876960 heartbeat IPC: 0.788608 cumulative IPC: 0.651995 (Simulation time: 1 hr 2 min 8 sec) 
Heartbeat CPU 0 instructions: 89000001 cycles: 90170108 heartbeat IPC: 0.773307 cumulative IPC: 0.654628 (Simulation time: 1 hr 2 min 49 sec) 
Heartbeat CPU 0 instructions: 90000002 cycles: 91432073 heartbeat IPC: 0.792416 cumulative IPC: 0.657486 (Simulation time: 1 hr 3 min 31 sec) 
Heartbeat CPU 0 instructions: 91000000 cycles: 92731294 heartbeat IPC: 0.76969 cumulative IPC: 0.659832 (Simulation time: 1 hr 4 min 13 sec) 
Heartbeat CPU 0 instructions: 92000000 cycles: 93990652 heartbeat IPC: 0.794055 cumulative IPC: 0.662499 (Simulation time: 1 hr 5 min 1 sec) 
Heartbeat CPU 0 instructions: 93000002 cycles: 95293893 heartbeat IPC: 0.767319 cumulative IPC: 0.66461 (Simulation time: 1 hr 5 min 45 sec) 
Heartbeat CPU 0 instructions: 94000000 cycles: 96536912 heartbeat IPC: 0.804491 cumulative IPC: 0.667247 (Simulation time: 1 hr 6 min 27 sec) 
Heartbeat CPU 0 instructions: 95000003 cycles: 97787292 heartbeat IPC: 0.799759 cumulative IPC: 0.669713 (Simulation time: 1 hr 7 min 11 sec) 
Heartbeat CPU 0 instructions: 96000000 cycles: 99071394 heartbeat IPC: 0.778752 cumulative IPC: 0.671757 (Simulation time: 1 hr 7 min 57 sec) 
Heartbeat CPU 0 instructions: 97000001 cycles: 100310845 heartbeat IPC: 0.80681 cumulative IPC: 0.674158 (Simulation time: 1 hr 8 min 41 sec) 
Heartbeat CPU 0 instructions: 98000002 cycles: 101602287 heartbeat IPC: 0.774329 cumulative IPC: 0.67598 (Simulation time: 1 hr 9 min 19 sec) 
Heartbeat CPU 0 instructions: 99000000 cycles: 102843542 heartbeat IPC: 0.805635 cumulative IPC: 0.678208 (Simulation time: 1 hr 9 min 58 sec) 
Heartbeat CPU 0 instructions: 100000000 cycles: 104138400 heartbeat IPC: 0.772285 cumulative IPC: 0.679864 (Simulation time: 1 hr 10 min 40 sec) 
Heartbeat CPU 0 instructions: 101000000 cycles: 105386690 heartbeat IPC: 0.801096 cumulative IPC: 0.681888 (Simulation time: 1 hr 11 min 21 sec) 
Heartbeat CPU 0 instructions: 102000001 cycles: 106642159 heartbeat IPC: 0.796516 cumulative IPC: 0.68378 (Simulation time: 1 hr 12 min 4 sec) 
Heartbeat CPU 0 instructions: 103000002 cycles: 107950408 heartbeat IPC: 0.764381 cumulative IPC: 0.685143 (Simulation time: 1 hr 12 min 41 sec) 
Heartbeat CPU 0 instructions: 104000000 cycles: 109191709 heartbeat IPC: 0.805605 cumulative IPC: 0.687046 (Simulation time: 1 hr 13 min 22 sec) 
Heartbeat CPU 0 instructions: 105000001 cycles: 110489031 heartbeat IPC: 0.770819 cumulative IPC: 0.688406 (Simulation time: 1 hr 14 min 2 sec) 
Heartbeat CPU 0 instructions: 106000002 cycles: 111736683 heartbeat IPC: 0.801506 cumulative IPC: 0.690145 (Simulation time: 1 hr 14 min 41 sec) 
Heartbeat CPU 0 instructions: 107000000 cycles: 113022939 heartbeat IPC: 0.777449 cumulative IPC: 0.691507 (Simulation time: 1 hr 15 min 20 sec) 
Heartbeat CPU 0 instructions: 108000000 cycles: 114277387 heartbeat IPC: 0.797163 cumulative IPC: 0.693091 (Simulation time: 1 hr 16 min 1 sec) 
Heartbeat CPU 0 instructions: 109000003 cycles: 115523607 heartbeat IPC: 0.802429 cumulative IPC: 0.694695 (Simulation time: 1 hr 16 min 33 sec) 
Heartbeat CPU 0 instructions: 110000001 cycles: 116812485 heartbeat IPC: 0.775867 cumulative IPC: 0.695909 (Simulation time: 1 hr 17 min 7 sec) 
Heartbeat CPU 0 instructions: 111000001 cycles: 118050550 heartbeat IPC: 0.807712 cumulative IPC: 0.697492 (Simulation time: 1 hr 17 min 37 sec) 
Heartbeat CPU 0 instructions: 112000000 cycles: 119381835 heartbeat IPC: 0.751153 cumulative IPC: 0.698296 (Simulation time: 1 hr 18 min 7 sec) 
Heartbeat CPU 0 instructions: 113000000 cycles: 121066220 heartbeat IPC: 0.593688 cumulative IPC: 0.696349 (Simulation time: 1 hr 18 min 36 sec) 
Heartbeat CPU 0 instructions: 114000000 cycles: 122680619 heartbeat IPC: 0.619426 cumulative IPC: 0.695 (Simulation time: 1 hr 19 min 4 sec) 
Heartbeat CPU 0 instructions: 115000000 cycles: 124294884 heartbeat IPC: 0.619477 cumulative IPC: 0.693699 (Simulation time: 1 hr 19 min 30 sec) 
Heartbeat CPU 0 instructions: 116000000 cycles: 125918327 heartbeat IPC: 0.615975 cumulative IPC: 0.692375 (Simulation time: 1 hr 19 min 55 sec) 
Heartbeat CPU 0 instructions: 117000002 cycles: 127545086 heartbeat IPC: 0.61472 cumulative IPC: 0.691072 (Simulation time: 1 hr 20 min 24 sec) 
Heartbeat CPU 0 instructions: 118000000 cycles: 129172068 heartbeat IPC: 0.614634 cumulative IPC: 0.689811 (Simulation time: 1 hr 20 min 50 sec) 
Heartbeat CPU 0 instructions: 119000001 cycles: 130806205 heartbeat IPC: 0.611944 cumulative IPC: 0.688541 (Simulation time: 1 hr 21 min 14 sec) 
Heartbeat CPU 0 instructions: 120000000 cycles: 132473121 heartbeat IPC: 0.59991 cumulative IPC: 0.687091 (Simulation time: 1 hr 21 min 40 sec) 
Heartbeat CPU 0 instructions: 121000002 cycles: 134126867 heartbeat IPC: 0.604689 cumulative IPC: 0.685775 (Simulation time: 1 hr 22 min 4 sec) 
Heartbeat CPU 0 instructions: 122000000 cycles: 135806948 heartbeat IPC: 0.595208 cumulative IPC: 0.684328 (Simulation time: 1 hr 22 min 27 sec) 
Heartbeat CPU 0 instructions: 123000002 cycles: 137448898 heartbeat IPC: 0.609033 cumulative IPC: 0.683171 (Simulation time: 1 hr 22 min 49 sec) 
Heartbeat CPU 0 instructions: 124000000 cycles: 139095293 heartbeat IPC: 0.607386 cumulative IPC: 0.682021 (Simulation time: 1 hr 23 min 12 sec) 
Heartbeat CPU 0 instructions: 125000003 cycles: 140755121 heartbeat IPC: 0.602474 cumulative IPC: 0.680823 (Simulation time: 1 hr 23 min 33 sec) 
Heartbeat CPU 0 instructions: 126000000 cycles: 142394144 heartbeat IPC: 0.610118 cumulative IPC: 0.679786 (Simulation time: 1 hr 23 min 54 sec) 
Heartbeat CPU 0 instructions: 127000001 cycles: 144085243 heartbeat IPC: 0.591332 cumulative IPC: 0.678468 (Simulation time: 1 hr 24 min 15 sec) 
Heartbeat CPU 0 instructions: 128000000 cycles: 145738259 heartbeat IPC: 0.604954 cumulative IPC: 0.677413 (Simulation time: 1 hr 24 min 36 sec) 
Heartbeat CPU 0 instructions: 129000001 cycles: 147374652 heartbeat IPC: 0.611101 cumulative IPC: 0.676484 (Simulation time: 1 hr 24 min 57 sec) 
Heartbeat CPU 0 instructions: 130000003 cycles: 149045984 heartbeat IPC: 0.598326 cumulative IPC: 0.675381 (Simulation time: 1 hr 25 min 17 sec) 
Heartbeat CPU 0 instructions: 131000001 cycles: 154482776 heartbeat IPC: 0.183932 cumulative IPC: 0.653814 (Simulation time: 1 hr 25 min 54 sec) 
Heartbeat CPU 0 instructions: 132000000 cycles: 157397864 heartbeat IPC: 0.343042 cumulative IPC: 0.64667 (Simulation time: 1 hr 26 min 26 sec) 
Heartbeat CPU 0 instructions: 133000002 cycles: 159982984 heartbeat IPC: 0.38683 cumulative IPC: 0.641478 (Simulation time: 1 hr 26 min 50 sec) 
Heartbeat CPU 0 instructions: 134000000 cycles: 161346263 heartbeat IPC: 0.733524 cumulative IPC: 0.642438 (Simulation time: 1 hr 27 min 3 sec) 
Heartbeat CPU 0 instructions: 135000001 cycles: 162610653 heartbeat IPC: 0.790896 cumulative IPC: 0.64386 (Simulation time: 1 hr 27 min 16 sec) 
Heartbeat CPU 0 instructions: 136000000 cycles: 163829535 heartbeat IPC: 0.820423 cumulative IPC: 0.645475 (Simulation time: 1 hr 27 min 30 sec) 
Heartbeat CPU 0 instructions: 137000001 cycles: 165224674 heartbeat IPC: 0.716775 cumulative IPC: 0.646214 (Simulation time: 1 hr 27 min 44 sec) 
Heartbeat CPU 0 instructions: 138000003 cycles: 166771163 heartbeat IPC: 0.646627 cumulative IPC: 0.646218 (Simulation time: 1 hr 27 min 59 sec) 
Heartbeat CPU 0 instructions: 139000001 cycles: 168275402 heartbeat IPC: 0.664787 cumulative IPC: 0.646421 (Simulation time: 1 hr 28 min 14 sec) 
Heartbeat CPU 0 instructions: 140000000 cycles: 169797418 heartbeat IPC: 0.657023 cumulative IPC: 0.646537 (Simulation time: 1 hr 28 min 29 sec) 
Heartbeat CPU 0 instructions: 141000003 cycles: 171313933 heartbeat IPC: 0.659409 cumulative IPC: 0.646676 (Simulation time: 1 hr 28 min 44 sec) 
Heartbeat CPU 0 instructions: 142000003 cycles: 172867312 heartbeat IPC: 0.643758 cumulative IPC: 0.646644 (Simulation time: 1 hr 28 min 58 sec) 
Heartbeat CPU 0 instructions: 143000003 cycles: 174373017 heartbeat IPC: 0.664141 cumulative IPC: 0.646827 (Simulation time: 1 hr 29 min 12 sec) 
Heartbeat CPU 0 instructions: 144000000 cycles: 175884450 heartbeat IPC: 0.661622 cumulative IPC: 0.646981 (Simulation time: 1 hr 29 min 25 sec) 
Heartbeat CPU 0 instructions: 145000001 cycles: 177435744 heartbeat IPC: 0.644624 cumulative IPC: 0.646956 (Simulation time: 1 hr 29 min 37 sec) 
Heartbeat CPU 0 instructions: 146000003 cycles: 178957671 heartbeat IPC: 0.657063 cumulative IPC: 0.64706 (Simulation time: 1 hr 29 min 48 sec) 
Heartbeat CPU 0 instructions: 147000001 cycles: 181051400 heartbeat IPC: 0.477616 cumulative IPC: 0.644702 (Simulation time: 1 hr 30 min 0 sec) 
Heartbeat CPU 0 instructions: 148000000 cycles: 183495082 heartbeat IPC: 0.409218 cumulative IPC: 0.640939 (Simulation time: 1 hr 30 min 12 sec) 
Heartbeat CPU 0 instructions: 149000003 cycles: 185890317 heartbeat IPC: 0.417497 cumulative IPC: 0.637492 (Simulation time: 1 hr 30 min 22 sec) 
Heartbeat CPU 0 instructions: 150000001 cycles: 188170070 heartbeat IPC: 0.438643 cumulative IPC: 0.634615 (Simulation time: 1 hr 30 min 31 sec) 
Finished CPU 0 instructions: 100000000 cycles: 157575772 cummulative IPC: 0.634615 (Simulation time: 1 hr 30 min 31 sec) 

ChampSim completed all CPUs

Region of Interest Statistics

CPU 0 cummulative IPC: 0.634615 instructions: 100000000 cycles: 157575772
LLC TOTAL     ACCESS:    4661067  HIT:    1245779  MISS:    3415288
LLC LOAD      ACCESS:     475535  HIT:     126153  MISS:     349382
LLC RFO       ACCESS:     797534  HIT:      90867  MISS:     706667
LLC PREFETCH  ACCESS:    2243440  HIT:     520321  MISS:    1723119
LLC WRITEBACK ACCESS:    1144558  HIT:     508438  MISS:     636120
OPTgen accesses: 23858
OPTgen hits: 11232
OPTgen hit rate: 47.0785


