
*** ChampSim Multicore Out-of-Order Simulator ***

Warmup Instructions: 50000000
Simulation Instructions: 100000000
Configuration: 2
Number of CPUs: 1
LLC sets: 2048
LLC ways: 16
Off-chip DRAM Channels: 1 Width: 64-bit Data Rate: 1600 MT/s

CPU 0 runs /datasets/cs240c-wi22-a00-public/data/Assignment2-gz/milc_360B.trace.gz
CPU 0 L1D next line prefetcher
CPU 0 L2C IP-based stride prefetcher
Initialize Hawkeye state
Heartbeat CPU 0 instructions: 1000001 cycles: 549511 heartbeat IPC: 1.8198 cumulative IPC: 1.8198 (Simulation time: 0 hr 0 min 34 sec) 
Heartbeat CPU 0 instructions: 2000003 cycles: 1099026 heartbeat IPC: 1.81979 cumulative IPC: 1.8198 (Simulation time: 0 hr 1 min 6 sec) 
Heartbeat CPU 0 instructions: 3000001 cycles: 1648486 heartbeat IPC: 1.81997 cumulative IPC: 1.81985 (Simulation time: 0 hr 1 min 41 sec) 
Heartbeat CPU 0 instructions: 4000000 cycles: 2197959 heartbeat IPC: 1.81992 cumulative IPC: 1.81987 (Simulation time: 0 hr 2 min 14 sec) 
Heartbeat CPU 0 instructions: 5000002 cycles: 2747468 heartbeat IPC: 1.81981 cumulative IPC: 1.81986 (Simulation time: 0 hr 2 min 47 sec) 
Heartbeat CPU 0 instructions: 6000001 cycles: 3296983 heartbeat IPC: 1.81978 cumulative IPC: 1.81985 (Simulation time: 0 hr 3 min 20 sec) 
Heartbeat CPU 0 instructions: 7000000 cycles: 3846462 heartbeat IPC: 1.8199 cumulative IPC: 1.81985 (Simulation time: 0 hr 3 min 53 sec) 
Heartbeat CPU 0 instructions: 8000000 cycles: 4395923 heartbeat IPC: 1.81997 cumulative IPC: 1.81987 (Simulation time: 0 hr 4 min 27 sec) 
Heartbeat CPU 0 instructions: 9000001 cycles: 4945436 heartbeat IPC: 1.8198 cumulative IPC: 1.81986 (Simulation time: 0 hr 5 min 2 sec) 
Heartbeat CPU 0 instructions: 10000001 cycles: 5494911 heartbeat IPC: 1.81992 cumulative IPC: 1.81987 (Simulation time: 0 hr 5 min 36 sec) 
Heartbeat CPU 0 instructions: 11000001 cycles: 6044376 heartbeat IPC: 1.81995 cumulative IPC: 1.81987 (Simulation time: 0 hr 6 min 11 sec) 
Heartbeat CPU 0 instructions: 12000000 cycles: 6593855 heartbeat IPC: 1.8199 cumulative IPC: 1.81988 (Simulation time: 0 hr 6 min 48 sec) 
Heartbeat CPU 0 instructions: 13000001 cycles: 7143384 heartbeat IPC: 1.81974 cumulative IPC: 1.81987 (Simulation time: 0 hr 7 min 26 sec) 
Heartbeat CPU 0 instructions: 14000003 cycles: 7692851 heartbeat IPC: 1.81995 cumulative IPC: 1.81987 (Simulation time: 0 hr 8 min 1 sec) 
Heartbeat CPU 0 instructions: 15000003 cycles: 8242328 heartbeat IPC: 1.81991 cumulative IPC: 1.81987 (Simulation time: 0 hr 8 min 37 sec) 
Heartbeat CPU 0 instructions: 16000000 cycles: 8791808 heartbeat IPC: 1.8199 cumulative IPC: 1.81988 (Simulation time: 0 hr 9 min 14 sec) 
Heartbeat CPU 0 instructions: 17000001 cycles: 9341333 heartbeat IPC: 1.81976 cumulative IPC: 1.81987 (Simulation time: 0 hr 9 min 47 sec) 
Heartbeat CPU 0 instructions: 18000001 cycles: 9890809 heartbeat IPC: 1.81992 cumulative IPC: 1.81987 (Simulation time: 0 hr 10 min 27 sec) 
Heartbeat CPU 0 instructions: 19000000 cycles: 10440288 heartbeat IPC: 1.8199 cumulative IPC: 1.81987 (Simulation time: 0 hr 11 min 2 sec) 
Heartbeat CPU 0 instructions: 20000000 cycles: 10989424 heartbeat IPC: 1.82104 cumulative IPC: 1.81993 (Simulation time: 0 hr 11 min 38 sec) 
Heartbeat CPU 0 instructions: 21000000 cycles: 11536405 heartbeat IPC: 1.82822 cumulative IPC: 1.82032 (Simulation time: 0 hr 12 min 13 sec) 
Heartbeat CPU 0 instructions: 22000003 cycles: 12083409 heartbeat IPC: 1.82815 cumulative IPC: 1.82068 (Simulation time: 0 hr 12 min 48 sec) 
Heartbeat CPU 0 instructions: 23000003 cycles: 12630401 heartbeat IPC: 1.82818 cumulative IPC: 1.821 (Simulation time: 0 hr 13 min 28 sec) 
Heartbeat CPU 0 instructions: 24000000 cycles: 13177380 heartbeat IPC: 1.82822 cumulative IPC: 1.8213 (Simulation time: 0 hr 14 min 6 sec) 
Heartbeat CPU 0 instructions: 25000003 cycles: 13724416 heartbeat IPC: 1.82804 cumulative IPC: 1.82157 (Simulation time: 0 hr 14 min 42 sec) 
Heartbeat CPU 0 instructions: 26000003 cycles: 14271406 heartbeat IPC: 1.82819 cumulative IPC: 1.82182 (Simulation time: 0 hr 15 min 15 sec) 
Heartbeat CPU 0 instructions: 27000000 cycles: 14818381 heartbeat IPC: 1.82823 cumulative IPC: 1.82206 (Simulation time: 0 hr 15 min 49 sec) 
Heartbeat CPU 0 instructions: 28000000 cycles: 15365365 heartbeat IPC: 1.82821 cumulative IPC: 1.82228 (Simulation time: 0 hr 16 min 28 sec) 
Heartbeat CPU 0 instructions: 29000003 cycles: 15912381 heartbeat IPC: 1.82811 cumulative IPC: 1.82248 (Simulation time: 0 hr 17 min 7 sec) 
Heartbeat CPU 0 instructions: 30000000 cycles: 16459393 heartbeat IPC: 1.82811 cumulative IPC: 1.82267 (Simulation time: 0 hr 17 min 42 sec) 
Heartbeat CPU 0 instructions: 31000003 cycles: 17006360 heartbeat IPC: 1.82827 cumulative IPC: 1.82285 (Simulation time: 0 hr 18 min 15 sec) 
Heartbeat CPU 0 instructions: 32000000 cycles: 17553384 heartbeat IPC: 1.82807 cumulative IPC: 1.82301 (Simulation time: 0 hr 18 min 48 sec) 
Heartbeat CPU 0 instructions: 33000000 cycles: 18100356 heartbeat IPC: 1.82825 cumulative IPC: 1.82317 (Simulation time: 0 hr 19 min 21 sec) 
Heartbeat CPU 0 instructions: 34000001 cycles: 18647368 heartbeat IPC: 1.82812 cumulative IPC: 1.82331 (Simulation time: 0 hr 19 min 57 sec) 
Heartbeat CPU 0 instructions: 35000001 cycles: 19194373 heartbeat IPC: 1.82814 cumulative IPC: 1.82345 (Simulation time: 0 hr 20 min 31 sec) 
Heartbeat CPU 0 instructions: 36000000 cycles: 19741323 heartbeat IPC: 1.82832 cumulative IPC: 1.82359 (Simulation time: 0 hr 21 min 5 sec) 
Heartbeat CPU 0 instructions: 37000001 cycles: 20288363 heartbeat IPC: 1.82802 cumulative IPC: 1.82371 (Simulation time: 0 hr 21 min 39 sec) 
Heartbeat CPU 0 instructions: 38000001 cycles: 20835354 heartbeat IPC: 1.82818 cumulative IPC: 1.82382 (Simulation time: 0 hr 22 min 11 sec) 
Heartbeat CPU 0 instructions: 39000000 cycles: 21382325 heartbeat IPC: 1.82825 cumulative IPC: 1.82394 (Simulation time: 0 hr 22 min 49 sec) 
Heartbeat CPU 0 instructions: 40000000 cycles: 21929320 heartbeat IPC: 1.82817 cumulative IPC: 1.82404 (Simulation time: 0 hr 23 min 26 sec) 
Heartbeat CPU 0 instructions: 41000001 cycles: 22476331 heartbeat IPC: 1.82812 cumulative IPC: 1.82414 (Simulation time: 0 hr 23 min 59 sec) 
Heartbeat CPU 0 instructions: 42000001 cycles: 23023324 heartbeat IPC: 1.82818 cumulative IPC: 1.82424 (Simulation time: 0 hr 24 min 33 sec) 
Heartbeat CPU 0 instructions: 43000000 cycles: 23570300 heartbeat IPC: 1.82823 cumulative IPC: 1.82433 (Simulation time: 0 hr 25 min 6 sec) 
Heartbeat CPU 0 instructions: 44000000 cycles: 24074427 heartbeat IPC: 1.98363 cumulative IPC: 1.82767 (Simulation time: 0 hr 25 min 42 sec) 
Heartbeat CPU 0 instructions: 45000002 cycles: 24567679 heartbeat IPC: 2.02737 cumulative IPC: 1.83167 (Simulation time: 0 hr 26 min 15 sec) 
Heartbeat CPU 0 instructions: 46000000 cycles: 25060917 heartbeat IPC: 2.02741 cumulative IPC: 1.83553 (Simulation time: 0 hr 26 min 50 sec) 
Heartbeat CPU 0 instructions: 47000000 cycles: 25554137 heartbeat IPC: 2.02749 cumulative IPC: 1.83923 (Simulation time: 0 hr 27 min 24 sec) 
Heartbeat CPU 0 instructions: 48000000 cycles: 26047374 heartbeat IPC: 2.02742 cumulative IPC: 1.8428 (Simulation time: 0 hr 27 min 59 sec) 
Heartbeat CPU 0 instructions: 49000002 cycles: 26540623 heartbeat IPC: 2.02738 cumulative IPC: 1.84623 (Simulation time: 0 hr 28 min 33 sec) 
Heartbeat CPU 0 instructions: 50000000 cycles: 27018579 heartbeat IPC: 2.09224 cumulative IPC: 1.85058 (Simulation time: 0 hr 29 min 6 sec) 

Warmup complete CPU 0 instructions: 50000004 cycles: 27018580 (Simulation time: 0 hr 29 min 6 sec) 

Heartbeat CPU 0 instructions: 51000002 cycles: 28332196 heartbeat IPC: 0.761258 cumulative IPC: 0.761256 (Simulation time: 0 hr 29 min 42 sec) 
Heartbeat CPU 0 instructions: 52000000 cycles: 30255356 heartbeat IPC: 0.519976 cumulative IPC: 0.617898 (Simulation time: 0 hr 30 min 20 sec) 
Heartbeat CPU 0 instructions: 53000002 cycles: 32525974 heartbeat IPC: 0.44041 cumulative IPC: 0.544722 (Simulation time: 0 hr 30 min 56 sec) 
Heartbeat CPU 0 instructions: 54000003 cycles: 34791295 heartbeat IPC: 0.441439 cumulative IPC: 0.514621 (Simulation time: 0 hr 31 min 34 sec) 
Heartbeat CPU 0 instructions: 55000003 cycles: 37045077 heartbeat IPC: 0.443699 cumulative IPC: 0.498679 (Simulation time: 0 hr 32 min 10 sec) 
Heartbeat CPU 0 instructions: 56000000 cycles: 39282533 heartbeat IPC: 0.446935 cumulative IPC: 0.489238 (Simulation time: 0 hr 32 min 48 sec) 
Heartbeat CPU 0 instructions: 57000000 cycles: 41515471 heartbeat IPC: 0.44784 cumulative IPC: 0.482862 (Simulation time: 0 hr 33 min 25 sec) 
Heartbeat CPU 0 instructions: 58000000 cycles: 43750832 heartbeat IPC: 0.447355 cumulative IPC: 0.478118 (Simulation time: 0 hr 34 min 2 sec) 
Heartbeat CPU 0 instructions: 59000001 cycles: 45982891 heartbeat IPC: 0.448017 cumulative IPC: 0.474575 (Simulation time: 0 hr 34 min 40 sec) 
Heartbeat CPU 0 instructions: 60000000 cycles: 48212079 heartbeat IPC: 0.448593 cumulative IPC: 0.471843 (Simulation time: 0 hr 35 min 15 sec) 
Heartbeat CPU 0 instructions: 61000000 cycles: 50443397 heartbeat IPC: 0.448166 cumulative IPC: 0.469587 (Simulation time: 0 hr 35 min 49 sec) 
Heartbeat CPU 0 instructions: 62000003 cycles: 52673487 heartbeat IPC: 0.448414 cumulative IPC: 0.467747 (Simulation time: 0 hr 36 min 26 sec) 
Heartbeat CPU 0 instructions: 63000003 cycles: 54905127 heartbeat IPC: 0.448101 cumulative IPC: 0.466175 (Simulation time: 0 hr 37 min 1 sec) 
Heartbeat CPU 0 instructions: 64000000 cycles: 57140951 heartbeat IPC: 0.447261 cumulative IPC: 0.464771 (Simulation time: 0 hr 37 min 34 sec) 
Heartbeat CPU 0 instructions: 65000001 cycles: 59373887 heartbeat IPC: 0.447841 cumulative IPC: 0.463602 (Simulation time: 0 hr 38 min 9 sec) 
Heartbeat CPU 0 instructions: 66000001 cycles: 61606200 heartbeat IPC: 0.447966 cumulative IPC: 0.462593 (Simulation time: 0 hr 38 min 45 sec) 
Heartbeat CPU 0 instructions: 67000002 cycles: 63842089 heartbeat IPC: 0.44725 cumulative IPC: 0.461662 (Simulation time: 0 hr 39 min 21 sec) 
Heartbeat CPU 0 instructions: 68000000 cycles: 66081458 heartbeat IPC: 0.446553 cumulative IPC: 0.460795 (Simulation time: 0 hr 39 min 56 sec) 
Heartbeat CPU 0 instructions: 69000001 cycles: 68316595 heartbeat IPC: 0.4474 cumulative IPC: 0.46007 (Simulation time: 0 hr 40 min 30 sec) 
Heartbeat CPU 0 instructions: 70000000 cycles: 70552523 heartbeat IPC: 0.447241 cumulative IPC: 0.459412 (Simulation time: 0 hr 41 min 8 sec) 
Heartbeat CPU 0 instructions: 71000000 cycles: 72790358 heartbeat IPC: 0.44686 cumulative IPC: 0.458798 (Simulation time: 0 hr 41 min 43 sec) 
Heartbeat CPU 0 instructions: 72000000 cycles: 75020930 heartbeat IPC: 0.448316 cumulative IPC: 0.458311 (Simulation time: 0 hr 42 min 21 sec) 
Heartbeat CPU 0 instructions: 73000001 cycles: 77242251 heartbeat IPC: 0.450183 cumulative IPC: 0.457951 (Simulation time: 0 hr 42 min 57 sec) 
Heartbeat CPU 0 instructions: 74000002 cycles: 78819403 heartbeat IPC: 0.634055 cumulative IPC: 0.463313 (Simulation time: 0 hr 43 min 35 sec) 
Heartbeat CPU 0 instructions: 75000003 cycles: 80406114 heartbeat IPC: 0.630235 cumulative IPC: 0.468274 (Simulation time: 0 hr 44 min 13 sec) 
Heartbeat CPU 0 instructions: 76000000 cycles: 81992739 heartbeat IPC: 0.630267 cumulative IPC: 0.472949 (Simulation time: 0 hr 44 min 51 sec) 
Heartbeat CPU 0 instructions: 77000000 cycles: 83577427 heartbeat IPC: 0.631039 cumulative IPC: 0.477379 (Simulation time: 0 hr 45 min 32 sec) 
Heartbeat CPU 0 instructions: 78000000 cycles: 85169899 heartbeat IPC: 0.627955 cumulative IPC: 0.481502 (Simulation time: 0 hr 46 min 13 sec) 
Heartbeat CPU 0 instructions: 79000000 cycles: 86755741 heartbeat IPC: 0.63058 cumulative IPC: 0.48546 (Simulation time: 0 hr 46 min 53 sec) 
Heartbeat CPU 0 instructions: 80000000 cycles: 88343032 heartbeat IPC: 0.630004 cumulative IPC: 0.489201 (Simulation time: 0 hr 47 min 32 sec) 
Heartbeat CPU 0 instructions: 81000003 cycles: 89929853 heartbeat IPC: 0.630193 cumulative IPC: 0.492757 (Simulation time: 0 hr 48 min 13 sec) 
Heartbeat CPU 0 instructions: 82000003 cycles: 91520575 heartbeat IPC: 0.628645 cumulative IPC: 0.496109 (Simulation time: 0 hr 48 min 48 sec) 
Heartbeat CPU 0 instructions: 83000002 cycles: 93105640 heartbeat IPC: 0.630888 cumulative IPC: 0.499341 (Simulation time: 0 hr 49 min 26 sec) 
Heartbeat CPU 0 instructions: 84000000 cycles: 94697631 heartbeat IPC: 0.628143 cumulative IPC: 0.502371 (Simulation time: 0 hr 50 min 4 sec) 
Heartbeat CPU 0 instructions: 85000000 cycles: 96285885 heartbeat IPC: 0.629622 cumulative IPC: 0.505289 (Simulation time: 0 hr 50 min 44 sec) 
Heartbeat CPU 0 instructions: 86000000 cycles: 97873430 heartbeat IPC: 0.629903 cumulative IPC: 0.508081 (Simulation time: 0 hr 51 min 24 sec) 
Heartbeat CPU 0 instructions: 87000000 cycles: 99455474 heartbeat IPC: 0.632094 cumulative IPC: 0.510789 (Simulation time: 0 hr 52 min 5 sec) 
Heartbeat CPU 0 instructions: 88000000 cycles: 101041938 heartbeat IPC: 0.630333 cumulative IPC: 0.513351 (Simulation time: 0 hr 52 min 48 sec) 
Heartbeat CPU 0 instructions: 89000002 cycles: 102632640 heartbeat IPC: 0.628655 cumulative IPC: 0.515777 (Simulation time: 0 hr 53 min 33 sec) 
Heartbeat CPU 0 instructions: 90000002 cycles: 104218195 heartbeat IPC: 0.630694 cumulative IPC: 0.518137 (Simulation time: 0 hr 54 min 17 sec) 
Heartbeat CPU 0 instructions: 91000003 cycles: 105803806 heartbeat IPC: 0.630672 cumulative IPC: 0.520402 (Simulation time: 0 hr 54 min 56 sec) 
Heartbeat CPU 0 instructions: 92000000 cycles: 107391738 heartbeat IPC: 0.629748 cumulative IPC: 0.522562 (Simulation time: 0 hr 55 min 41 sec) 
Heartbeat CPU 0 instructions: 93000000 cycles: 108973745 heartbeat IPC: 0.632108 cumulative IPC: 0.524677 (Simulation time: 0 hr 56 min 18 sec) 
Heartbeat CPU 0 instructions: 94000000 cycles: 110562622 heartbeat IPC: 0.629375 cumulative IPC: 0.526668 (Simulation time: 0 hr 56 min 57 sec) 
Heartbeat CPU 0 instructions: 95000000 cycles: 112152556 heartbeat IPC: 0.628957 cumulative IPC: 0.528579 (Simulation time: 0 hr 57 min 35 sec) 
Heartbeat CPU 0 instructions: 96000000 cycles: 113738241 heartbeat IPC: 0.630642 cumulative IPC: 0.530445 (Simulation time: 0 hr 58 min 11 sec) 
Heartbeat CPU 0 instructions: 97000002 cycles: 115311411 heartbeat IPC: 0.63566 cumulative IPC: 0.53232 (Simulation time: 0 hr 58 min 50 sec) 
Heartbeat CPU 0 instructions: 98000003 cycles: 116885158 heartbeat IPC: 0.635427 cumulative IPC: 0.534125 (Simulation time: 0 hr 59 min 29 sec) 
Heartbeat CPU 0 instructions: 99000000 cycles: 118458853 heartbeat IPC: 0.635445 cumulative IPC: 0.535869 (Simulation time: 1 hr 0 min 4 sec) 
Heartbeat CPU 0 instructions: 100000000 cycles: 120031534 heartbeat IPC: 0.635857 cumulative IPC: 0.53756 (Simulation time: 1 hr 0 min 39 sec) 
Heartbeat CPU 0 instructions: 101000002 cycles: 121609896 heartbeat IPC: 0.633569 cumulative IPC: 0.539162 (Simulation time: 1 hr 1 min 15 sec) 
Heartbeat CPU 0 instructions: 102000000 cycles: 123186264 heartbeat IPC: 0.634368 cumulative IPC: 0.540722 (Simulation time: 1 hr 1 min 50 sec) 
Heartbeat CPU 0 instructions: 103000002 cycles: 124762666 heartbeat IPC: 0.634357 cumulative IPC: 0.542232 (Simulation time: 1 hr 2 min 29 sec) 
Heartbeat CPU 0 instructions: 104000000 cycles: 126334034 heartbeat IPC: 0.636387 cumulative IPC: 0.543722 (Simulation time: 1 hr 3 min 8 sec) 
Heartbeat CPU 0 instructions: 105000003 cycles: 127907364 heartbeat IPC: 0.635596 cumulative IPC: 0.545155 (Simulation time: 1 hr 3 min 45 sec) 
Heartbeat CPU 0 instructions: 106000002 cycles: 129486610 heartbeat IPC: 0.633213 cumulative IPC: 0.546512 (Simulation time: 1 hr 4 min 21 sec) 
Heartbeat CPU 0 instructions: 107000000 cycles: 131068236 heartbeat IPC: 0.632259 cumulative IPC: 0.547815 (Simulation time: 1 hr 5 min 1 sec) 
Heartbeat CPU 0 instructions: 108000000 cycles: 132643955 heartbeat IPC: 0.634631 cumulative IPC: 0.54911 (Simulation time: 1 hr 5 min 39 sec) 
Heartbeat CPU 0 instructions: 109000002 cycles: 134216557 heartbeat IPC: 0.63589 cumulative IPC: 0.550384 (Simulation time: 1 hr 6 min 19 sec) 
Heartbeat CPU 0 instructions: 110000000 cycles: 135791269 heartbeat IPC: 0.635036 cumulative IPC: 0.551609 (Simulation time: 1 hr 6 min 59 sec) 
Heartbeat CPU 0 instructions: 111000000 cycles: 137368673 heartbeat IPC: 0.633953 cumulative IPC: 0.552786 (Simulation time: 1 hr 7 min 41 sec) 
Heartbeat CPU 0 instructions: 112000000 cycles: 138944819 heartbeat IPC: 0.634459 cumulative IPC: 0.553936 (Simulation time: 1 hr 8 min 22 sec) 
Heartbeat CPU 0 instructions: 113000002 cycles: 140521115 heartbeat IPC: 0.6344 cumulative IPC: 0.555054 (Simulation time: 1 hr 9 min 0 sec) 
Heartbeat CPU 0 instructions: 114000003 cycles: 142100326 heartbeat IPC: 0.633228 cumulative IPC: 0.556126 (Simulation time: 1 hr 9 min 33 sec) 
Heartbeat CPU 0 instructions: 115000002 cycles: 143676347 heartbeat IPC: 0.634509 cumulative IPC: 0.557185 (Simulation time: 1 hr 10 min 10 sec) 
Heartbeat CPU 0 instructions: 116000000 cycles: 145248103 heartbeat IPC: 0.63623 cumulative IPC: 0.558236 (Simulation time: 1 hr 10 min 49 sec) 
Heartbeat CPU 0 instructions: 117000003 cycles: 146818052 heartbeat IPC: 0.636965 cumulative IPC: 0.559268 (Simulation time: 1 hr 11 min 29 sec) 
Heartbeat CPU 0 instructions: 118000001 cycles: 148389544 heartbeat IPC: 0.636337 cumulative IPC: 0.560266 (Simulation time: 1 hr 12 min 0 sec) 
Heartbeat CPU 0 instructions: 119000000 cycles: 149968767 heartbeat IPC: 0.633222 cumulative IPC: 0.561203 (Simulation time: 1 hr 12 min 34 sec) 
Heartbeat CPU 0 instructions: 120000000 cycles: 151788989 heartbeat IPC: 0.549384 cumulative IPC: 0.56103 (Simulation time: 1 hr 13 min 8 sec) 
Heartbeat CPU 0 instructions: 121000003 cycles: 153871282 heartbeat IPC: 0.480241 cumulative IPC: 0.559704 (Simulation time: 1 hr 13 min 50 sec) 
Heartbeat CPU 0 instructions: 122000002 cycles: 156162250 heartbeat IPC: 0.436496 cumulative IPC: 0.557519 (Simulation time: 1 hr 14 min 32 sec) 
Heartbeat CPU 0 instructions: 123000002 cycles: 158543275 heartbeat IPC: 0.419987 cumulative IPC: 0.555029 (Simulation time: 1 hr 15 min 10 sec) 
Heartbeat CPU 0 instructions: 124000000 cycles: 160922133 heartbeat IPC: 0.420369 cumulative IPC: 0.552637 (Simulation time: 1 hr 15 min 51 sec) 
Heartbeat CPU 0 instructions: 125000002 cycles: 163236844 heartbeat IPC: 0.43202 cumulative IPC: 0.550587 (Simulation time: 1 hr 16 min 29 sec) 
Heartbeat CPU 0 instructions: 126000001 cycles: 165591724 heartbeat IPC: 0.42465 cumulative IPC: 0.548447 (Simulation time: 1 hr 17 min 1 sec) 
Heartbeat CPU 0 instructions: 127000001 cycles: 169825770 heartbeat IPC: 0.236181 cumulative IPC: 0.539189 (Simulation time: 1 hr 17 min 46 sec) 
Heartbeat CPU 0 instructions: 128000000 cycles: 171676296 heartbeat IPC: 0.540386 cumulative IPC: 0.539204 (Simulation time: 1 hr 18 min 9 sec) 
Heartbeat CPU 0 instructions: 129000000 cycles: 173512900 heartbeat IPC: 0.544483 cumulative IPC: 0.53927 (Simulation time: 1 hr 18 min 33 sec) 
Heartbeat CPU 0 instructions: 130000001 cycles: 175356903 heartbeat IPC: 0.542299 cumulative IPC: 0.539308 (Simulation time: 1 hr 18 min 56 sec) 
Heartbeat CPU 0 instructions: 131000003 cycles: 177191475 heartbeat IPC: 0.545087 cumulative IPC: 0.539378 (Simulation time: 1 hr 19 min 20 sec) 
Heartbeat CPU 0 instructions: 132000000 cycles: 179028232 heartbeat IPC: 0.544436 cumulative IPC: 0.539439 (Simulation time: 1 hr 19 min 43 sec) 
Heartbeat CPU 0 instructions: 133000001 cycles: 180866943 heartbeat IPC: 0.54386 cumulative IPC: 0.539492 (Simulation time: 1 hr 20 min 4 sec) 
Heartbeat CPU 0 instructions: 134000003 cycles: 182682732 heartbeat IPC: 0.550726 cumulative IPC: 0.539623 (Simulation time: 1 hr 20 min 26 sec) 
Heartbeat CPU 0 instructions: 135000001 cycles: 184506670 heartbeat IPC: 0.548263 cumulative IPC: 0.539723 (Simulation time: 1 hr 20 min 47 sec) 
Heartbeat CPU 0 instructions: 136000000 cycles: 186323783 heartbeat IPC: 0.550323 cumulative IPC: 0.539844 (Simulation time: 1 hr 21 min 6 sec) 
Heartbeat CPU 0 instructions: 137000001 cycles: 188143721 heartbeat IPC: 0.54947 cumulative IPC: 0.539953 (Simulation time: 1 hr 21 min 26 sec) 
Heartbeat CPU 0 instructions: 138000003 cycles: 189957007 heartbeat IPC: 0.551486 cumulative IPC: 0.540081 (Simulation time: 1 hr 21 min 48 sec) 
Heartbeat CPU 0 instructions: 139000003 cycles: 191770806 heartbeat IPC: 0.551329 cumulative IPC: 0.540205 (Simulation time: 1 hr 22 min 8 sec) 
Heartbeat CPU 0 instructions: 140000000 cycles: 193583467 heartbeat IPC: 0.551673 cumulative IPC: 0.54033 (Simulation time: 1 hr 22 min 26 sec) 
Heartbeat CPU 0 instructions: 141000003 cycles: 195394666 heartbeat IPC: 0.552122 cumulative IPC: 0.540457 (Simulation time: 1 hr 22 min 44 sec) 
Heartbeat CPU 0 instructions: 142000001 cycles: 197209948 heartbeat IPC: 0.550878 cumulative IPC: 0.540568 (Simulation time: 1 hr 23 min 3 sec) 
Heartbeat CPU 0 instructions: 143000003 cycles: 199026823 heartbeat IPC: 0.550397 cumulative IPC: 0.540672 (Simulation time: 1 hr 23 min 20 sec) 
Heartbeat CPU 0 instructions: 144000000 cycles: 200846342 heartbeat IPC: 0.549594 cumulative IPC: 0.540765 (Simulation time: 1 hr 23 min 39 sec) 
Heartbeat CPU 0 instructions: 145000001 cycles: 202657173 heartbeat IPC: 0.552233 cumulative IPC: 0.540883 (Simulation time: 1 hr 23 min 56 sec) 
Heartbeat CPU 0 instructions: 146000001 cycles: 204468761 heartbeat IPC: 0.552002 cumulative IPC: 0.540997 (Simulation time: 1 hr 24 min 14 sec) 
Heartbeat CPU 0 instructions: 147000001 cycles: 206287818 heartbeat IPC: 0.549735 cumulative IPC: 0.541086 (Simulation time: 1 hr 24 min 32 sec) 
Heartbeat CPU 0 instructions: 148000000 cycles: 208102551 heartbeat IPC: 0.551045 cumulative IPC: 0.541185 (Simulation time: 1 hr 24 min 50 sec) 
Heartbeat CPU 0 instructions: 149000001 cycles: 209922616 heartbeat IPC: 0.549432 cumulative IPC: 0.541267 (Simulation time: 1 hr 25 min 9 sec) 
Heartbeat CPU 0 instructions: 150000003 cycles: 211737824 heartbeat IPC: 0.550902 cumulative IPC: 0.541362 (Simulation time: 1 hr 25 min 25 sec) 
Finished CPU 0 instructions: 100000003 cycles: 184719245 cummulative IPC: 0.541362 (Simulation time: 1 hr 25 min 25 sec) 

ChampSim completed all CPUs

Region of Interest Statistics

CPU 0 cummulative IPC: 0.541362 instructions: 100000003 cycles: 184719245
LLC TOTAL     ACCESS:    3782724  HIT:     142778  MISS:    3639946
LLC LOAD      ACCESS:    1109207  HIT:        297  MISS:    1108910
LLC RFO       ACCESS:     348144  HIT:       2912  MISS:     345232
LLC PREFETCH  ACCESS:    1536360  HIT:       9800  MISS:    1526560
LLC WRITEBACK ACCESS:     789013  HIT:     129769  MISS:     659244
OPTgen accesses: 29741
OPTgen hits: 416
OPTgen hit rate: 1.39874


