
*** ChampSim Multicore Out-of-Order Simulator ***

Warmup Instructions: 50000000
Simulation Instructions: 100000000
Configuration: 2
Number of CPUs: 1
LLC sets: 2048
LLC ways: 16
Off-chip DRAM Channels: 1 Width: 64-bit Data Rate: 1600 MT/s

CPU 0 runs /datasets/cs240c-wi22-a00-public/data/Assignment2-gz/zeusmp_100B.trace.gz
CPU 0 L1D next line prefetcher
CPU 0 L2C IP-based stride prefetcher
Initialize Hawkeye state
Heartbeat CPU 0 instructions: 1000002 cycles: 462679 heartbeat IPC: 2.16133 cumulative IPC: 2.16133 (Simulation time: 0 hr 0 min 32 sec) 
Heartbeat CPU 0 instructions: 2000001 cycles: 925469 heartbeat IPC: 2.16081 cumulative IPC: 2.16107 (Simulation time: 0 hr 1 min 4 sec) 
Heartbeat CPU 0 instructions: 3000003 cycles: 1388509 heartbeat IPC: 2.15964 cumulative IPC: 2.16059 (Simulation time: 0 hr 1 min 33 sec) 
Heartbeat CPU 0 instructions: 4000000 cycles: 1851236 heartbeat IPC: 2.16109 cumulative IPC: 2.16072 (Simulation time: 0 hr 2 min 5 sec) 
Heartbeat CPU 0 instructions: 5000003 cycles: 2314175 heartbeat IPC: 2.16012 cumulative IPC: 2.1606 (Simulation time: 0 hr 2 min 39 sec) 
Heartbeat CPU 0 instructions: 6000001 cycles: 2777030 heartbeat IPC: 2.1605 cumulative IPC: 2.16058 (Simulation time: 0 hr 3 min 7 sec) 
Heartbeat CPU 0 instructions: 7000001 cycles: 3239713 heartbeat IPC: 2.16131 cumulative IPC: 2.16069 (Simulation time: 0 hr 3 min 35 sec) 
Heartbeat CPU 0 instructions: 8000000 cycles: 3702585 heartbeat IPC: 2.16042 cumulative IPC: 2.16065 (Simulation time: 0 hr 4 min 3 sec) 
Heartbeat CPU 0 instructions: 9000003 cycles: 4165366 heartbeat IPC: 2.16086 cumulative IPC: 2.16068 (Simulation time: 0 hr 4 min 32 sec) 
Heartbeat CPU 0 instructions: 10000001 cycles: 4628690 heartbeat IPC: 2.15831 cumulative IPC: 2.16044 (Simulation time: 0 hr 5 min 1 sec) 
Heartbeat CPU 0 instructions: 11000000 cycles: 5092318 heartbeat IPC: 2.1569 cumulative IPC: 2.16012 (Simulation time: 0 hr 5 min 30 sec) 
Heartbeat CPU 0 instructions: 12000000 cycles: 5556006 heartbeat IPC: 2.15662 cumulative IPC: 2.15982 (Simulation time: 0 hr 6 min 1 sec) 
Heartbeat CPU 0 instructions: 13000001 cycles: 6019115 heartbeat IPC: 2.15932 cumulative IPC: 2.15979 (Simulation time: 0 hr 6 min 34 sec) 
Heartbeat CPU 0 instructions: 14000002 cycles: 6481910 heartbeat IPC: 2.16079 cumulative IPC: 2.15986 (Simulation time: 0 hr 7 min 4 sec) 
Heartbeat CPU 0 instructions: 15000002 cycles: 6944867 heartbeat IPC: 2.16003 cumulative IPC: 2.15987 (Simulation time: 0 hr 7 min 35 sec) 
Heartbeat CPU 0 instructions: 16000000 cycles: 7407539 heartbeat IPC: 2.16135 cumulative IPC: 2.15996 (Simulation time: 0 hr 8 min 4 sec) 
Heartbeat CPU 0 instructions: 17000000 cycles: 7838201 heartbeat IPC: 2.32201 cumulative IPC: 2.16886 (Simulation time: 0 hr 8 min 34 sec) 
Heartbeat CPU 0 instructions: 18000001 cycles: 8265869 heartbeat IPC: 2.33826 cumulative IPC: 2.17763 (Simulation time: 0 hr 9 min 5 sec) 
Heartbeat CPU 0 instructions: 19000002 cycles: 8693063 heartbeat IPC: 2.34086 cumulative IPC: 2.18565 (Simulation time: 0 hr 9 min 34 sec) 
Heartbeat CPU 0 instructions: 20000000 cycles: 9120476 heartbeat IPC: 2.33965 cumulative IPC: 2.19287 (Simulation time: 0 hr 10 min 4 sec) 
Heartbeat CPU 0 instructions: 21000001 cycles: 9547755 heartbeat IPC: 2.34039 cumulative IPC: 2.19947 (Simulation time: 0 hr 10 min 34 sec) 
Heartbeat CPU 0 instructions: 22000001 cycles: 9975183 heartbeat IPC: 2.33958 cumulative IPC: 2.20547 (Simulation time: 0 hr 11 min 4 sec) 
Heartbeat CPU 0 instructions: 23000000 cycles: 10403234 heartbeat IPC: 2.33617 cumulative IPC: 2.21085 (Simulation time: 0 hr 11 min 32 sec) 
Heartbeat CPU 0 instructions: 24000000 cycles: 10830546 heartbeat IPC: 2.34021 cumulative IPC: 2.21595 (Simulation time: 0 hr 11 min 59 sec) 
Heartbeat CPU 0 instructions: 25000002 cycles: 11257790 heartbeat IPC: 2.34059 cumulative IPC: 2.22068 (Simulation time: 0 hr 12 min 25 sec) 
Heartbeat CPU 0 instructions: 26000001 cycles: 11685234 heartbeat IPC: 2.33949 cumulative IPC: 2.22503 (Simulation time: 0 hr 12 min 53 sec) 
Heartbeat CPU 0 instructions: 27000003 cycles: 12113058 heartbeat IPC: 2.33741 cumulative IPC: 2.229 (Simulation time: 0 hr 13 min 22 sec) 
Heartbeat CPU 0 instructions: 28000000 cycles: 12540560 heartbeat IPC: 2.33916 cumulative IPC: 2.23276 (Simulation time: 0 hr 13 min 49 sec) 
Heartbeat CPU 0 instructions: 29000002 cycles: 12967728 heartbeat IPC: 2.341 cumulative IPC: 2.23632 (Simulation time: 0 hr 14 min 16 sec) 
Heartbeat CPU 0 instructions: 30000003 cycles: 13395167 heartbeat IPC: 2.33952 cumulative IPC: 2.23961 (Simulation time: 0 hr 14 min 47 sec) 
Heartbeat CPU 0 instructions: 31000001 cycles: 13822848 heartbeat IPC: 2.33819 cumulative IPC: 2.24266 (Simulation time: 0 hr 15 min 14 sec) 
Heartbeat CPU 0 instructions: 32000000 cycles: 14250554 heartbeat IPC: 2.33805 cumulative IPC: 2.24553 (Simulation time: 0 hr 15 min 42 sec) 
Heartbeat CPU 0 instructions: 33000002 cycles: 14677546 heartbeat IPC: 2.34197 cumulative IPC: 2.24833 (Simulation time: 0 hr 16 min 10 sec) 
Heartbeat CPU 0 instructions: 34000001 cycles: 15104732 heartbeat IPC: 2.3409 cumulative IPC: 2.25095 (Simulation time: 0 hr 16 min 37 sec) 
Heartbeat CPU 0 instructions: 35000003 cycles: 15532167 heartbeat IPC: 2.33954 cumulative IPC: 2.25339 (Simulation time: 0 hr 17 min 5 sec) 
Heartbeat CPU 0 instructions: 36000000 cycles: 15959792 heartbeat IPC: 2.33849 cumulative IPC: 2.25567 (Simulation time: 0 hr 17 min 33 sec) 
Heartbeat CPU 0 instructions: 37000001 cycles: 16387235 heartbeat IPC: 2.3395 cumulative IPC: 2.25785 (Simulation time: 0 hr 18 min 1 sec) 
Heartbeat CPU 0 instructions: 38000003 cycles: 16814711 heartbeat IPC: 2.33932 cumulative IPC: 2.25993 (Simulation time: 0 hr 18 min 26 sec) 
Heartbeat CPU 0 instructions: 39000000 cycles: 17242309 heartbeat IPC: 2.33864 cumulative IPC: 2.26188 (Simulation time: 0 hr 18 min 52 sec) 
Heartbeat CPU 0 instructions: 40000000 cycles: 17669641 heartbeat IPC: 2.3401 cumulative IPC: 2.26377 (Simulation time: 0 hr 19 min 18 sec) 
Heartbeat CPU 0 instructions: 41000003 cycles: 18097560 heartbeat IPC: 2.3369 cumulative IPC: 2.2655 (Simulation time: 0 hr 19 min 45 sec) 
Heartbeat CPU 0 instructions: 42000000 cycles: 18524658 heartbeat IPC: 2.34138 cumulative IPC: 2.26725 (Simulation time: 0 hr 20 min 12 sec) 
Heartbeat CPU 0 instructions: 43000003 cycles: 18952082 heartbeat IPC: 2.3396 cumulative IPC: 2.26888 (Simulation time: 0 hr 20 min 37 sec) 
Heartbeat CPU 0 instructions: 44000000 cycles: 19379537 heartbeat IPC: 2.33942 cumulative IPC: 2.27044 (Simulation time: 0 hr 21 min 3 sec) 
Heartbeat CPU 0 instructions: 45000001 cycles: 19807137 heartbeat IPC: 2.33864 cumulative IPC: 2.27191 (Simulation time: 0 hr 21 min 32 sec) 
Heartbeat CPU 0 instructions: 46000000 cycles: 20234739 heartbeat IPC: 2.33862 cumulative IPC: 2.27332 (Simulation time: 0 hr 22 min 0 sec) 
Heartbeat CPU 0 instructions: 47000003 cycles: 20661985 heartbeat IPC: 2.34058 cumulative IPC: 2.27471 (Simulation time: 0 hr 22 min 27 sec) 
Heartbeat CPU 0 instructions: 48000000 cycles: 21089436 heartbeat IPC: 2.33944 cumulative IPC: 2.27602 (Simulation time: 0 hr 22 min 56 sec) 
Heartbeat CPU 0 instructions: 49000001 cycles: 21516525 heartbeat IPC: 2.34143 cumulative IPC: 2.27732 (Simulation time: 0 hr 23 min 23 sec) 
Heartbeat CPU 0 instructions: 50000000 cycles: 21944550 heartbeat IPC: 2.33631 cumulative IPC: 2.27847 (Simulation time: 0 hr 23 min 53 sec) 

Warmup complete CPU 0 instructions: 50000003 cycles: 21944551 (Simulation time: 0 hr 23 min 53 sec) 

Heartbeat CPU 0 instructions: 51000002 cycles: 22637529 heartbeat IPC: 1.44305 cumulative IPC: 1.44305 (Simulation time: 0 hr 24 min 23 sec) 
Heartbeat CPU 0 instructions: 52000000 cycles: 23319074 heartbeat IPC: 1.46725 cumulative IPC: 1.45505 (Simulation time: 0 hr 24 min 54 sec) 
Heartbeat CPU 0 instructions: 53000001 cycles: 24010418 heartbeat IPC: 1.44646 cumulative IPC: 1.45217 (Simulation time: 0 hr 25 min 25 sec) 
Heartbeat CPU 0 instructions: 54000003 cycles: 24693762 heartbeat IPC: 1.46339 cumulative IPC: 1.45496 (Simulation time: 0 hr 25 min 56 sec) 
Heartbeat CPU 0 instructions: 55000003 cycles: 25381023 heartbeat IPC: 1.45505 cumulative IPC: 1.45498 (Simulation time: 0 hr 26 min 28 sec) 
Heartbeat CPU 0 instructions: 56000000 cycles: 26071096 heartbeat IPC: 1.44912 cumulative IPC: 1.454 (Simulation time: 0 hr 26 min 58 sec) 
Heartbeat CPU 0 instructions: 57000003 cycles: 26751272 heartbeat IPC: 1.47021 cumulative IPC: 1.45629 (Simulation time: 0 hr 27 min 33 sec) 
Heartbeat CPU 0 instructions: 58000003 cycles: 27446532 heartbeat IPC: 1.43831 cumulative IPC: 1.45402 (Simulation time: 0 hr 28 min 5 sec) 
Heartbeat CPU 0 instructions: 59000003 cycles: 28131378 heartbeat IPC: 1.46018 cumulative IPC: 1.4547 (Simulation time: 0 hr 28 min 42 sec) 
Heartbeat CPU 0 instructions: 60000000 cycles: 28827636 heartbeat IPC: 1.43624 cumulative IPC: 1.45284 (Simulation time: 0 hr 29 min 17 sec) 
Heartbeat CPU 0 instructions: 61000000 cycles: 29511718 heartbeat IPC: 1.46181 cumulative IPC: 1.45365 (Simulation time: 0 hr 29 min 56 sec) 
Heartbeat CPU 0 instructions: 62000001 cycles: 30206634 heartbeat IPC: 1.43902 cumulative IPC: 1.45242 (Simulation time: 0 hr 30 min 26 sec) 
Heartbeat CPU 0 instructions: 63000001 cycles: 30893197 heartbeat IPC: 1.45653 cumulative IPC: 1.45273 (Simulation time: 0 hr 31 min 0 sec) 
Heartbeat CPU 0 instructions: 64000000 cycles: 31589221 heartbeat IPC: 1.43673 cumulative IPC: 1.45158 (Simulation time: 0 hr 31 min 33 sec) 
Heartbeat CPU 0 instructions: 65000003 cycles: 32272473 heartbeat IPC: 1.46359 cumulative IPC: 1.45237 (Simulation time: 0 hr 32 min 8 sec) 
Heartbeat CPU 0 instructions: 66000003 cycles: 32966549 heartbeat IPC: 1.44076 cumulative IPC: 1.45164 (Simulation time: 0 hr 32 min 43 sec) 
Heartbeat CPU 0 instructions: 67000000 cycles: 33648622 heartbeat IPC: 1.46611 cumulative IPC: 1.45249 (Simulation time: 0 hr 33 min 15 sec) 
Heartbeat CPU 0 instructions: 68000000 cycles: 34339034 heartbeat IPC: 1.44841 cumulative IPC: 1.45226 (Simulation time: 0 hr 33 min 49 sec) 
Heartbeat CPU 0 instructions: 69000000 cycles: 35022635 heartbeat IPC: 1.46284 cumulative IPC: 1.45281 (Simulation time: 0 hr 34 min 22 sec) 
Heartbeat CPU 0 instructions: 70000003 cycles: 35700547 heartbeat IPC: 1.47512 cumulative IPC: 1.45391 (Simulation time: 0 hr 34 min 55 sec) 
Heartbeat CPU 0 instructions: 71000003 cycles: 36392483 heartbeat IPC: 1.44522 cumulative IPC: 1.4535 (Simulation time: 0 hr 35 min 30 sec) 
Heartbeat CPU 0 instructions: 72000000 cycles: 37073916 heartbeat IPC: 1.46749 cumulative IPC: 1.45413 (Simulation time: 0 hr 36 min 2 sec) 
Heartbeat CPU 0 instructions: 73000002 cycles: 37770431 heartbeat IPC: 1.43572 cumulative IPC: 1.45332 (Simulation time: 0 hr 36 min 32 sec) 
Heartbeat CPU 0 instructions: 74000003 cycles: 38450173 heartbeat IPC: 1.47115 cumulative IPC: 1.45405 (Simulation time: 0 hr 37 min 2 sec) 
Heartbeat CPU 0 instructions: 75000003 cycles: 39141409 heartbeat IPC: 1.44668 cumulative IPC: 1.45375 (Simulation time: 0 hr 37 min 36 sec) 
Heartbeat CPU 0 instructions: 76000000 cycles: 39823724 heartbeat IPC: 1.46559 cumulative IPC: 1.45421 (Simulation time: 0 hr 38 min 7 sec) 
Heartbeat CPU 0 instructions: 77000003 cycles: 40522840 heartbeat IPC: 1.43038 cumulative IPC: 1.45331 (Simulation time: 0 hr 38 min 37 sec) 
Heartbeat CPU 0 instructions: 78000002 cycles: 41209844 heartbeat IPC: 1.45559 cumulative IPC: 1.45339 (Simulation time: 0 hr 39 min 6 sec) 
Heartbeat CPU 0 instructions: 79000000 cycles: 41902770 heartbeat IPC: 1.44315 cumulative IPC: 1.45304 (Simulation time: 0 hr 39 min 37 sec) 
Heartbeat CPU 0 instructions: 80000000 cycles: 42582547 heartbeat IPC: 1.47107 cumulative IPC: 1.45363 (Simulation time: 0 hr 40 min 12 sec) 
Heartbeat CPU 0 instructions: 81000003 cycles: 43278171 heartbeat IPC: 1.43756 cumulative IPC: 1.45311 (Simulation time: 0 hr 40 min 42 sec) 
Heartbeat CPU 0 instructions: 82000000 cycles: 43962942 heartbeat IPC: 1.46034 cumulative IPC: 1.45333 (Simulation time: 0 hr 41 min 12 sec) 
Heartbeat CPU 0 instructions: 83000002 cycles: 44642801 heartbeat IPC: 1.4709 cumulative IPC: 1.45386 (Simulation time: 0 hr 41 min 41 sec) 
Heartbeat CPU 0 instructions: 84000000 cycles: 45335265 heartbeat IPC: 1.44412 cumulative IPC: 1.45357 (Simulation time: 0 hr 42 min 12 sec) 
Heartbeat CPU 0 instructions: 85000001 cycles: 46014605 heartbeat IPC: 1.47202 cumulative IPC: 1.45409 (Simulation time: 0 hr 42 min 41 sec) 
Heartbeat CPU 0 instructions: 86000001 cycles: 46708599 heartbeat IPC: 1.44093 cumulative IPC: 1.45372 (Simulation time: 0 hr 43 min 11 sec) 
Heartbeat CPU 0 instructions: 87000001 cycles: 47391939 heartbeat IPC: 1.4634 cumulative IPC: 1.45398 (Simulation time: 0 hr 43 min 44 sec) 
Heartbeat CPU 0 instructions: 88000000 cycles: 48083362 heartbeat IPC: 1.44629 cumulative IPC: 1.45378 (Simulation time: 0 hr 44 min 15 sec) 
Heartbeat CPU 0 instructions: 89000003 cycles: 48763667 heartbeat IPC: 1.46993 cumulative IPC: 1.45419 (Simulation time: 0 hr 44 min 50 sec) 
Heartbeat CPU 0 instructions: 90000001 cycles: 49457267 heartbeat IPC: 1.44175 cumulative IPC: 1.45387 (Simulation time: 0 hr 45 min 23 sec) 
Heartbeat CPU 0 instructions: 91000002 cycles: 50143247 heartbeat IPC: 1.45777 cumulative IPC: 1.45397 (Simulation time: 0 hr 46 min 4 sec) 
Heartbeat CPU 0 instructions: 92000000 cycles: 50839335 heartbeat IPC: 1.4366 cumulative IPC: 1.45355 (Simulation time: 0 hr 46 min 38 sec) 
Heartbeat CPU 0 instructions: 93000001 cycles: 51523510 heartbeat IPC: 1.46162 cumulative IPC: 1.45374 (Simulation time: 0 hr 47 min 11 sec) 
Heartbeat CPU 0 instructions: 94000003 cycles: 52219273 heartbeat IPC: 1.43727 cumulative IPC: 1.45336 (Simulation time: 0 hr 47 min 47 sec) 
Heartbeat CPU 0 instructions: 95000003 cycles: 52907689 heartbeat IPC: 1.45261 cumulative IPC: 1.45334 (Simulation time: 0 hr 48 min 23 sec) 
Heartbeat CPU 0 instructions: 96000000 cycles: 53596531 heartbeat IPC: 1.45171 cumulative IPC: 1.45331 (Simulation time: 0 hr 48 min 58 sec) 
Heartbeat CPU 0 instructions: 97000000 cycles: 54289305 heartbeat IPC: 1.44347 cumulative IPC: 1.45309 (Simulation time: 0 hr 49 min 33 sec) 
Heartbeat CPU 0 instructions: 98000001 cycles: 54968552 heartbeat IPC: 1.47222 cumulative IPC: 1.45349 (Simulation time: 0 hr 50 min 9 sec) 
Heartbeat CPU 0 instructions: 99000001 cycles: 55669494 heartbeat IPC: 1.42665 cumulative IPC: 1.45293 (Simulation time: 0 hr 50 min 46 sec) 
Heartbeat CPU 0 instructions: 100000000 cycles: 56366415 heartbeat IPC: 1.43488 cumulative IPC: 1.45257 (Simulation time: 0 hr 51 min 24 sec) 
Heartbeat CPU 0 instructions: 101000002 cycles: 57070740 heartbeat IPC: 1.4198 cumulative IPC: 1.45191 (Simulation time: 0 hr 52 min 2 sec) 
Heartbeat CPU 0 instructions: 102000003 cycles: 57761799 heartbeat IPC: 1.44706 cumulative IPC: 1.45181 (Simulation time: 0 hr 52 min 37 sec) 
Heartbeat CPU 0 instructions: 103000001 cycles: 58473667 heartbeat IPC: 1.40475 cumulative IPC: 1.4509 (Simulation time: 0 hr 53 min 11 sec) 
Heartbeat CPU 0 instructions: 104000000 cycles: 59166298 heartbeat IPC: 1.44377 cumulative IPC: 1.45076 (Simulation time: 0 hr 53 min 50 sec) 
Heartbeat CPU 0 instructions: 105000003 cycles: 59872905 heartbeat IPC: 1.41522 cumulative IPC: 1.4501 (Simulation time: 0 hr 54 min 23 sec) 
Heartbeat CPU 0 instructions: 106000002 cycles: 60562620 heartbeat IPC: 1.44987 cumulative IPC: 1.4501 (Simulation time: 0 hr 54 min 59 sec) 
Heartbeat CPU 0 instructions: 107000000 cycles: 61262422 heartbeat IPC: 1.42897 cumulative IPC: 1.44972 (Simulation time: 0 hr 55 min 32 sec) 
Heartbeat CPU 0 instructions: 108000000 cycles: 61947428 heartbeat IPC: 1.45984 cumulative IPC: 1.4499 (Simulation time: 0 hr 56 min 7 sec) 
Heartbeat CPU 0 instructions: 109000002 cycles: 62629633 heartbeat IPC: 1.46584 cumulative IPC: 1.45016 (Simulation time: 0 hr 56 min 39 sec) 
Heartbeat CPU 0 instructions: 110000000 cycles: 63322450 heartbeat IPC: 1.44338 cumulative IPC: 1.45005 (Simulation time: 0 hr 57 min 10 sec) 
Heartbeat CPU 0 instructions: 111000002 cycles: 64005430 heartbeat IPC: 1.46417 cumulative IPC: 1.45028 (Simulation time: 0 hr 57 min 40 sec) 
Heartbeat CPU 0 instructions: 112000000 cycles: 64697338 heartbeat IPC: 1.44528 cumulative IPC: 1.4502 (Simulation time: 0 hr 58 min 13 sec) 
Heartbeat CPU 0 instructions: 113000001 cycles: 65379524 heartbeat IPC: 1.46588 cumulative IPC: 1.45044 (Simulation time: 0 hr 58 min 47 sec) 
Heartbeat CPU 0 instructions: 114000000 cycles: 66080078 heartbeat IPC: 1.42744 cumulative IPC: 1.45008 (Simulation time: 0 hr 59 min 19 sec) 
Heartbeat CPU 0 instructions: 115000000 cycles: 66767304 heartbeat IPC: 1.45513 cumulative IPC: 1.45016 (Simulation time: 0 hr 59 min 49 sec) 
Heartbeat CPU 0 instructions: 116000000 cycles: 67459864 heartbeat IPC: 1.44392 cumulative IPC: 1.45006 (Simulation time: 1 hr 0 min 19 sec) 
Heartbeat CPU 0 instructions: 117000003 cycles: 68142352 heartbeat IPC: 1.46523 cumulative IPC: 1.45029 (Simulation time: 1 hr 0 min 48 sec) 
Heartbeat CPU 0 instructions: 118000001 cycles: 68839275 heartbeat IPC: 1.43488 cumulative IPC: 1.45006 (Simulation time: 1 hr 1 min 20 sec) 
Heartbeat CPU 0 instructions: 119000003 cycles: 69522118 heartbeat IPC: 1.46447 cumulative IPC: 1.45026 (Simulation time: 1 hr 1 min 52 sec) 
Heartbeat CPU 0 instructions: 120000000 cycles: 70214602 heartbeat IPC: 1.44407 cumulative IPC: 1.45017 (Simulation time: 1 hr 2 min 25 sec) 
Heartbeat CPU 0 instructions: 121000000 cycles: 70895659 heartbeat IPC: 1.46831 cumulative IPC: 1.45043 (Simulation time: 1 hr 2 min 58 sec) 
Heartbeat CPU 0 instructions: 122000001 cycles: 71583558 heartbeat IPC: 1.4537 cumulative IPC: 1.45047 (Simulation time: 1 hr 3 min 33 sec) 
Heartbeat CPU 0 instructions: 123000001 cycles: 72273009 heartbeat IPC: 1.45043 cumulative IPC: 1.45047 (Simulation time: 1 hr 4 min 8 sec) 
Heartbeat CPU 0 instructions: 124000000 cycles: 72950985 heartbeat IPC: 1.47498 cumulative IPC: 1.4508 (Simulation time: 1 hr 4 min 41 sec) 
Heartbeat CPU 0 instructions: 125000002 cycles: 73642329 heartbeat IPC: 1.44646 cumulative IPC: 1.45074 (Simulation time: 1 hr 5 min 15 sec) 
Heartbeat CPU 0 instructions: 126000001 cycles: 74323375 heartbeat IPC: 1.46833 cumulative IPC: 1.45097 (Simulation time: 1 hr 5 min 46 sec) 
Heartbeat CPU 0 instructions: 127000002 cycles: 75014274 heartbeat IPC: 1.44739 cumulative IPC: 1.45092 (Simulation time: 1 hr 6 min 22 sec) 
Heartbeat CPU 0 instructions: 128000000 cycles: 75693265 heartbeat IPC: 1.47277 cumulative IPC: 1.4512 (Simulation time: 1 hr 6 min 54 sec) 
Heartbeat CPU 0 instructions: 129000001 cycles: 76385599 heartbeat IPC: 1.44439 cumulative IPC: 1.45111 (Simulation time: 1 hr 7 min 28 sec) 
Heartbeat CPU 0 instructions: 130000002 cycles: 77065860 heartbeat IPC: 1.47003 cumulative IPC: 1.45134 (Simulation time: 1 hr 8 min 2 sec) 
Heartbeat CPU 0 instructions: 131000000 cycles: 77757314 heartbeat IPC: 1.44622 cumulative IPC: 1.45128 (Simulation time: 1 hr 8 min 33 sec) 
Heartbeat CPU 0 instructions: 132000000 cycles: 78437540 heartbeat IPC: 1.4701 cumulative IPC: 1.45151 (Simulation time: 1 hr 9 min 4 sec) 
Heartbeat CPU 0 instructions: 133000001 cycles: 79131515 heartbeat IPC: 1.44098 cumulative IPC: 1.45138 (Simulation time: 1 hr 9 min 35 sec) 
Heartbeat CPU 0 instructions: 134000000 cycles: 79812930 heartbeat IPC: 1.46753 cumulative IPC: 1.45157 (Simulation time: 1 hr 10 min 10 sec) 
Heartbeat CPU 0 instructions: 135000001 cycles: 80502668 heartbeat IPC: 1.44983 cumulative IPC: 1.45155 (Simulation time: 1 hr 10 min 46 sec) 
Heartbeat CPU 0 instructions: 136000000 cycles: 81186909 heartbeat IPC: 1.46147 cumulative IPC: 1.45166 (Simulation time: 1 hr 11 min 14 sec) 
Heartbeat CPU 0 instructions: 137000001 cycles: 81869097 heartbeat IPC: 1.46587 cumulative IPC: 1.45183 (Simulation time: 1 hr 11 min 49 sec) 
Heartbeat CPU 0 instructions: 138000002 cycles: 82564135 heartbeat IPC: 1.43877 cumulative IPC: 1.45168 (Simulation time: 1 hr 12 min 16 sec) 
Heartbeat CPU 0 instructions: 139000001 cycles: 83244613 heartbeat IPC: 1.46955 cumulative IPC: 1.45187 (Simulation time: 1 hr 12 min 49 sec) 
Heartbeat CPU 0 instructions: 140000000 cycles: 83942355 heartbeat IPC: 1.43319 cumulative IPC: 1.45166 (Simulation time: 1 hr 13 min 17 sec) 
Heartbeat CPU 0 instructions: 141000001 cycles: 84620421 heartbeat IPC: 1.47478 cumulative IPC: 1.45191 (Simulation time: 1 hr 13 min 48 sec) 
Heartbeat CPU 0 instructions: 142000001 cycles: 85315454 heartbeat IPC: 1.43878 cumulative IPC: 1.45177 (Simulation time: 1 hr 14 min 17 sec) 
Heartbeat CPU 0 instructions: 143000000 cycles: 85998508 heartbeat IPC: 1.46401 cumulative IPC: 1.4519 (Simulation time: 1 hr 14 min 49 sec) 
Heartbeat CPU 0 instructions: 144000000 cycles: 86691598 heartbeat IPC: 1.44281 cumulative IPC: 1.4518 (Simulation time: 1 hr 15 min 22 sec) 
Heartbeat CPU 0 instructions: 145000001 cycles: 87370688 heartbeat IPC: 1.47256 cumulative IPC: 1.45202 (Simulation time: 1 hr 15 min 51 sec) 
Heartbeat CPU 0 instructions: 146000003 cycles: 88067178 heartbeat IPC: 1.43577 cumulative IPC: 1.45185 (Simulation time: 1 hr 16 min 18 sec) 
Heartbeat CPU 0 instructions: 147000002 cycles: 88750114 heartbeat IPC: 1.46426 cumulative IPC: 1.45197 (Simulation time: 1 hr 16 min 46 sec) 
Heartbeat CPU 0 instructions: 148000000 cycles: 89442693 heartbeat IPC: 1.44388 cumulative IPC: 1.45189 (Simulation time: 1 hr 17 min 10 sec) 
Heartbeat CPU 0 instructions: 149000001 cycles: 90132163 heartbeat IPC: 1.45039 cumulative IPC: 1.45188 (Simulation time: 1 hr 17 min 30 sec) 
Heartbeat CPU 0 instructions: 150000001 cycles: 90815208 heartbeat IPC: 1.46403 cumulative IPC: 1.452 (Simulation time: 1 hr 17 min 50 sec) 
Finished CPU 0 instructions: 100000002 cycles: 68870658 cummulative IPC: 1.452 (Simulation time: 1 hr 17 min 50 sec) 

ChampSim completed all CPUs

Region of Interest Statistics

CPU 0 cummulative IPC: 1.452 instructions: 100000002 cycles: 68870658
LLC TOTAL     ACCESS:     824645  HIT:     150520  MISS:     674125
LLC LOAD      ACCESS:      16594  HIT:       7636  MISS:       8958
LLC RFO       ACCESS:     202236  HIT:       3706  MISS:     198530
LLC PREFETCH  ACCESS:     403130  HIT:     103237  MISS:     299893
LLC WRITEBACK ACCESS:     202685  HIT:      35941  MISS:     166744
OPTgen accesses: 5437
OPTgen hits: 1494
OPTgen hit rate: 27.4784


