
*** ChampSim Multicore Out-of-Order Simulator ***

Warmup Instructions: 50000000
Simulation Instructions: 100000000
Configuration: 2
Number of CPUs: 1
LLC sets: 2048
LLC ways: 16
Off-chip DRAM Channels: 1 Width: 64-bit Data Rate: 1600 MT/s

CPU 0 runs /datasets/cs240c-wi22-a00-public/data/Assignment2-gz/GemsFDTD_712B.trace.gz
CPU 0 L1D next line prefetcher
CPU 0 L2C IP-based stride prefetcher
Initialize Hawkeye state
Heartbeat CPU 0 instructions: 1000003 cycles: 634340 heartbeat IPC: 1.57645 cumulative IPC: 1.57645 (Simulation time: 0 hr 0 min 40 sec) 
Heartbeat CPU 0 instructions: 2000000 cycles: 1268289 heartbeat IPC: 1.57741 cumulative IPC: 1.57693 (Simulation time: 0 hr 1 min 18 sec) 
Heartbeat CPU 0 instructions: 3000000 cycles: 1902273 heartbeat IPC: 1.57733 cumulative IPC: 1.57706 (Simulation time: 0 hr 2 min 1 sec) 
Heartbeat CPU 0 instructions: 4000000 cycles: 2535976 heartbeat IPC: 1.57803 cumulative IPC: 1.5773 (Simulation time: 0 hr 2 min 39 sec) 
Heartbeat CPU 0 instructions: 5000003 cycles: 3170131 heartbeat IPC: 1.57691 cumulative IPC: 1.57722 (Simulation time: 0 hr 3 min 19 sec) 
Heartbeat CPU 0 instructions: 6000002 cycles: 3804028 heartbeat IPC: 1.57754 cumulative IPC: 1.57728 (Simulation time: 0 hr 3 min 57 sec) 
Heartbeat CPU 0 instructions: 7000001 cycles: 4438178 heartbeat IPC: 1.57691 cumulative IPC: 1.57722 (Simulation time: 0 hr 4 min 37 sec) 
Heartbeat CPU 0 instructions: 8000000 cycles: 5072006 heartbeat IPC: 1.57771 cumulative IPC: 1.57729 (Simulation time: 0 hr 5 min 15 sec) 
Heartbeat CPU 0 instructions: 9000001 cycles: 5706113 heartbeat IPC: 1.57702 cumulative IPC: 1.57726 (Simulation time: 0 hr 5 min 59 sec) 
Heartbeat CPU 0 instructions: 10000002 cycles: 6339882 heartbeat IPC: 1.57786 cumulative IPC: 1.57732 (Simulation time: 0 hr 6 min 43 sec) 
Heartbeat CPU 0 instructions: 11000002 cycles: 6973665 heartbeat IPC: 1.57783 cumulative IPC: 1.57736 (Simulation time: 0 hr 7 min 24 sec) 
Heartbeat CPU 0 instructions: 12000000 cycles: 7607627 heartbeat IPC: 1.57738 cumulative IPC: 1.57736 (Simulation time: 0 hr 8 min 3 sec) 
Heartbeat CPU 0 instructions: 13000000 cycles: 8241675 heartbeat IPC: 1.57717 cumulative IPC: 1.57735 (Simulation time: 0 hr 8 min 42 sec) 
Heartbeat CPU 0 instructions: 14000001 cycles: 8875819 heartbeat IPC: 1.57693 cumulative IPC: 1.57732 (Simulation time: 0 hr 9 min 24 sec) 
Heartbeat CPU 0 instructions: 15000001 cycles: 9509889 heartbeat IPC: 1.57711 cumulative IPC: 1.57731 (Simulation time: 0 hr 10 min 11 sec) 
Heartbeat CPU 0 instructions: 16000000 cycles: 10143689 heartbeat IPC: 1.57778 cumulative IPC: 1.57734 (Simulation time: 0 hr 11 min 4 sec) 
Heartbeat CPU 0 instructions: 17000000 cycles: 10777662 heartbeat IPC: 1.57735 cumulative IPC: 1.57734 (Simulation time: 0 hr 11 min 57 sec) 
Heartbeat CPU 0 instructions: 18000003 cycles: 11411516 heartbeat IPC: 1.57766 cumulative IPC: 1.57735 (Simulation time: 0 hr 12 min 59 sec) 
Heartbeat CPU 0 instructions: 19000000 cycles: 12045538 heartbeat IPC: 1.57723 cumulative IPC: 1.57735 (Simulation time: 0 hr 13 min 59 sec) 
Heartbeat CPU 0 instructions: 20000000 cycles: 12679582 heartbeat IPC: 1.57718 cumulative IPC: 1.57734 (Simulation time: 0 hr 15 min 8 sec) 
Heartbeat CPU 0 instructions: 21000002 cycles: 13313738 heartbeat IPC: 1.5769 cumulative IPC: 1.57732 (Simulation time: 0 hr 16 min 14 sec) 
Heartbeat CPU 0 instructions: 22000000 cycles: 13947561 heartbeat IPC: 1.57772 cumulative IPC: 1.57734 (Simulation time: 0 hr 17 min 20 sec) 
Heartbeat CPU 0 instructions: 23000002 cycles: 14581493 heartbeat IPC: 1.57746 cumulative IPC: 1.57734 (Simulation time: 0 hr 18 min 26 sec) 
Heartbeat CPU 0 instructions: 24000000 cycles: 15215397 heartbeat IPC: 1.57752 cumulative IPC: 1.57735 (Simulation time: 0 hr 19 min 33 sec) 
Heartbeat CPU 0 instructions: 25000000 cycles: 15849451 heartbeat IPC: 1.57715 cumulative IPC: 1.57734 (Simulation time: 0 hr 20 min 43 sec) 
Heartbeat CPU 0 instructions: 26000002 cycles: 16483541 heartbeat IPC: 1.57707 cumulative IPC: 1.57733 (Simulation time: 0 hr 21 min 50 sec) 
Heartbeat CPU 0 instructions: 27000002 cycles: 17117587 heartbeat IPC: 1.57717 cumulative IPC: 1.57733 (Simulation time: 0 hr 23 min 1 sec) 
Heartbeat CPU 0 instructions: 28000000 cycles: 17751480 heartbeat IPC: 1.57755 cumulative IPC: 1.57733 (Simulation time: 0 hr 24 min 5 sec) 
Heartbeat CPU 0 instructions: 29000001 cycles: 18385488 heartbeat IPC: 1.57727 cumulative IPC: 1.57733 (Simulation time: 0 hr 25 min 8 sec) 
Heartbeat CPU 0 instructions: 30000000 cycles: 19019308 heartbeat IPC: 1.57773 cumulative IPC: 1.57734 (Simulation time: 0 hr 26 min 15 sec) 
Heartbeat CPU 0 instructions: 31000001 cycles: 19653211 heartbeat IPC: 1.57753 cumulative IPC: 1.57735 (Simulation time: 0 hr 27 min 14 sec) 
Heartbeat CPU 0 instructions: 32000000 cycles: 20287222 heartbeat IPC: 1.57726 cumulative IPC: 1.57735 (Simulation time: 0 hr 28 min 5 sec) 
Heartbeat CPU 0 instructions: 33000003 cycles: 20921397 heartbeat IPC: 1.57686 cumulative IPC: 1.57733 (Simulation time: 0 hr 28 min 58 sec) 
Heartbeat CPU 0 instructions: 34000001 cycles: 21555312 heartbeat IPC: 1.5775 cumulative IPC: 1.57734 (Simulation time: 0 hr 30 min 3 sec) 
Heartbeat CPU 0 instructions: 35000002 cycles: 22189238 heartbeat IPC: 1.57747 cumulative IPC: 1.57734 (Simulation time: 0 hr 31 min 2 sec) 
Heartbeat CPU 0 instructions: 36000000 cycles: 22823001 heartbeat IPC: 1.57787 cumulative IPC: 1.57736 (Simulation time: 0 hr 32 min 5 sec) 
Heartbeat CPU 0 instructions: 37000000 cycles: 23456982 heartbeat IPC: 1.57733 cumulative IPC: 1.57736 (Simulation time: 0 hr 33 min 9 sec) 
Heartbeat CPU 0 instructions: 38000003 cycles: 24090886 heartbeat IPC: 1.57753 cumulative IPC: 1.57736 (Simulation time: 0 hr 34 min 17 sec) 
Heartbeat CPU 0 instructions: 39000001 cycles: 24725066 heartbeat IPC: 1.57684 cumulative IPC: 1.57735 (Simulation time: 0 hr 35 min 24 sec) 
Heartbeat CPU 0 instructions: 40000000 cycles: 25359108 heartbeat IPC: 1.57718 cumulative IPC: 1.57734 (Simulation time: 0 hr 36 min 29 sec) 
Heartbeat CPU 0 instructions: 41000003 cycles: 25993245 heartbeat IPC: 1.57695 cumulative IPC: 1.57733 (Simulation time: 0 hr 37 min 23 sec) 
Heartbeat CPU 0 instructions: 42000000 cycles: 26627011 heartbeat IPC: 1.57786 cumulative IPC: 1.57735 (Simulation time: 0 hr 38 min 27 sec) 
Heartbeat CPU 0 instructions: 43000002 cycles: 27260861 heartbeat IPC: 1.57766 cumulative IPC: 1.57735 (Simulation time: 0 hr 39 min 17 sec) 
Heartbeat CPU 0 instructions: 44000000 cycles: 27894797 heartbeat IPC: 1.57744 cumulative IPC: 1.57736 (Simulation time: 0 hr 40 min 7 sec) 
Heartbeat CPU 0 instructions: 45000003 cycles: 28528944 heartbeat IPC: 1.57693 cumulative IPC: 1.57735 (Simulation time: 0 hr 40 min 52 sec) 
Heartbeat CPU 0 instructions: 46000002 cycles: 29162908 heartbeat IPC: 1.57738 cumulative IPC: 1.57735 (Simulation time: 0 hr 41 min 29 sec) 
Heartbeat CPU 0 instructions: 47000001 cycles: 29796982 heartbeat IPC: 1.5771 cumulative IPC: 1.57734 (Simulation time: 0 hr 42 min 5 sec) 
Heartbeat CPU 0 instructions: 48000000 cycles: 30430652 heartbeat IPC: 1.57811 cumulative IPC: 1.57736 (Simulation time: 0 hr 42 min 42 sec) 
Heartbeat CPU 0 instructions: 49000001 cycles: 31064695 heartbeat IPC: 1.57718 cumulative IPC: 1.57735 (Simulation time: 0 hr 43 min 23 sec) 
Heartbeat CPU 0 instructions: 50000000 cycles: 31698525 heartbeat IPC: 1.57771 cumulative IPC: 1.57736 (Simulation time: 0 hr 44 min 3 sec) 

Warmup complete CPU 0 instructions: 50000004 cycles: 31698526 (Simulation time: 0 hr 44 min 3 sec) 

Heartbeat CPU 0 instructions: 51000002 cycles: 33321939 heartbeat IPC: 0.615987 cumulative IPC: 0.615985 (Simulation time: 0 hr 44 min 56 sec) 
Heartbeat CPU 0 instructions: 52000000 cycles: 34932137 heartbeat IPC: 0.62104 cumulative IPC: 0.618502 (Simulation time: 0 hr 45 min 52 sec) 
Heartbeat CPU 0 instructions: 53000000 cycles: 36571341 heartbeat IPC: 0.610052 cumulative IPC: 0.61566 (Simulation time: 0 hr 46 min 43 sec) 
Heartbeat CPU 0 instructions: 54000000 cycles: 38157231 heartbeat IPC: 0.630561 cumulative IPC: 0.619319 (Simulation time: 0 hr 47 min 32 sec) 
Heartbeat CPU 0 instructions: 55000003 cycles: 39746064 heartbeat IPC: 0.629395 cumulative IPC: 0.621308 (Simulation time: 0 hr 48 min 24 sec) 
Heartbeat CPU 0 instructions: 56000000 cycles: 41363303 heartbeat IPC: 0.618336 cumulative IPC: 0.620811 (Simulation time: 0 hr 49 min 14 sec) 
Heartbeat CPU 0 instructions: 57000000 cycles: 43014132 heartbeat IPC: 0.605756 cumulative IPC: 0.618614 (Simulation time: 0 hr 50 min 7 sec) 
Heartbeat CPU 0 instructions: 58000001 cycles: 44626667 heartbeat IPC: 0.620142 cumulative IPC: 0.618805 (Simulation time: 0 hr 50 min 57 sec) 
Heartbeat CPU 0 instructions: 59000001 cycles: 46236701 heartbeat IPC: 0.621105 cumulative IPC: 0.61906 (Simulation time: 0 hr 51 min 49 sec) 
Heartbeat CPU 0 instructions: 60000000 cycles: 47857552 heartbeat IPC: 0.616959 cumulative IPC: 0.618849 (Simulation time: 0 hr 52 min 37 sec) 
Heartbeat CPU 0 instructions: 61000001 cycles: 49435842 heartbeat IPC: 0.633598 cumulative IPC: 0.620161 (Simulation time: 0 hr 53 min 25 sec) 
Heartbeat CPU 0 instructions: 62000000 cycles: 51028932 heartbeat IPC: 0.62771 cumulative IPC: 0.620783 (Simulation time: 0 hr 54 min 11 sec) 
Heartbeat CPU 0 instructions: 63000003 cycles: 52644215 heartbeat IPC: 0.619088 cumulative IPC: 0.620653 (Simulation time: 0 hr 54 min 59 sec) 
Heartbeat CPU 0 instructions: 64000000 cycles: 54262738 heartbeat IPC: 0.617845 cumulative IPC: 0.620451 (Simulation time: 0 hr 55 min 44 sec) 
Heartbeat CPU 0 instructions: 65000003 cycles: 55890309 heartbeat IPC: 0.614414 cumulative IPC: 0.620045 (Simulation time: 0 hr 56 min 30 sec) 
Heartbeat CPU 0 instructions: 66000000 cycles: 57478436 heartbeat IPC: 0.629671 cumulative IPC: 0.620638 (Simulation time: 0 hr 57 min 13 sec) 
Heartbeat CPU 0 instructions: 67000000 cycles: 59083561 heartbeat IPC: 0.623004 cumulative IPC: 0.620777 (Simulation time: 0 hr 57 min 57 sec) 
Heartbeat CPU 0 instructions: 68000000 cycles: 60685066 heartbeat IPC: 0.624413 cumulative IPC: 0.620978 (Simulation time: 0 hr 58 min 40 sec) 
Heartbeat CPU 0 instructions: 69000001 cycles: 62264995 heartbeat IPC: 0.63294 cumulative IPC: 0.621596 (Simulation time: 0 hr 59 min 25 sec) 
Heartbeat CPU 0 instructions: 70000002 cycles: 63896087 heartbeat IPC: 0.613087 cumulative IPC: 0.621165 (Simulation time: 1 hr 0 min 13 sec) 
Heartbeat CPU 0 instructions: 71000002 cycles: 65558208 heartbeat IPC: 0.601641 cumulative IPC: 0.620207 (Simulation time: 1 hr 0 min 55 sec) 
Heartbeat CPU 0 instructions: 72000000 cycles: 67323259 heartbeat IPC: 0.566555 cumulative IPC: 0.617548 (Simulation time: 1 hr 1 min 46 sec) 
Heartbeat CPU 0 instructions: 73000000 cycles: 68998455 heartbeat IPC: 0.596945 cumulative IPC: 0.616623 (Simulation time: 1 hr 2 min 41 sec) 
Heartbeat CPU 0 instructions: 74000001 cycles: 70686047 heartbeat IPC: 0.592561 cumulative IPC: 0.615582 (Simulation time: 1 hr 3 min 33 sec) 
Heartbeat CPU 0 instructions: 75000003 cycles: 72350248 heartbeat IPC: 0.60089 cumulative IPC: 0.61498 (Simulation time: 1 hr 4 min 23 sec) 
Heartbeat CPU 0 instructions: 76000000 cycles: 74016453 heartbeat IPC: 0.600164 cumulative IPC: 0.614397 (Simulation time: 1 hr 5 min 16 sec) 
Heartbeat CPU 0 instructions: 77000000 cycles: 75698541 heartbeat IPC: 0.594499 cumulative IPC: 0.613636 (Simulation time: 1 hr 6 min 7 sec) 
Heartbeat CPU 0 instructions: 78000001 cycles: 77367205 heartbeat IPC: 0.599282 cumulative IPC: 0.613112 (Simulation time: 1 hr 7 min 3 sec) 
Heartbeat CPU 0 instructions: 79000003 cycles: 79041820 heartbeat IPC: 0.597153 cumulative IPC: 0.612547 (Simulation time: 1 hr 7 min 53 sec) 
Heartbeat CPU 0 instructions: 80000000 cycles: 80729768 heartbeat IPC: 0.592434 cumulative IPC: 0.611855 (Simulation time: 1 hr 8 min 42 sec) 
Heartbeat CPU 0 instructions: 81000001 cycles: 82421394 heartbeat IPC: 0.591148 cumulative IPC: 0.611164 (Simulation time: 1 hr 9 min 29 sec) 
Heartbeat CPU 0 instructions: 82000000 cycles: 84113093 heartbeat IPC: 0.591121 cumulative IPC: 0.610517 (Simulation time: 1 hr 10 min 14 sec) 
Heartbeat CPU 0 instructions: 83000001 cycles: 85796599 heartbeat IPC: 0.593999 cumulative IPC: 0.610003 (Simulation time: 1 hr 11 min 5 sec) 
Heartbeat CPU 0 instructions: 84000000 cycles: 87483760 heartbeat IPC: 0.592711 cumulative IPC: 0.60948 (Simulation time: 1 hr 11 min 59 sec) 
Heartbeat CPU 0 instructions: 85000000 cycles: 89170022 heartbeat IPC: 0.593028 cumulative IPC: 0.608997 (Simulation time: 1 hr 12 min 44 sec) 
Heartbeat CPU 0 instructions: 86000000 cycles: 90851428 heartbeat IPC: 0.59474 cumulative IPC: 0.608592 (Simulation time: 1 hr 13 min 25 sec) 
Heartbeat CPU 0 instructions: 87000002 cycles: 92546301 heartbeat IPC: 0.590016 cumulative IPC: 0.608075 (Simulation time: 1 hr 14 min 3 sec) 
Heartbeat CPU 0 instructions: 88000000 cycles: 94226894 heartbeat IPC: 0.595027 cumulative IPC: 0.607724 (Simulation time: 1 hr 14 min 43 sec) 
Heartbeat CPU 0 instructions: 89000003 cycles: 95919038 heartbeat IPC: 0.590968 cumulative IPC: 0.607283 (Simulation time: 1 hr 15 min 29 sec) 
Heartbeat CPU 0 instructions: 90000000 cycles: 97602185 heartbeat IPC: 0.594123 cumulative IPC: 0.606947 (Simulation time: 1 hr 16 min 19 sec) 
Heartbeat CPU 0 instructions: 91000001 cycles: 99281985 heartbeat IPC: 0.59531 cumulative IPC: 0.606657 (Simulation time: 1 hr 16 min 59 sec) 
Heartbeat CPU 0 instructions: 92000000 cycles: 100972863 heartbeat IPC: 0.591408 cumulative IPC: 0.606285 (Simulation time: 1 hr 17 min 33 sec) 
Heartbeat CPU 0 instructions: 93000003 cycles: 102653458 heartbeat IPC: 0.595029 cumulative IPC: 0.606018 (Simulation time: 1 hr 18 min 6 sec) 
Heartbeat CPU 0 instructions: 94000002 cycles: 104328587 heartbeat IPC: 0.596968 cumulative IPC: 0.60581 (Simulation time: 1 hr 18 min 38 sec) 
Heartbeat CPU 0 instructions: 95000000 cycles: 106017690 heartbeat IPC: 0.592029 cumulative IPC: 0.605497 (Simulation time: 1 hr 19 min 9 sec) 
Heartbeat CPU 0 instructions: 96000000 cycles: 107696643 heartbeat IPC: 0.595609 cumulative IPC: 0.605278 (Simulation time: 1 hr 19 min 40 sec) 
Heartbeat CPU 0 instructions: 97000003 cycles: 109376316 heartbeat IPC: 0.595356 cumulative IPC: 0.605064 (Simulation time: 1 hr 20 min 14 sec) 
Heartbeat CPU 0 instructions: 98000000 cycles: 111056649 heartbeat IPC: 0.595118 cumulative IPC: 0.604853 (Simulation time: 1 hr 20 min 48 sec) 
Heartbeat CPU 0 instructions: 99000001 cycles: 112743408 heartbeat IPC: 0.592853 cumulative IPC: 0.604603 (Simulation time: 1 hr 21 min 16 sec) 
Heartbeat CPU 0 instructions: 100000000 cycles: 114433035 heartbeat IPC: 0.591846 cumulative IPC: 0.604343 (Simulation time: 1 hr 21 min 42 sec) 
Heartbeat CPU 0 instructions: 101000001 cycles: 116113435 heartbeat IPC: 0.595097 cumulative IPC: 0.604159 (Simulation time: 1 hr 22 min 9 sec) 
Heartbeat CPU 0 instructions: 102000002 cycles: 117789756 heartbeat IPC: 0.596545 cumulative IPC: 0.60401 (Simulation time: 1 hr 22 min 34 sec) 
Heartbeat CPU 0 instructions: 103000000 cycles: 119466721 heartbeat IPC: 0.596314 cumulative IPC: 0.603863 (Simulation time: 1 hr 22 min 59 sec) 
Heartbeat CPU 0 instructions: 104000000 cycles: 121147743 heartbeat IPC: 0.594876 cumulative IPC: 0.603694 (Simulation time: 1 hr 23 min 25 sec) 
Heartbeat CPU 0 instructions: 105000000 cycles: 122830460 heartbeat IPC: 0.594277 cumulative IPC: 0.603521 (Simulation time: 1 hr 23 min 51 sec) 
Heartbeat CPU 0 instructions: 106000002 cycles: 124507202 heartbeat IPC: 0.596396 cumulative IPC: 0.603392 (Simulation time: 1 hr 24 min 14 sec) 
Heartbeat CPU 0 instructions: 107000000 cycles: 126201615 heartbeat IPC: 0.590174 cumulative IPC: 0.603155 (Simulation time: 1 hr 24 min 38 sec) 
Heartbeat CPU 0 instructions: 108000000 cycles: 127883325 heartbeat IPC: 0.594633 cumulative IPC: 0.603006 (Simulation time: 1 hr 25 min 2 sec) 
Heartbeat CPU 0 instructions: 109000003 cycles: 129572506 heartbeat IPC: 0.592005 cumulative IPC: 0.602816 (Simulation time: 1 hr 25 min 25 sec) 
Heartbeat CPU 0 instructions: 110000001 cycles: 131262300 heartbeat IPC: 0.591787 cumulative IPC: 0.602629 (Simulation time: 1 hr 25 min 47 sec) 
Heartbeat CPU 0 instructions: 111000001 cycles: 132940847 heartbeat IPC: 0.595753 cumulative IPC: 0.602515 (Simulation time: 1 hr 26 min 8 sec) 
Heartbeat CPU 0 instructions: 112000000 cycles: 134617915 heartbeat IPC: 0.596278 cumulative IPC: 0.602413 (Simulation time: 1 hr 26 min 28 sec) 
Heartbeat CPU 0 instructions: 113000002 cycles: 136296684 heartbeat IPC: 0.595676 cumulative IPC: 0.602305 (Simulation time: 1 hr 26 min 47 sec) 
Heartbeat CPU 0 instructions: 114000002 cycles: 137978226 heartbeat IPC: 0.594692 cumulative IPC: 0.602185 (Simulation time: 1 hr 27 min 5 sec) 
Heartbeat CPU 0 instructions: 115000002 cycles: 139661223 heartbeat IPC: 0.594178 cumulative IPC: 0.60206 (Simulation time: 1 hr 27 min 24 sec) 
Heartbeat CPU 0 instructions: 116000000 cycles: 141342848 heartbeat IPC: 0.594662 cumulative IPC: 0.601946 (Simulation time: 1 hr 27 min 42 sec) 
Heartbeat CPU 0 instructions: 117000001 cycles: 143022164 heartbeat IPC: 0.595481 cumulative IPC: 0.601849 (Simulation time: 1 hr 28 min 1 sec) 
Heartbeat CPU 0 instructions: 118000002 cycles: 144708872 heartbeat IPC: 0.592871 cumulative IPC: 0.601715 (Simulation time: 1 hr 28 min 18 sec) 
Heartbeat CPU 0 instructions: 119000001 cycles: 146397413 heartbeat IPC: 0.592227 cumulative IPC: 0.601575 (Simulation time: 1 hr 28 min 37 sec) 
Heartbeat CPU 0 instructions: 120000000 cycles: 148703264 heartbeat IPC: 0.433679 cumulative IPC: 0.598266 (Simulation time: 1 hr 28 min 57 sec) 
Heartbeat CPU 0 instructions: 121000000 cycles: 157559518 heartbeat IPC: 0.112915 cumulative IPC: 0.564114 (Simulation time: 1 hr 29 min 27 sec) 
Heartbeat CPU 0 instructions: 122000002 cycles: 166345103 heartbeat IPC: 0.113823 cumulative IPC: 0.534733 (Simulation time: 1 hr 29 min 54 sec) 
Heartbeat CPU 0 instructions: 123000002 cycles: 175083479 heartbeat IPC: 0.114438 cumulative IPC: 0.509119 (Simulation time: 1 hr 30 min 16 sec) 
Heartbeat CPU 0 instructions: 124000000 cycles: 183904772 heartbeat IPC: 0.113362 cumulative IPC: 0.486182 (Simulation time: 1 hr 30 min 32 sec) 
Heartbeat CPU 0 instructions: 125000001 cycles: 186542076 heartbeat IPC: 0.379175 cumulative IPC: 0.48436 (Simulation time: 1 hr 30 min 40 sec) 
Heartbeat CPU 0 instructions: 126000003 cycles: 188134985 heartbeat IPC: 0.627784 cumulative IPC: 0.48582 (Simulation time: 1 hr 30 min 47 sec) 
Heartbeat CPU 0 instructions: 127000000 cycles: 189715222 heartbeat IPC: 0.632815 cumulative IPC: 0.48729 (Simulation time: 1 hr 30 min 55 sec) 
Heartbeat CPU 0 instructions: 128000000 cycles: 191307101 heartbeat IPC: 0.628188 cumulative IPC: 0.488696 (Simulation time: 1 hr 31 min 2 sec) 
Heartbeat CPU 0 instructions: 129000001 cycles: 192898515 heartbeat IPC: 0.628373 cumulative IPC: 0.490074 (Simulation time: 1 hr 31 min 9 sec) 
Heartbeat CPU 0 instructions: 130000003 cycles: 194486730 heartbeat IPC: 0.629639 cumulative IPC: 0.491436 (Simulation time: 1 hr 31 min 16 sec) 
Heartbeat CPU 0 instructions: 131000001 cycles: 196091362 heartbeat IPC: 0.623195 cumulative IPC: 0.492722 (Simulation time: 1 hr 31 min 21 sec) 
Heartbeat CPU 0 instructions: 132000000 cycles: 197694011 heartbeat IPC: 0.623966 cumulative IPC: 0.493989 (Simulation time: 1 hr 31 min 26 sec) 
Heartbeat CPU 0 instructions: 133000002 cycles: 199291686 heartbeat IPC: 0.625911 cumulative IPC: 0.495247 (Simulation time: 1 hr 31 min 30 sec) 
Heartbeat CPU 0 instructions: 134000000 cycles: 200899179 heartbeat IPC: 0.622085 cumulative IPC: 0.496452 (Simulation time: 1 hr 31 min 36 sec) 
Heartbeat CPU 0 instructions: 135000003 cycles: 202504274 heartbeat IPC: 0.623018 cumulative IPC: 0.497641 (Simulation time: 1 hr 31 min 42 sec) 
Heartbeat CPU 0 instructions: 136000000 cycles: 204119394 heartbeat IPC: 0.619147 cumulative IPC: 0.49878 (Simulation time: 1 hr 31 min 48 sec) 
Heartbeat CPU 0 instructions: 137000003 cycles: 205719370 heartbeat IPC: 0.625011 cumulative IPC: 0.49994 (Simulation time: 1 hr 31 min 53 sec) 
Heartbeat CPU 0 instructions: 138000000 cycles: 207323703 heartbeat IPC: 0.62331 cumulative IPC: 0.501067 (Simulation time: 1 hr 31 min 58 sec) 
Heartbeat CPU 0 instructions: 139000002 cycles: 208928980 heartbeat IPC: 0.622947 cumulative IPC: 0.502171 (Simulation time: 1 hr 32 min 4 sec) 
Heartbeat CPU 0 instructions: 140000000 cycles: 210527544 heartbeat IPC: 0.62556 cumulative IPC: 0.503274 (Simulation time: 1 hr 32 min 9 sec) 
Heartbeat CPU 0 instructions: 141000000 cycles: 212143701 heartbeat IPC: 0.618752 cumulative IPC: 0.504308 (Simulation time: 1 hr 32 min 15 sec) 
Heartbeat CPU 0 instructions: 142000001 cycles: 213745735 heartbeat IPC: 0.624207 cumulative IPC: 0.505363 (Simulation time: 1 hr 32 min 20 sec) 
Heartbeat CPU 0 instructions: 143000001 cycles: 215348330 heartbeat IPC: 0.623988 cumulative IPC: 0.506399 (Simulation time: 1 hr 32 min 26 sec) 
Heartbeat CPU 0 instructions: 144000000 cycles: 216949798 heartbeat IPC: 0.624426 cumulative IPC: 0.507419 (Simulation time: 1 hr 32 min 31 sec) 
Heartbeat CPU 0 instructions: 145000000 cycles: 218539100 heartbeat IPC: 0.629207 cumulative IPC: 0.508455 (Simulation time: 1 hr 32 min 36 sec) 
Heartbeat CPU 0 instructions: 146000002 cycles: 220139188 heartbeat IPC: 0.624967 cumulative IPC: 0.509444 (Simulation time: 1 hr 32 min 42 sec) 
Heartbeat CPU 0 instructions: 147000002 cycles: 221748638 heartbeat IPC: 0.62133 cumulative IPC: 0.510392 (Simulation time: 1 hr 32 min 47 sec) 
Heartbeat CPU 0 instructions: 148000000 cycles: 223346049 heartbeat IPC: 0.626012 cumulative IPC: 0.511355 (Simulation time: 1 hr 32 min 53 sec) 
Heartbeat CPU 0 instructions: 149000000 cycles: 224957369 heartbeat IPC: 0.620609 cumulative IPC: 0.512266 (Simulation time: 1 hr 32 min 58 sec) 
Heartbeat CPU 0 instructions: 150000002 cycles: 226563357 heartbeat IPC: 0.622671 cumulative IPC: 0.513176 (Simulation time: 1 hr 33 min 4 sec) 
Finished CPU 0 instructions: 100000002 cycles: 194864832 cummulative IPC: 0.513176 (Simulation time: 1 hr 33 min 4 sec) 

ChampSim completed all CPUs

Region of Interest Statistics

CPU 0 cummulative IPC: 0.513176 instructions: 100000002 cycles: 194864832
LLC TOTAL     ACCESS:    5929480  HIT:    1120570  MISS:    4808910
LLC LOAD      ACCESS:    1303481  HIT:     213203  MISS:    1090278
LLC RFO       ACCESS:         26  HIT:          1  MISS:         25
LLC PREFETCH  ACCESS:    3083990  HIT:     401871  MISS:    2682119
LLC WRITEBACK ACCESS:    1541983  HIT:     505495  MISS:    1036488
OPTgen accesses: 22682
OPTgen hits: 7451
OPTgen hit rate: 32.8498


