
*** ChampSim Multicore Out-of-Order Simulator ***

Warmup Instructions: 50000000
Simulation Instructions: 100000000
Configuration: 2
Number of CPUs: 1
LLC sets: 2048
LLC ways: 16
Off-chip DRAM Channels: 1 Width: 64-bit Data Rate: 1600 MT/s

CPU 0 runs /datasets/cs240c-wi22-a00-public/data/Assignment2-gz/zeusmp_300B.trace.gz
CPU 0 L1D next line prefetcher
CPU 0 L2C IP-based stride prefetcher
Initialize Hawkeye state
Heartbeat CPU 0 instructions: 1000003 cycles: 509580 heartbeat IPC: 1.96241 cumulative IPC: 1.96241 (Simulation time: 0 hr 0 min 29 sec) 
Heartbeat CPU 0 instructions: 2000003 cycles: 1062148 heartbeat IPC: 1.80973 cumulative IPC: 1.88298 (Simulation time: 0 hr 1 min 6 sec) 
Heartbeat CPU 0 instructions: 3000002 cycles: 1606419 heartbeat IPC: 1.83732 cumulative IPC: 1.86751 (Simulation time: 0 hr 1 min 33 sec) 
Heartbeat CPU 0 instructions: 4000000 cycles: 2093208 heartbeat IPC: 2.05427 cumulative IPC: 1.91094 (Simulation time: 0 hr 2 min 2 sec) 
Heartbeat CPU 0 instructions: 5000001 cycles: 2575890 heartbeat IPC: 2.07176 cumulative IPC: 1.94108 (Simulation time: 0 hr 2 min 33 sec) 
Heartbeat CPU 0 instructions: 6000000 cycles: 3062578 heartbeat IPC: 2.0547 cumulative IPC: 1.95913 (Simulation time: 0 hr 3 min 3 sec) 
Heartbeat CPU 0 instructions: 7000001 cycles: 3590722 heartbeat IPC: 1.89342 cumulative IPC: 1.94947 (Simulation time: 0 hr 3 min 32 sec) 
Heartbeat CPU 0 instructions: 8000000 cycles: 4144748 heartbeat IPC: 1.80497 cumulative IPC: 1.93015 (Simulation time: 0 hr 4 min 4 sec) 
Heartbeat CPU 0 instructions: 9000000 cycles: 4672634 heartbeat IPC: 1.89435 cumulative IPC: 1.92611 (Simulation time: 0 hr 4 min 35 sec) 
Heartbeat CPU 0 instructions: 10000002 cycles: 5158923 heartbeat IPC: 2.05639 cumulative IPC: 1.93839 (Simulation time: 0 hr 5 min 4 sec) 
Heartbeat CPU 0 instructions: 11000003 cycles: 5643379 heartbeat IPC: 2.06417 cumulative IPC: 1.94919 (Simulation time: 0 hr 5 min 34 sec) 
Heartbeat CPU 0 instructions: 12000000 cycles: 6129754 heartbeat IPC: 2.05602 cumulative IPC: 1.95766 (Simulation time: 0 hr 6 min 5 sec) 
Heartbeat CPU 0 instructions: 13000001 cycles: 6673156 heartbeat IPC: 1.84026 cumulative IPC: 1.9481 (Simulation time: 0 hr 6 min 34 sec) 
Heartbeat CPU 0 instructions: 14000002 cycles: 7228998 heartbeat IPC: 1.79907 cumulative IPC: 1.93664 (Simulation time: 0 hr 7 min 3 sec) 
Heartbeat CPU 0 instructions: 15000002 cycles: 7738479 heartbeat IPC: 1.96278 cumulative IPC: 1.93837 (Simulation time: 0 hr 7 min 35 sec) 
Heartbeat CPU 0 instructions: 16000000 cycles: 8224652 heartbeat IPC: 2.05688 cumulative IPC: 1.94537 (Simulation time: 0 hr 8 min 9 sec) 
Heartbeat CPU 0 instructions: 17000003 cycles: 8709904 heartbeat IPC: 2.06079 cumulative IPC: 1.9518 (Simulation time: 0 hr 8 min 39 sec) 
Heartbeat CPU 0 instructions: 18000003 cycles: 9197018 heartbeat IPC: 2.05291 cumulative IPC: 1.95716 (Simulation time: 0 hr 9 min 12 sec) 
Heartbeat CPU 0 instructions: 19000003 cycles: 9756258 heartbeat IPC: 1.78814 cumulative IPC: 1.94747 (Simulation time: 0 hr 9 min 44 sec) 
Heartbeat CPU 0 instructions: 20000000 cycles: 10314651 heartbeat IPC: 1.79085 cumulative IPC: 1.93899 (Simulation time: 0 hr 10 min 13 sec) 
Heartbeat CPU 0 instructions: 21000003 cycles: 10806449 heartbeat IPC: 2.03336 cumulative IPC: 1.94328 (Simulation time: 0 hr 10 min 47 sec) 
Heartbeat CPU 0 instructions: 22000002 cycles: 11292587 heartbeat IPC: 2.05703 cumulative IPC: 1.94818 (Simulation time: 0 hr 11 min 17 sec) 
Heartbeat CPU 0 instructions: 23000001 cycles: 11778514 heartbeat IPC: 2.05792 cumulative IPC: 1.95271 (Simulation time: 0 hr 11 min 44 sec) 
Heartbeat CPU 0 instructions: 24000000 cycles: 12282988 heartbeat IPC: 1.98226 cumulative IPC: 1.95392 (Simulation time: 0 hr 12 min 12 sec) 
Heartbeat CPU 0 instructions: 25000000 cycles: 12841465 heartbeat IPC: 1.79058 cumulative IPC: 1.94682 (Simulation time: 0 hr 12 min 39 sec) 
Heartbeat CPU 0 instructions: 26000000 cycles: 13389590 heartbeat IPC: 1.8244 cumulative IPC: 1.94181 (Simulation time: 0 hr 13 min 11 sec) 
Heartbeat CPU 0 instructions: 27000002 cycles: 13876423 heartbeat IPC: 2.0541 cumulative IPC: 1.94575 (Simulation time: 0 hr 13 min 42 sec) 
Heartbeat CPU 0 instructions: 28000000 cycles: 14362453 heartbeat IPC: 2.05748 cumulative IPC: 1.94953 (Simulation time: 0 hr 14 min 11 sec) 
Heartbeat CPU 0 instructions: 29000003 cycles: 14849317 heartbeat IPC: 2.05397 cumulative IPC: 1.95295 (Simulation time: 0 hr 14 min 43 sec) 
Heartbeat CPU 0 instructions: 30000001 cycles: 15371486 heartbeat IPC: 1.91508 cumulative IPC: 1.95167 (Simulation time: 0 hr 15 min 9 sec) 
Heartbeat CPU 0 instructions: 31000000 cycles: 15930986 heartbeat IPC: 1.78731 cumulative IPC: 1.94589 (Simulation time: 0 hr 15 min 36 sec) 
Heartbeat CPU 0 instructions: 32000000 cycles: 16464224 heartbeat IPC: 1.87534 cumulative IPC: 1.94361 (Simulation time: 0 hr 16 min 4 sec) 
Heartbeat CPU 0 instructions: 33000000 cycles: 16950395 heartbeat IPC: 2.05689 cumulative IPC: 1.94686 (Simulation time: 0 hr 16 min 34 sec) 
Heartbeat CPU 0 instructions: 34000000 cycles: 17436971 heartbeat IPC: 2.05518 cumulative IPC: 1.94988 (Simulation time: 0 hr 17 min 6 sec) 
Heartbeat CPU 0 instructions: 35000000 cycles: 17923453 heartbeat IPC: 2.05557 cumulative IPC: 1.95275 (Simulation time: 0 hr 17 min 37 sec) 
Heartbeat CPU 0 instructions: 36000000 cycles: 18462464 heartbeat IPC: 1.85525 cumulative IPC: 1.9499 (Simulation time: 0 hr 18 min 3 sec) 
Heartbeat CPU 0 instructions: 37000003 cycles: 19022909 heartbeat IPC: 1.7843 cumulative IPC: 1.94502 (Simulation time: 0 hr 18 min 30 sec) 
Heartbeat CPU 0 instructions: 38000000 cycles: 19539016 heartbeat IPC: 1.93758 cumulative IPC: 1.94483 (Simulation time: 0 hr 18 min 59 sec) 
Heartbeat CPU 0 instructions: 39000003 cycles: 20025891 heartbeat IPC: 2.05392 cumulative IPC: 1.94748 (Simulation time: 0 hr 19 min 25 sec) 
Heartbeat CPU 0 instructions: 40000000 cycles: 20512486 heartbeat IPC: 2.05509 cumulative IPC: 1.95003 (Simulation time: 0 hr 19 min 51 sec) 
Heartbeat CPU 0 instructions: 41000000 cycles: 20998730 heartbeat IPC: 2.05658 cumulative IPC: 1.9525 (Simulation time: 0 hr 20 min 19 sec) 
Heartbeat CPU 0 instructions: 42000002 cycles: 21555818 heartbeat IPC: 1.79505 cumulative IPC: 1.94843 (Simulation time: 0 hr 20 min 49 sec) 
Heartbeat CPU 0 instructions: 43000002 cycles: 22116846 heartbeat IPC: 1.78244 cumulative IPC: 1.94422 (Simulation time: 0 hr 21 min 19 sec) 
Heartbeat CPU 0 instructions: 44000000 cycles: 22615131 heartbeat IPC: 2.00688 cumulative IPC: 1.9456 (Simulation time: 0 hr 21 min 48 sec) 
Heartbeat CPU 0 instructions: 45000003 cycles: 23101737 heartbeat IPC: 2.05506 cumulative IPC: 1.94791 (Simulation time: 0 hr 22 min 18 sec) 
Heartbeat CPU 0 instructions: 46000001 cycles: 23588149 heartbeat IPC: 2.05587 cumulative IPC: 1.95013 (Simulation time: 0 hr 22 min 48 sec) 
Heartbeat CPU 0 instructions: 47000000 cycles: 24086525 heartbeat IPC: 2.00652 cumulative IPC: 1.9513 (Simulation time: 0 hr 23 min 16 sec) 
Heartbeat CPU 0 instructions: 48000000 cycles: 24649791 heartbeat IPC: 1.77536 cumulative IPC: 1.94728 (Simulation time: 0 hr 23 min 42 sec) 
Heartbeat CPU 0 instructions: 49000002 cycles: 25206048 heartbeat IPC: 1.79773 cumulative IPC: 1.94398 (Simulation time: 0 hr 24 min 10 sec) 
Heartbeat CPU 0 instructions: 50000000 cycles: 25692612 heartbeat IPC: 2.05522 cumulative IPC: 1.94608 (Simulation time: 0 hr 24 min 40 sec) 

Warmup complete CPU 0 instructions: 50000004 cycles: 25692613 (Simulation time: 0 hr 24 min 40 sec) 

Heartbeat CPU 0 instructions: 51000002 cycles: 26376458 heartbeat IPC: 1.46232 cumulative IPC: 1.46232 (Simulation time: 0 hr 25 min 10 sec) 
Heartbeat CPU 0 instructions: 52000000 cycles: 27064170 heartbeat IPC: 1.45409 cumulative IPC: 1.45819 (Simulation time: 0 hr 25 min 46 sec) 
Heartbeat CPU 0 instructions: 53000000 cycles: 27813733 heartbeat IPC: 1.33411 cumulative IPC: 1.41435 (Simulation time: 0 hr 26 min 16 sec) 
Heartbeat CPU 0 instructions: 54000002 cycles: 28625651 heartbeat IPC: 1.23165 cumulative IPC: 1.36377 (Simulation time: 0 hr 26 min 46 sec) 
Heartbeat CPU 0 instructions: 55000001 cycles: 29402714 heartbeat IPC: 1.2869 cumulative IPC: 1.34767 (Simulation time: 0 hr 27 min 17 sec) 
Heartbeat CPU 0 instructions: 56000000 cycles: 30086067 heartbeat IPC: 1.46337 cumulative IPC: 1.36567 (Simulation time: 0 hr 27 min 47 sec) 
Heartbeat CPU 0 instructions: 57000000 cycles: 30769420 heartbeat IPC: 1.46337 cumulative IPC: 1.37882 (Simulation time: 0 hr 28 min 20 sec) 
Heartbeat CPU 0 instructions: 58000000 cycles: 31456397 heartbeat IPC: 1.45565 cumulative IPC: 1.38798 (Simulation time: 0 hr 28 min 50 sec) 
Heartbeat CPU 0 instructions: 59000003 cycles: 32234794 heartbeat IPC: 1.2847 cumulative IPC: 1.37569 (Simulation time: 0 hr 29 min 21 sec) 
Heartbeat CPU 0 instructions: 60000000 cycles: 33047704 heartbeat IPC: 1.23014 cumulative IPC: 1.3596 (Simulation time: 0 hr 29 min 52 sec) 
Heartbeat CPU 0 instructions: 61000000 cycles: 33795154 heartbeat IPC: 1.33788 cumulative IPC: 1.3576 (Simulation time: 0 hr 30 min 23 sec) 
Heartbeat CPU 0 instructions: 62000002 cycles: 34476951 heartbeat IPC: 1.46672 cumulative IPC: 1.36607 (Simulation time: 0 hr 30 min 53 sec) 
Heartbeat CPU 0 instructions: 63000003 cycles: 35163789 heartbeat IPC: 1.45595 cumulative IPC: 1.37259 (Simulation time: 0 hr 31 min 24 sec) 
Heartbeat CPU 0 instructions: 64000000 cycles: 35846674 heartbeat IPC: 1.46437 cumulative IPC: 1.37876 (Simulation time: 0 hr 31 min 55 sec) 
Heartbeat CPU 0 instructions: 65000003 cycles: 36658662 heartbeat IPC: 1.23155 cumulative IPC: 1.36786 (Simulation time: 0 hr 32 min 30 sec) 
Heartbeat CPU 0 instructions: 66000003 cycles: 37471999 heartbeat IPC: 1.2295 cumulative IPC: 1.3583 (Simulation time: 0 hr 33 min 5 sec) 
Heartbeat CPU 0 instructions: 67000002 cycles: 38188584 heartbeat IPC: 1.39551 cumulative IPC: 1.36044 (Simulation time: 0 hr 33 min 37 sec) 
Heartbeat CPU 0 instructions: 68000000 cycles: 38868103 heartbeat IPC: 1.47163 cumulative IPC: 1.36617 (Simulation time: 0 hr 34 min 9 sec) 
Heartbeat CPU 0 instructions: 69000000 cycles: 39551137 heartbeat IPC: 1.46406 cumulative IPC: 1.371 (Simulation time: 0 hr 34 min 39 sec) 
Heartbeat CPU 0 instructions: 70000001 cycles: 40262139 heartbeat IPC: 1.40647 cumulative IPC: 1.37273 (Simulation time: 0 hr 35 min 10 sec) 
Heartbeat CPU 0 instructions: 71000001 cycles: 41070712 heartbeat IPC: 1.23675 cumulative IPC: 1.36558 (Simulation time: 0 hr 35 min 40 sec) 
Heartbeat CPU 0 instructions: 72000000 cycles: 41881729 heartbeat IPC: 1.23302 cumulative IPC: 1.35894 (Simulation time: 0 hr 36 min 11 sec) 
Heartbeat CPU 0 instructions: 73000003 cycles: 42571081 heartbeat IPC: 1.45064 cumulative IPC: 1.36268 (Simulation time: 0 hr 36 min 39 sec) 
Heartbeat CPU 0 instructions: 74000001 cycles: 43253350 heartbeat IPC: 1.46569 cumulative IPC: 1.36669 (Simulation time: 0 hr 37 min 11 sec) 
Heartbeat CPU 0 instructions: 75000003 cycles: 43936812 heartbeat IPC: 1.46314 cumulative IPC: 1.3703 (Simulation time: 0 hr 37 min 39 sec) 
Heartbeat CPU 0 instructions: 76000000 cycles: 44678166 heartbeat IPC: 1.34888 cumulative IPC: 1.36946 (Simulation time: 0 hr 38 min 8 sec) 
Heartbeat CPU 0 instructions: 77000001 cycles: 45490386 heartbeat IPC: 1.23119 cumulative IPC: 1.36379 (Simulation time: 0 hr 38 min 40 sec) 
Heartbeat CPU 0 instructions: 78000003 cycles: 46275465 heartbeat IPC: 1.27376 cumulative IPC: 1.36036 (Simulation time: 0 hr 39 min 9 sec) 
Heartbeat CPU 0 instructions: 79000001 cycles: 46955021 heartbeat IPC: 1.47155 cumulative IPC: 1.36391 (Simulation time: 0 hr 39 min 36 sec) 
Heartbeat CPU 0 instructions: 80000000 cycles: 47637684 heartbeat IPC: 1.46485 cumulative IPC: 1.36705 (Simulation time: 0 hr 40 min 6 sec) 
Heartbeat CPU 0 instructions: 81000000 cycles: 48320638 heartbeat IPC: 1.46423 cumulative IPC: 1.36998 (Simulation time: 0 hr 40 min 35 sec) 
Heartbeat CPU 0 instructions: 82000002 cycles: 49086367 heartbeat IPC: 1.30595 cumulative IPC: 1.36789 (Simulation time: 0 hr 41 min 5 sec) 
Heartbeat CPU 0 instructions: 83000001 cycles: 49898501 heartbeat IPC: 1.23132 cumulative IPC: 1.3633 (Simulation time: 0 hr 41 min 33 sec) 
Heartbeat CPU 0 instructions: 84000000 cycles: 50653895 heartbeat IPC: 1.32381 cumulative IPC: 1.36211 (Simulation time: 0 hr 42 min 2 sec) 
Heartbeat CPU 0 instructions: 85000001 cycles: 51334073 heartbeat IPC: 1.4702 cumulative IPC: 1.36498 (Simulation time: 0 hr 42 min 31 sec) 
Heartbeat CPU 0 instructions: 86000002 cycles: 52016967 heartbeat IPC: 1.46436 cumulative IPC: 1.36755 (Simulation time: 0 hr 42 min 59 sec) 
Heartbeat CPU 0 instructions: 87000000 cycles: 52700828 heartbeat IPC: 1.46228 cumulative IPC: 1.36995 (Simulation time: 0 hr 43 min 30 sec) 
Heartbeat CPU 0 instructions: 88000000 cycles: 53497164 heartbeat IPC: 1.25575 cumulative IPC: 1.36668 (Simulation time: 0 hr 44 min 7 sec) 
Heartbeat CPU 0 instructions: 89000000 cycles: 54309933 heartbeat IPC: 1.23036 cumulative IPC: 1.36281 (Simulation time: 0 hr 44 min 42 sec) 
Heartbeat CPU 0 instructions: 90000002 cycles: 55036948 heartbeat IPC: 1.37549 cumulative IPC: 1.36313 (Simulation time: 0 hr 45 min 17 sec) 
Heartbeat CPU 0 instructions: 91000002 cycles: 55718352 heartbeat IPC: 1.46756 cumulative IPC: 1.3655 (Simulation time: 0 hr 45 min 53 sec) 
Heartbeat CPU 0 instructions: 92000000 cycles: 56401476 heartbeat IPC: 1.46386 cumulative IPC: 1.36768 (Simulation time: 0 hr 46 min 23 sec) 
Heartbeat CPU 0 instructions: 93000001 cycles: 57080978 heartbeat IPC: 1.47167 cumulative IPC: 1.36993 (Simulation time: 0 hr 46 min 55 sec) 
Heartbeat CPU 0 instructions: 94000000 cycles: 57905777 heartbeat IPC: 1.21242 cumulative IPC: 1.3659 (Simulation time: 0 hr 47 min 27 sec) 
Heartbeat CPU 0 instructions: 95000003 cycles: 58718349 heartbeat IPC: 1.23066 cumulative IPC: 1.36257 (Simulation time: 0 hr 48 min 2 sec) 
Heartbeat CPU 0 instructions: 96000000 cycles: 59416071 heartbeat IPC: 1.43323 cumulative IPC: 1.36404 (Simulation time: 0 hr 48 min 34 sec) 
Heartbeat CPU 0 instructions: 97000001 cycles: 60097952 heartbeat IPC: 1.46653 cumulative IPC: 1.36607 (Simulation time: 0 hr 49 min 8 sec) 
Heartbeat CPU 0 instructions: 98000000 cycles: 60784692 heartbeat IPC: 1.45615 cumulative IPC: 1.36783 (Simulation time: 0 hr 49 min 38 sec) 
Heartbeat CPU 0 instructions: 99000001 cycles: 61510502 heartbeat IPC: 1.37777 cumulative IPC: 1.36803 (Simulation time: 0 hr 50 min 12 sec) 
Heartbeat CPU 0 instructions: 100000000 cycles: 62323369 heartbeat IPC: 1.23021 cumulative IPC: 1.36497 (Simulation time: 0 hr 50 min 49 sec) 
Heartbeat CPU 0 instructions: 101000001 cycles: 63124914 heartbeat IPC: 1.24759 cumulative IPC: 1.36246 (Simulation time: 0 hr 51 min 25 sec) 
Heartbeat CPU 0 instructions: 102000003 cycles: 63804571 heartbeat IPC: 1.47133 cumulative IPC: 1.3644 (Simulation time: 0 hr 51 min 56 sec) 
Heartbeat CPU 0 instructions: 103000003 cycles: 64486371 heartbeat IPC: 1.46671 cumulative IPC: 1.3662 (Simulation time: 0 hr 52 min 29 sec) 
Heartbeat CPU 0 instructions: 104000000 cycles: 65166966 heartbeat IPC: 1.4693 cumulative IPC: 1.36798 (Simulation time: 0 hr 53 min 2 sec) 
Heartbeat CPU 0 instructions: 105000001 cycles: 65928050 heartbeat IPC: 1.31392 cumulative IPC: 1.36695 (Simulation time: 0 hr 53 min 35 sec) 
Heartbeat CPU 0 instructions: 106000002 cycles: 66736446 heartbeat IPC: 1.23702 cumulative IPC: 1.36439 (Simulation time: 0 hr 54 min 9 sec) 
Heartbeat CPU 0 instructions: 107000003 cycles: 67505937 heartbeat IPC: 1.29956 cumulative IPC: 1.3632 (Simulation time: 0 hr 54 min 41 sec) 
Heartbeat CPU 0 instructions: 108000000 cycles: 68185285 heartbeat IPC: 1.472 cumulative IPC: 1.36494 (Simulation time: 0 hr 55 min 16 sec) 
Heartbeat CPU 0 instructions: 109000001 cycles: 68869065 heartbeat IPC: 1.46246 cumulative IPC: 1.36649 (Simulation time: 0 hr 55 min 52 sec) 
Heartbeat CPU 0 instructions: 110000000 cycles: 69552252 heartbeat IPC: 1.46373 cumulative IPC: 1.368 (Simulation time: 0 hr 56 min 30 sec) 
Heartbeat CPU 0 instructions: 111000002 cycles: 70341680 heartbeat IPC: 1.26674 cumulative IPC: 1.36621 (Simulation time: 0 hr 57 min 11 sec) 
Heartbeat CPU 0 instructions: 112000000 cycles: 71154208 heartbeat IPC: 1.23072 cumulative IPC: 1.36379 (Simulation time: 0 hr 57 min 48 sec) 
Heartbeat CPU 0 instructions: 113000001 cycles: 71891584 heartbeat IPC: 1.35616 cumulative IPC: 1.36367 (Simulation time: 0 hr 58 min 19 sec) 
Heartbeat CPU 0 instructions: 114000002 cycles: 72575462 heartbeat IPC: 1.46225 cumulative IPC: 1.3651 (Simulation time: 0 hr 58 min 55 sec) 
Heartbeat CPU 0 instructions: 115000003 cycles: 73260864 heartbeat IPC: 1.459 cumulative IPC: 1.36646 (Simulation time: 0 hr 59 min 33 sec) 
Heartbeat CPU 0 instructions: 116000000 cycles: 73947430 heartbeat IPC: 1.45652 cumulative IPC: 1.36774 (Simulation time: 1 hr 0 min 7 sec) 
Heartbeat CPU 0 instructions: 117000000 cycles: 74766682 heartbeat IPC: 1.22063 cumulative IPC: 1.36528 (Simulation time: 1 hr 0 min 37 sec) 
Heartbeat CPU 0 instructions: 118000002 cycles: 75580408 heartbeat IPC: 1.22892 cumulative IPC: 1.36306 (Simulation time: 1 hr 1 min 14 sec) 
Heartbeat CPU 0 instructions: 119000000 cycles: 76290547 heartbeat IPC: 1.40817 cumulative IPC: 1.36369 (Simulation time: 1 hr 1 min 45 sec) 
Heartbeat CPU 0 instructions: 120000000 cycles: 76973294 heartbeat IPC: 1.46467 cumulative IPC: 1.36504 (Simulation time: 1 hr 2 min 23 sec) 
Heartbeat CPU 0 instructions: 121000000 cycles: 77657033 heartbeat IPC: 1.46255 cumulative IPC: 1.36632 (Simulation time: 1 hr 2 min 58 sec) 
Heartbeat CPU 0 instructions: 122000003 cycles: 78371464 heartbeat IPC: 1.39972 cumulative IPC: 1.36677 (Simulation time: 1 hr 3 min 29 sec) 
Heartbeat CPU 0 instructions: 123000000 cycles: 79184457 heartbeat IPC: 1.23002 cumulative IPC: 1.36469 (Simulation time: 1 hr 4 min 1 sec) 
Heartbeat CPU 0 instructions: 124000000 cycles: 79994457 heartbeat IPC: 1.23457 cumulative IPC: 1.36275 (Simulation time: 1 hr 4 min 33 sec) 
Heartbeat CPU 0 instructions: 125000001 cycles: 80677665 heartbeat IPC: 1.46368 cumulative IPC: 1.36401 (Simulation time: 1 hr 5 min 0 sec) 
Heartbeat CPU 0 instructions: 126000000 cycles: 81360383 heartbeat IPC: 1.46473 cumulative IPC: 1.36524 (Simulation time: 1 hr 5 min 33 sec) 
Heartbeat CPU 0 instructions: 127000003 cycles: 82042612 heartbeat IPC: 1.46579 cumulative IPC: 1.36646 (Simulation time: 1 hr 6 min 8 sec) 
Heartbeat CPU 0 instructions: 128000000 cycles: 82785408 heartbeat IPC: 1.34626 cumulative IPC: 1.3662 (Simulation time: 1 hr 6 min 41 sec) 
Heartbeat CPU 0 instructions: 129000002 cycles: 83598083 heartbeat IPC: 1.23051 cumulative IPC: 1.36429 (Simulation time: 1 hr 7 min 15 sec) 
Heartbeat CPU 0 instructions: 130000002 cycles: 84379219 heartbeat IPC: 1.28019 cumulative IPC: 1.36317 (Simulation time: 1 hr 7 min 48 sec) 
Heartbeat CPU 0 instructions: 131000003 cycles: 85060681 heartbeat IPC: 1.46743 cumulative IPC: 1.36437 (Simulation time: 1 hr 8 min 18 sec) 
Heartbeat CPU 0 instructions: 132000000 cycles: 85745190 heartbeat IPC: 1.4609 cumulative IPC: 1.36547 (Simulation time: 1 hr 8 min 47 sec) 
Heartbeat CPU 0 instructions: 133000003 cycles: 86428356 heartbeat IPC: 1.46378 cumulative IPC: 1.36658 (Simulation time: 1 hr 9 min 19 sec) 
Heartbeat CPU 0 instructions: 134000001 cycles: 87203446 heartbeat IPC: 1.29017 cumulative IPC: 1.36561 (Simulation time: 1 hr 9 min 46 sec) 
Heartbeat CPU 0 instructions: 135000001 cycles: 88016179 heartbeat IPC: 1.23042 cumulative IPC: 1.36385 (Simulation time: 1 hr 10 min 21 sec) 
Heartbeat CPU 0 instructions: 136000000 cycles: 88768316 heartbeat IPC: 1.32954 cumulative IPC: 1.36344 (Simulation time: 1 hr 10 min 50 sec) 
Heartbeat CPU 0 instructions: 137000003 cycles: 89451661 heartbeat IPC: 1.46339 cumulative IPC: 1.36451 (Simulation time: 1 hr 11 min 20 sec) 
Heartbeat CPU 0 instructions: 138000000 cycles: 90137086 heartbeat IPC: 1.45894 cumulative IPC: 1.36552 (Simulation time: 1 hr 11 min 50 sec) 
Heartbeat CPU 0 instructions: 139000002 cycles: 90826546 heartbeat IPC: 1.45041 cumulative IPC: 1.36642 (Simulation time: 1 hr 12 min 16 sec) 
Heartbeat CPU 0 instructions: 140000000 cycles: 91629567 heartbeat IPC: 1.24529 cumulative IPC: 1.36494 (Simulation time: 1 hr 12 min 46 sec) 
Heartbeat CPU 0 instructions: 141000003 cycles: 92437386 heartbeat IPC: 1.2379 cumulative IPC: 1.3634 (Simulation time: 1 hr 13 min 14 sec) 
Heartbeat CPU 0 instructions: 142000000 cycles: 93161704 heartbeat IPC: 1.3806 cumulative IPC: 1.36359 (Simulation time: 1 hr 13 min 40 sec) 
Heartbeat CPU 0 instructions: 143000001 cycles: 93844324 heartbeat IPC: 1.46495 cumulative IPC: 1.3646 (Simulation time: 1 hr 14 min 8 sec) 
Heartbeat CPU 0 instructions: 144000000 cycles: 94527416 heartbeat IPC: 1.46393 cumulative IPC: 1.36559 (Simulation time: 1 hr 14 min 35 sec) 
Heartbeat CPU 0 instructions: 145000001 cycles: 95234111 heartbeat IPC: 1.41504 cumulative IPC: 1.36609 (Simulation time: 1 hr 15 min 2 sec) 
Heartbeat CPU 0 instructions: 146000003 cycles: 96046446 heartbeat IPC: 1.23102 cumulative IPC: 1.36453 (Simulation time: 1 hr 15 min 33 sec) 
Heartbeat CPU 0 instructions: 147000001 cycles: 96857655 heartbeat IPC: 1.23273 cumulative IPC: 1.36303 (Simulation time: 1 hr 15 min 58 sec) 
Heartbeat CPU 0 instructions: 148000000 cycles: 97548432 heartbeat IPC: 1.44764 cumulative IPC: 1.36384 (Simulation time: 1 hr 16 min 26 sec) 
Heartbeat CPU 0 instructions: 149000002 cycles: 98230978 heartbeat IPC: 1.46511 cumulative IPC: 1.36479 (Simulation time: 1 hr 16 min 48 sec) 
Heartbeat CPU 0 instructions: 150000002 cycles: 98916468 heartbeat IPC: 1.45881 cumulative IPC: 1.36568 (Simulation time: 1 hr 17 min 12 sec) 
Finished CPU 0 instructions: 100000002 cycles: 73223856 cummulative IPC: 1.36568 (Simulation time: 1 hr 17 min 12 sec) 

ChampSim completed all CPUs

Region of Interest Statistics

CPU 0 cummulative IPC: 1.36568 instructions: 100000002 cycles: 73223856
LLC TOTAL     ACCESS:     631193  HIT:     301485  MISS:     329708
LLC LOAD      ACCESS:      36770  HIT:      24902  MISS:      11868
LLC RFO       ACCESS:     152047  HIT:      75846  MISS:      76201
LLC PREFETCH  ACCESS:     286678  HIT:      98676  MISS:     188002
LLC WRITEBACK ACCESS:     155698  HIT:     102061  MISS:      53637
OPTgen accesses: 4423
OPTgen hits: 3152
OPTgen hit rate: 71.2638


