
*** ChampSim Multicore Out-of-Order Simulator ***

Warmup Instructions: 50000000
Simulation Instructions: 100000000
Configuration: 2
Number of CPUs: 1
LLC sets: 2048
LLC ways: 16
Off-chip DRAM Channels: 1 Width: 64-bit Data Rate: 1600 MT/s

CPU 0 runs /datasets/cs240c-wi22-a00-public/data/Assignment2-gz/libquantum_964B.trace.gz
CPU 0 L1D next line prefetcher
CPU 0 L2C IP-based stride prefetcher
Initialize Hawkeye state
Heartbeat CPU 0 instructions: 1000002 cycles: 333341 heartbeat IPC: 2.99994 cumulative IPC: 2.99994 (Simulation time: 0 hr 0 min 24 sec) 
Heartbeat CPU 0 instructions: 2000001 cycles: 666674 heartbeat IPC: 3 cumulative IPC: 2.99997 (Simulation time: 0 hr 0 min 42 sec) 
Heartbeat CPU 0 instructions: 3000000 cycles: 1000007 heartbeat IPC: 3 cumulative IPC: 2.99998 (Simulation time: 0 hr 1 min 0 sec) 
Heartbeat CPU 0 instructions: 4000000 cycles: 1333341 heartbeat IPC: 2.99999 cumulative IPC: 2.99998 (Simulation time: 0 hr 1 min 18 sec) 
Heartbeat CPU 0 instructions: 5000000 cycles: 1666674 heartbeat IPC: 3 cumulative IPC: 2.99999 (Simulation time: 0 hr 1 min 37 sec) 
Heartbeat CPU 0 instructions: 6000002 cycles: 2000008 heartbeat IPC: 3 cumulative IPC: 2.99999 (Simulation time: 0 hr 1 min 56 sec) 
Heartbeat CPU 0 instructions: 7000001 cycles: 2331518 heartbeat IPC: 3.0165 cumulative IPC: 3.00234 (Simulation time: 0 hr 2 min 16 sec) 
Heartbeat CPU 0 instructions: 8000000 cycles: 2662240 heartbeat IPC: 3.02368 cumulative IPC: 3.00499 (Simulation time: 0 hr 2 min 33 sec) 
Heartbeat CPU 0 instructions: 9000001 cycles: 2992962 heartbeat IPC: 3.02369 cumulative IPC: 3.00705 (Simulation time: 0 hr 2 min 51 sec) 
Heartbeat CPU 0 instructions: 10000001 cycles: 3323684 heartbeat IPC: 3.02369 cumulative IPC: 3.00871 (Simulation time: 0 hr 3 min 8 sec) 
Heartbeat CPU 0 instructions: 11000000 cycles: 3654406 heartbeat IPC: 3.02368 cumulative IPC: 3.01007 (Simulation time: 0 hr 3 min 27 sec) 
Heartbeat CPU 0 instructions: 12000000 cycles: 3985113 heartbeat IPC: 3.02382 cumulative IPC: 3.01121 (Simulation time: 0 hr 3 min 44 sec) 
Heartbeat CPU 0 instructions: 13000001 cycles: 4315818 heartbeat IPC: 3.02385 cumulative IPC: 3.01218 (Simulation time: 0 hr 4 min 4 sec) 
Heartbeat CPU 0 instructions: 14000000 cycles: 4646523 heartbeat IPC: 3.02384 cumulative IPC: 3.01301 (Simulation time: 0 hr 4 min 23 sec) 
Heartbeat CPU 0 instructions: 15000003 cycles: 4977229 heartbeat IPC: 3.02384 cumulative IPC: 3.01373 (Simulation time: 0 hr 4 min 44 sec) 
Heartbeat CPU 0 instructions: 16000000 cycles: 5307934 heartbeat IPC: 3.02383 cumulative IPC: 3.01436 (Simulation time: 0 hr 5 min 4 sec) 
Heartbeat CPU 0 instructions: 17000000 cycles: 5638642 heartbeat IPC: 3.02382 cumulative IPC: 3.01491 (Simulation time: 0 hr 5 min 23 sec) 
Heartbeat CPU 0 instructions: 18000003 cycles: 5969365 heartbeat IPC: 3.02369 cumulative IPC: 3.0154 (Simulation time: 0 hr 5 min 41 sec) 
Heartbeat CPU 0 instructions: 19000002 cycles: 6300087 heartbeat IPC: 3.02368 cumulative IPC: 3.01583 (Simulation time: 0 hr 6 min 7 sec) 
Heartbeat CPU 0 instructions: 20000000 cycles: 6630808 heartbeat IPC: 3.02369 cumulative IPC: 3.01622 (Simulation time: 0 hr 6 min 29 sec) 
Heartbeat CPU 0 instructions: 21000003 cycles: 6961531 heartbeat IPC: 3.02369 cumulative IPC: 3.01658 (Simulation time: 0 hr 6 min 49 sec) 
Heartbeat CPU 0 instructions: 22000002 cycles: 7292253 heartbeat IPC: 3.02368 cumulative IPC: 3.0169 (Simulation time: 0 hr 7 min 9 sec) 
Heartbeat CPU 0 instructions: 23000000 cycles: 7622968 heartbeat IPC: 3.02375 cumulative IPC: 3.0172 (Simulation time: 0 hr 7 min 29 sec) 
Heartbeat CPU 0 instructions: 24000000 cycles: 7953674 heartbeat IPC: 3.02383 cumulative IPC: 3.01747 (Simulation time: 0 hr 7 min 47 sec) 
Heartbeat CPU 0 instructions: 25000000 cycles: 8284379 heartbeat IPC: 3.02384 cumulative IPC: 3.01773 (Simulation time: 0 hr 8 min 8 sec) 
Heartbeat CPU 0 instructions: 26000002 cycles: 8675744 heartbeat IPC: 2.55516 cumulative IPC: 2.99686 (Simulation time: 0 hr 8 min 41 sec) 
Heartbeat CPU 0 instructions: 27000000 cycles: 9096050 heartbeat IPC: 2.37921 cumulative IPC: 2.96832 (Simulation time: 0 hr 9 min 12 sec) 
Heartbeat CPU 0 instructions: 28000000 cycles: 9516352 heartbeat IPC: 2.37924 cumulative IPC: 2.9423 (Simulation time: 0 hr 9 min 42 sec) 
Heartbeat CPU 0 instructions: 29000002 cycles: 9936683 heartbeat IPC: 2.37908 cumulative IPC: 2.91848 (Simulation time: 0 hr 10 min 17 sec) 
Heartbeat CPU 0 instructions: 30000002 cycles: 10356994 heartbeat IPC: 2.37919 cumulative IPC: 2.89659 (Simulation time: 0 hr 10 min 51 sec) 
Heartbeat CPU 0 instructions: 31000000 cycles: 10777300 heartbeat IPC: 2.37921 cumulative IPC: 2.87642 (Simulation time: 0 hr 11 min 24 sec) 
Heartbeat CPU 0 instructions: 32000000 cycles: 11197602 heartbeat IPC: 2.37924 cumulative IPC: 2.85775 (Simulation time: 0 hr 12 min 0 sec) 
Heartbeat CPU 0 instructions: 33000002 cycles: 11617933 heartbeat IPC: 2.37908 cumulative IPC: 2.84044 (Simulation time: 0 hr 12 min 35 sec) 
Heartbeat CPU 0 instructions: 34000002 cycles: 12038244 heartbeat IPC: 2.37919 cumulative IPC: 2.82433 (Simulation time: 0 hr 13 min 10 sec) 
Heartbeat CPU 0 instructions: 35000000 cycles: 12458550 heartbeat IPC: 2.37921 cumulative IPC: 2.80932 (Simulation time: 0 hr 13 min 45 sec) 
Heartbeat CPU 0 instructions: 36000000 cycles: 12862260 heartbeat IPC: 2.47703 cumulative IPC: 2.79889 (Simulation time: 0 hr 14 min 21 sec) 
Heartbeat CPU 0 instructions: 37000001 cycles: 13195593 heartbeat IPC: 3.00001 cumulative IPC: 2.80397 (Simulation time: 0 hr 14 min 40 sec) 
Heartbeat CPU 0 instructions: 38000000 cycles: 13528926 heartbeat IPC: 3 cumulative IPC: 2.8088 (Simulation time: 0 hr 14 min 57 sec) 
Heartbeat CPU 0 instructions: 39000003 cycles: 13862260 heartbeat IPC: 3 cumulative IPC: 2.81339 (Simulation time: 0 hr 15 min 15 sec) 
Heartbeat CPU 0 instructions: 40000000 cycles: 14195593 heartbeat IPC: 2.99999 cumulative IPC: 2.81778 (Simulation time: 0 hr 15 min 35 sec) 
Heartbeat CPU 0 instructions: 41000001 cycles: 14528926 heartbeat IPC: 3.00001 cumulative IPC: 2.82196 (Simulation time: 0 hr 15 min 57 sec) 
Heartbeat CPU 0 instructions: 42000000 cycles: 14862259 heartbeat IPC: 3 cumulative IPC: 2.82595 (Simulation time: 0 hr 16 min 16 sec) 
Heartbeat CPU 0 instructions: 43000001 cycles: 15195593 heartbeat IPC: 3 cumulative IPC: 2.82977 (Simulation time: 0 hr 16 min 34 sec) 
Heartbeat CPU 0 instructions: 44000000 cycles: 15528926 heartbeat IPC: 3 cumulative IPC: 2.83342 (Simulation time: 0 hr 16 min 54 sec) 
Heartbeat CPU 0 instructions: 45000002 cycles: 15862260 heartbeat IPC: 3 cumulative IPC: 2.83692 (Simulation time: 0 hr 17 min 12 sec) 
Heartbeat CPU 0 instructions: 46000001 cycles: 16195593 heartbeat IPC: 3 cumulative IPC: 2.84028 (Simulation time: 0 hr 17 min 35 sec) 
Heartbeat CPU 0 instructions: 47000000 cycles: 16528926 heartbeat IPC: 3 cumulative IPC: 2.8435 (Simulation time: 0 hr 17 min 56 sec) 
Heartbeat CPU 0 instructions: 48000000 cycles: 16862260 heartbeat IPC: 2.99999 cumulative IPC: 2.84659 (Simulation time: 0 hr 18 min 16 sec) 
Heartbeat CPU 0 instructions: 49000003 cycles: 17195596 heartbeat IPC: 2.99998 cumulative IPC: 2.84957 (Simulation time: 0 hr 18 min 35 sec) 
Heartbeat CPU 0 instructions: 50000001 cycles: 17528926 heartbeat IPC: 3.00002 cumulative IPC: 2.85243 (Simulation time: 0 hr 18 min 54 sec) 

Warmup complete CPU 0 instructions: 50000001 cycles: 17528926 (Simulation time: 0 hr 18 min 54 sec) 

Heartbeat CPU 0 instructions: 51000000 cycles: 19010490 heartbeat IPC: 0.674962 cumulative IPC: 0.674962 (Simulation time: 0 hr 19 min 31 sec) 
Heartbeat CPU 0 instructions: 52000000 cycles: 20476755 heartbeat IPC: 0.682005 cumulative IPC: 0.678465 (Simulation time: 0 hr 20 min 6 sec) 
Heartbeat CPU 0 instructions: 53000000 cycles: 21939723 heartbeat IPC: 0.683542 cumulative IPC: 0.680149 (Simulation time: 0 hr 20 min 38 sec) 
Heartbeat CPU 0 instructions: 54000002 cycles: 23168388 heartbeat IPC: 0.813893 cumulative IPC: 0.709288 (Simulation time: 0 hr 21 min 10 sec) 
Heartbeat CPU 0 instructions: 55000002 cycles: 24333218 heartbeat IPC: 0.858494 cumulative IPC: 0.73483 (Simulation time: 0 hr 21 min 42 sec) 
Heartbeat CPU 0 instructions: 56000000 cycles: 26071412 heartbeat IPC: 0.575309 cumulative IPC: 0.702372 (Simulation time: 0 hr 22 min 11 sec) 
Heartbeat CPU 0 instructions: 57000001 cycles: 27825208 heartbeat IPC: 0.570192 cumulative IPC: 0.679857 (Simulation time: 0 hr 22 min 41 sec) 
Heartbeat CPU 0 instructions: 58000000 cycles: 29572100 heartbeat IPC: 0.572445 cumulative IPC: 0.664277 (Simulation time: 0 hr 23 min 16 sec) 
Heartbeat CPU 0 instructions: 59000003 cycles: 31324579 heartbeat IPC: 0.570622 cumulative IPC: 0.65238 (Simulation time: 0 hr 23 min 51 sec) 
Heartbeat CPU 0 instructions: 60000000 cycles: 33073309 heartbeat IPC: 0.571842 cumulative IPC: 0.643319 (Simulation time: 0 hr 24 min 20 sec) 
Heartbeat CPU 0 instructions: 61000002 cycles: 34819970 heartbeat IPC: 0.572522 cumulative IPC: 0.636168 (Simulation time: 0 hr 24 min 49 sec) 
Heartbeat CPU 0 instructions: 62000001 cycles: 36569960 heartbeat IPC: 0.571431 cumulative IPC: 0.630218 (Simulation time: 0 hr 25 min 21 sec) 
Heartbeat CPU 0 instructions: 63000001 cycles: 38314162 heartbeat IPC: 0.573328 cumulative IPC: 0.625444 (Simulation time: 0 hr 25 min 50 sec) 
Heartbeat CPU 0 instructions: 64000000 cycles: 40068063 heartbeat IPC: 0.570157 cumulative IPC: 0.621142 (Simulation time: 0 hr 26 min 22 sec) 
Heartbeat CPU 0 instructions: 65000002 cycles: 41817361 heartbeat IPC: 0.571659 cumulative IPC: 0.617578 (Simulation time: 0 hr 26 min 53 sec) 
Heartbeat CPU 0 instructions: 66000002 cycles: 43565069 heartbeat IPC: 0.572178 cumulative IPC: 0.61453 (Simulation time: 0 hr 27 min 25 sec) 
Heartbeat CPU 0 instructions: 67000000 cycles: 45315050 heartbeat IPC: 0.571434 cumulative IPC: 0.611816 (Simulation time: 0 hr 27 min 56 sec) 
Heartbeat CPU 0 instructions: 68000000 cycles: 47066941 heartbeat IPC: 0.570812 cumulative IPC: 0.609384 (Simulation time: 0 hr 28 min 31 sec) 
Heartbeat CPU 0 instructions: 69000000 cycles: 48819120 heartbeat IPC: 0.570718 cumulative IPC: 0.607219 (Simulation time: 0 hr 29 min 1 sec) 
Heartbeat CPU 0 instructions: 70000002 cycles: 50565074 heartbeat IPC: 0.572754 cumulative IPC: 0.605397 (Simulation time: 0 hr 29 min 33 sec) 
Heartbeat CPU 0 instructions: 71000001 cycles: 52315810 heartbeat IPC: 0.571188 cumulative IPC: 0.603676 (Simulation time: 0 hr 30 min 4 sec) 
Heartbeat CPU 0 instructions: 72000000 cycles: 54051370 heartbeat IPC: 0.576182 cumulative IPC: 0.602369 (Simulation time: 0 hr 30 min 31 sec) 
Heartbeat CPU 0 instructions: 73000000 cycles: 55491487 heartbeat IPC: 0.694388 cumulative IPC: 0.60586 (Simulation time: 0 hr 30 min 55 sec) 
Heartbeat CPU 0 instructions: 74000000 cycles: 56890226 heartbeat IPC: 0.71493 cumulative IPC: 0.609736 (Simulation time: 0 hr 31 min 24 sec) 
Heartbeat CPU 0 instructions: 75000000 cycles: 59464403 heartbeat IPC: 0.388474 cumulative IPC: 0.596154 (Simulation time: 0 hr 32 min 3 sec) 
Heartbeat CPU 0 instructions: 76000000 cycles: 61931928 heartbeat IPC: 0.405264 cumulative IPC: 0.585546 (Simulation time: 0 hr 32 min 39 sec) 
Heartbeat CPU 0 instructions: 77000000 cycles: 64268589 heartbeat IPC: 0.427961 cumulative IPC: 0.577668 (Simulation time: 0 hr 33 min 23 sec) 
Heartbeat CPU 0 instructions: 78000000 cycles: 66631387 heartbeat IPC: 0.423227 cumulative IPC: 0.570236 (Simulation time: 0 hr 34 min 6 sec) 
Heartbeat CPU 0 instructions: 79000000 cycles: 68961963 heartbeat IPC: 0.429078 cumulative IPC: 0.56384 (Simulation time: 0 hr 34 min 57 sec) 
Heartbeat CPU 0 instructions: 80000000 cycles: 71309809 heartbeat IPC: 0.425922 cumulative IPC: 0.557819 (Simulation time: 0 hr 35 min 32 sec) 
Heartbeat CPU 0 instructions: 81000000 cycles: 73645056 heartbeat IPC: 0.42822 cumulative IPC: 0.552426 (Simulation time: 0 hr 36 min 9 sec) 
Heartbeat CPU 0 instructions: 82000000 cycles: 75970522 heartbeat IPC: 0.430021 cumulative IPC: 0.547555 (Simulation time: 0 hr 36 min 46 sec) 
Heartbeat CPU 0 instructions: 83000000 cycles: 78308478 heartbeat IPC: 0.427724 cumulative IPC: 0.542946 (Simulation time: 0 hr 37 min 32 sec) 
Heartbeat CPU 0 instructions: 84000000 cycles: 80544476 heartbeat IPC: 0.447228 cumulative IPC: 0.539549 (Simulation time: 0 hr 38 min 15 sec) 
Heartbeat CPU 0 instructions: 85000001 cycles: 82176245 heartbeat IPC: 0.612832 cumulative IPC: 0.541399 (Simulation time: 0 hr 38 min 48 sec) 
Heartbeat CPU 0 instructions: 86000000 cycles: 83677625 heartbeat IPC: 0.666053 cumulative IPC: 0.544228 (Simulation time: 0 hr 39 min 16 sec) 
Heartbeat CPU 0 instructions: 87000003 cycles: 85046069 heartbeat IPC: 0.730759 cumulative IPC: 0.548009 (Simulation time: 0 hr 39 min 51 sec) 
Heartbeat CPU 0 instructions: 88000000 cycles: 86490102 heartbeat IPC: 0.692503 cumulative IPC: 0.551035 (Simulation time: 0 hr 40 min 25 sec) 
Heartbeat CPU 0 instructions: 89000001 cycles: 88000149 heartbeat IPC: 0.662232 cumulative IPC: 0.553417 (Simulation time: 0 hr 40 min 55 sec) 
Heartbeat CPU 0 instructions: 90000000 cycles: 89510269 heartbeat IPC: 0.662198 cumulative IPC: 0.5557 (Simulation time: 0 hr 41 min 27 sec) 
Heartbeat CPU 0 instructions: 91000001 cycles: 91020192 heartbeat IPC: 0.662286 cumulative IPC: 0.557889 (Simulation time: 0 hr 42 min 0 sec) 
Heartbeat CPU 0 instructions: 92000000 cycles: 92530300 heartbeat IPC: 0.662204 cumulative IPC: 0.55999 (Simulation time: 0 hr 42 min 34 sec) 
Heartbeat CPU 0 instructions: 93000002 cycles: 94040454 heartbeat IPC: 0.662185 cumulative IPC: 0.562007 (Simulation time: 0 hr 43 min 5 sec) 
Heartbeat CPU 0 instructions: 94000001 cycles: 95550374 heartbeat IPC: 0.662286 cumulative IPC: 0.563947 (Simulation time: 0 hr 43 min 45 sec) 
Heartbeat CPU 0 instructions: 95000000 cycles: 97060298 heartbeat IPC: 0.662284 cumulative IPC: 0.565814 (Simulation time: 0 hr 44 min 21 sec) 
Heartbeat CPU 0 instructions: 96000000 cycles: 98570292 heartbeat IPC: 0.662254 cumulative IPC: 0.567611 (Simulation time: 0 hr 44 min 56 sec) 
Heartbeat CPU 0 instructions: 97000002 cycles: 100080338 heartbeat IPC: 0.662233 cumulative IPC: 0.569342 (Simulation time: 0 hr 45 min 35 sec) 
Heartbeat CPU 0 instructions: 98000001 cycles: 101590260 heartbeat IPC: 0.662285 cumulative IPC: 0.571012 (Simulation time: 0 hr 46 min 14 sec) 
Heartbeat CPU 0 instructions: 99000000 cycles: 103080934 heartbeat IPC: 0.670837 cumulative IPC: 0.572751 (Simulation time: 0 hr 46 min 45 sec) 
Heartbeat CPU 0 instructions: 100000000 cycles: 104579447 heartbeat IPC: 0.667328 cumulative IPC: 0.574379 (Simulation time: 0 hr 47 min 19 sec) 
Heartbeat CPU 0 instructions: 101000000 cycles: 106088670 heartbeat IPC: 0.662593 cumulative IPC: 0.575882 (Simulation time: 0 hr 47 min 54 sec) 
Heartbeat CPU 0 instructions: 102000002 cycles: 107589119 heartbeat IPC: 0.666469 cumulative IPC: 0.577392 (Simulation time: 0 hr 48 min 26 sec) 
Heartbeat CPU 0 instructions: 103000001 cycles: 109037161 heartbeat IPC: 0.690587 cumulative IPC: 0.579183 (Simulation time: 0 hr 49 min 0 sec) 
Heartbeat CPU 0 instructions: 104000000 cycles: 111272599 heartbeat IPC: 0.447339 cumulative IPC: 0.576039 (Simulation time: 0 hr 49 min 40 sec) 
Heartbeat CPU 0 instructions: 105000000 cycles: 113356382 heartbeat IPC: 0.479896 cumulative IPC: 0.573948 (Simulation time: 0 hr 50 min 23 sec) 
Heartbeat CPU 0 instructions: 106000000 cycles: 115705534 heartbeat IPC: 0.425686 cumulative IPC: 0.570401 (Simulation time: 0 hr 51 min 8 sec) 
Heartbeat CPU 0 instructions: 107000000 cycles: 118062507 heartbeat IPC: 0.424273 cumulative IPC: 0.566975 (Simulation time: 0 hr 51 min 48 sec) 
Heartbeat CPU 0 instructions: 108000000 cycles: 120422382 heartbeat IPC: 0.423751 cumulative IPC: 0.56369 (Simulation time: 0 hr 52 min 27 sec) 
Heartbeat CPU 0 instructions: 109000000 cycles: 122770613 heartbeat IPC: 0.425852 cumulative IPC: 0.560614 (Simulation time: 0 hr 53 min 12 sec) 
Heartbeat CPU 0 instructions: 110000000 cycles: 125103094 heartbeat IPC: 0.428728 cumulative IPC: 0.557755 (Simulation time: 0 hr 53 min 59 sec) 
Heartbeat CPU 0 instructions: 111000000 cycles: 127445909 heartbeat IPC: 0.426837 cumulative IPC: 0.554964 (Simulation time: 0 hr 54 min 40 sec) 
Heartbeat CPU 0 instructions: 112000000 cycles: 129809091 heartbeat IPC: 0.423158 cumulative IPC: 0.55219 (Simulation time: 0 hr 55 min 26 sec) 
Heartbeat CPU 0 instructions: 113000000 cycles: 132147579 heartbeat IPC: 0.427627 cumulative IPC: 0.549649 (Simulation time: 0 hr 56 min 10 sec) 
Heartbeat CPU 0 instructions: 114000002 cycles: 134152414 heartbeat IPC: 0.498795 cumulative IPC: 0.548775 (Simulation time: 0 hr 56 min 50 sec) 
Heartbeat CPU 0 instructions: 115000001 cycles: 135885241 heartbeat IPC: 0.577091 cumulative IPC: 0.549189 (Simulation time: 0 hr 57 min 21 sec) 
Heartbeat CPU 0 instructions: 116000000 cycles: 137519154 heartbeat IPC: 0.612027 cumulative IPC: 0.550045 (Simulation time: 0 hr 57 min 48 sec) 
Heartbeat CPU 0 instructions: 117000002 cycles: 139070706 heartbeat IPC: 0.644517 cumulative IPC: 0.551251 (Simulation time: 0 hr 58 min 15 sec) 
Heartbeat CPU 0 instructions: 118000002 cycles: 140817845 heartbeat IPC: 0.572364 cumulative IPC: 0.55155 (Simulation time: 0 hr 58 min 44 sec) 
Heartbeat CPU 0 instructions: 119000002 cycles: 142567294 heartbeat IPC: 0.571609 cumulative IPC: 0.551831 (Simulation time: 0 hr 59 min 13 sec) 
Heartbeat CPU 0 instructions: 120000000 cycles: 144316031 heartbeat IPC: 0.57184 cumulative IPC: 0.552107 (Simulation time: 0 hr 59 min 43 sec) 
Heartbeat CPU 0 instructions: 121000000 cycles: 146067000 heartbeat IPC: 0.571112 cumulative IPC: 0.552365 (Simulation time: 1 hr 0 min 11 sec) 
Heartbeat CPU 0 instructions: 122000001 cycles: 147816497 heartbeat IPC: 0.571593 cumulative IPC: 0.552624 (Simulation time: 1 hr 0 min 41 sec) 
Heartbeat CPU 0 instructions: 123000000 cycles: 149566659 heartbeat IPC: 0.571375 cumulative IPC: 0.552872 (Simulation time: 1 hr 1 min 8 sec) 
Heartbeat CPU 0 instructions: 124000000 cycles: 151323480 heartbeat IPC: 0.56921 cumulative IPC: 0.553087 (Simulation time: 1 hr 1 min 35 sec) 
Heartbeat CPU 0 instructions: 125000001 cycles: 153071257 heartbeat IPC: 0.572156 cumulative IPC: 0.553333 (Simulation time: 1 hr 2 min 2 sec) 
Heartbeat CPU 0 instructions: 126000000 cycles: 154824402 heartbeat IPC: 0.570403 cumulative IPC: 0.553551 (Simulation time: 1 hr 2 min 36 sec) 
Heartbeat CPU 0 instructions: 127000003 cycles: 156571617 heartbeat IPC: 0.572341 cumulative IPC: 0.553787 (Simulation time: 1 hr 3 min 6 sec) 
Heartbeat CPU 0 instructions: 128000000 cycles: 158318648 heartbeat IPC: 0.572398 cumulative IPC: 0.554018 (Simulation time: 1 hr 3 min 40 sec) 
Heartbeat CPU 0 instructions: 129000000 cycles: 160064804 heartbeat IPC: 0.572686 cumulative IPC: 0.554246 (Simulation time: 1 hr 4 min 10 sec) 
Heartbeat CPU 0 instructions: 130000001 cycles: 161812671 heartbeat IPC: 0.572127 cumulative IPC: 0.554463 (Simulation time: 1 hr 4 min 41 sec) 
Heartbeat CPU 0 instructions: 131000000 cycles: 163560559 heartbeat IPC: 0.572118 cumulative IPC: 0.554674 (Simulation time: 1 hr 5 min 11 sec) 
Heartbeat CPU 0 instructions: 132000000 cycles: 165237773 heartbeat IPC: 0.596227 cumulative IPC: 0.555146 (Simulation time: 1 hr 5 min 42 sec) 
Heartbeat CPU 0 instructions: 133000000 cycles: 167071361 heartbeat IPC: 0.545379 cumulative IPC: 0.555026 (Simulation time: 1 hr 6 min 15 sec) 
Heartbeat CPU 0 instructions: 134000000 cycles: 169249029 heartbeat IPC: 0.459207 cumulative IPC: 0.553651 (Simulation time: 1 hr 6 min 53 sec) 
Heartbeat CPU 0 instructions: 135000000 cycles: 171374648 heartbeat IPC: 0.470451 cumulative IPC: 0.552502 (Simulation time: 1 hr 7 min 35 sec) 
Heartbeat CPU 0 instructions: 136000000 cycles: 173694190 heartbeat IPC: 0.43112 cumulative IPC: 0.550699 (Simulation time: 1 hr 8 min 17 sec) 
Heartbeat CPU 0 instructions: 137000000 cycles: 176018577 heartbeat IPC: 0.430221 cumulative IPC: 0.548932 (Simulation time: 1 hr 8 min 54 sec) 
Heartbeat CPU 0 instructions: 138000000 cycles: 178333249 heartbeat IPC: 0.432027 cumulative IPC: 0.547249 (Simulation time: 1 hr 9 min 32 sec) 
Heartbeat CPU 0 instructions: 139000000 cycles: 180647773 heartbeat IPC: 0.432054 cumulative IPC: 0.545614 (Simulation time: 1 hr 10 min 11 sec) 
Heartbeat CPU 0 instructions: 140000000 cycles: 182953407 heartbeat IPC: 0.43372 cumulative IPC: 0.544055 (Simulation time: 1 hr 10 min 50 sec) 
Heartbeat CPU 0 instructions: 141000000 cycles: 185256579 heartbeat IPC: 0.434184 cumulative IPC: 0.542546 (Simulation time: 1 hr 11 min 32 sec) 
Heartbeat CPU 0 instructions: 142000000 cycles: 187569567 heartbeat IPC: 0.432341 cumulative IPC: 0.541047 (Simulation time: 1 hr 12 min 13 sec) 
Heartbeat CPU 0 instructions: 143000000 cycles: 189688990 heartbeat IPC: 0.471827 cumulative IPC: 0.540195 (Simulation time: 1 hr 12 min 49 sec) 
Heartbeat CPU 0 instructions: 144000000 cycles: 191490670 heartbeat IPC: 0.555037 cumulative IPC: 0.540349 (Simulation time: 1 hr 13 min 22 sec) 
Heartbeat CPU 0 instructions: 145000002 cycles: 193203400 heartbeat IPC: 0.583864 cumulative IPC: 0.540773 (Simulation time: 1 hr 13 min 53 sec) 
Heartbeat CPU 0 instructions: 146000001 cycles: 194743260 heartbeat IPC: 0.649409 cumulative IPC: 0.541717 (Simulation time: 1 hr 14 min 17 sec) 
Heartbeat CPU 0 instructions: 147000000 cycles: 196412854 heartbeat IPC: 0.598947 cumulative IPC: 0.542251 (Simulation time: 1 hr 14 min 47 sec) 
Heartbeat CPU 0 instructions: 148000000 cycles: 198166462 heartbeat IPC: 0.570253 cumulative IPC: 0.542523 (Simulation time: 1 hr 15 min 11 sec) 
Heartbeat CPU 0 instructions: 149000002 cycles: 199915522 heartbeat IPC: 0.571737 cumulative IPC: 0.542803 (Simulation time: 1 hr 15 min 35 sec) 
Heartbeat CPU 0 instructions: 150000000 cycles: 201664700 heartbeat IPC: 0.571696 cumulative IPC: 0.543078 (Simulation time: 1 hr 16 min 3 sec) 
Finished CPU 0 instructions: 100000001 cycles: 184135775 cummulative IPC: 0.543078 (Simulation time: 1 hr 16 min 3 sec) 

ChampSim completed all CPUs

Region of Interest Statistics

CPU 0 cummulative IPC: 0.543078 instructions: 100000001 cycles: 184135775
LLC TOTAL     ACCESS:    5216164  HIT:     380370  MISS:    4835794
LLC LOAD      ACCESS:    1219967  HIT:      76975  MISS:    1142992
LLC RFO       ACCESS:         28  HIT:         27  MISS:          1
LLC PREFETCH  ACCESS:    2247116  HIT:     138022  MISS:    2109094
LLC WRITEBACK ACCESS:    1749053  HIT:     165346  MISS:    1583707
OPTgen accesses: 20783
OPTgen hits: 184
OPTgen hit rate: 0.885339


