
*** ChampSim Multicore Out-of-Order Simulator ***

Warmup Instructions: 50000000
Simulation Instructions: 100000000
Configuration: 2
Number of CPUs: 1
LLC sets: 2048
LLC ways: 16
Off-chip DRAM Channels: 1 Width: 64-bit Data Rate: 1600 MT/s

CPU 0 runs /datasets/cs240c-wi22-a00-public/data/Assignment2-gz/gcc_13B.trace.gz
CPU 0 L1D next line prefetcher
CPU 0 L2C IP-based stride prefetcher
Initialize Hawkeye state
Heartbeat CPU 0 instructions: 1000000 cycles: 633312 heartbeat IPC: 1.579 cumulative IPC: 1.579 (Simulation time: 0 hr 0 min 40 sec) 
Heartbeat CPU 0 instructions: 2000001 cycles: 1243574 heartbeat IPC: 1.63864 cumulative IPC: 1.60827 (Simulation time: 0 hr 1 min 18 sec) 
Heartbeat CPU 0 instructions: 3000001 cycles: 1717445 heartbeat IPC: 2.11028 cumulative IPC: 1.74678 (Simulation time: 0 hr 1 min 53 sec) 
Heartbeat CPU 0 instructions: 4000000 cycles: 2191038 heartbeat IPC: 2.11152 cumulative IPC: 1.82562 (Simulation time: 0 hr 2 min 28 sec) 
Heartbeat CPU 0 instructions: 5000002 cycles: 2665153 heartbeat IPC: 2.1092 cumulative IPC: 1.87607 (Simulation time: 0 hr 3 min 2 sec) 
Heartbeat CPU 0 instructions: 6000002 cycles: 3139017 heartbeat IPC: 2.11031 cumulative IPC: 1.91143 (Simulation time: 0 hr 3 min 37 sec) 
Heartbeat CPU 0 instructions: 7000001 cycles: 3614392 heartbeat IPC: 2.1036 cumulative IPC: 1.9367 (Simulation time: 0 hr 4 min 12 sec) 
Heartbeat CPU 0 instructions: 8000000 cycles: 4091520 heartbeat IPC: 2.09587 cumulative IPC: 1.95526 (Simulation time: 0 hr 4 min 47 sec) 
Heartbeat CPU 0 instructions: 9000001 cycles: 4832514 heartbeat IPC: 1.34954 cumulative IPC: 1.86238 (Simulation time: 0 hr 5 min 25 sec) 
Heartbeat CPU 0 instructions: 10000001 cycles: 5537347 heartbeat IPC: 1.41878 cumulative IPC: 1.80592 (Simulation time: 0 hr 6 min 8 sec) 
Heartbeat CPU 0 instructions: 11000002 cycles: 6158354 heartbeat IPC: 1.61029 cumulative IPC: 1.78619 (Simulation time: 0 hr 6 min 45 sec) 
Heartbeat CPU 0 instructions: 12000000 cycles: 6772189 heartbeat IPC: 1.6291 cumulative IPC: 1.77195 (Simulation time: 0 hr 7 min 25 sec) 
Heartbeat CPU 0 instructions: 13000000 cycles: 7378187 heartbeat IPC: 1.65017 cumulative IPC: 1.76195 (Simulation time: 0 hr 8 min 4 sec) 
Heartbeat CPU 0 instructions: 14000000 cycles: 8017914 heartbeat IPC: 1.56317 cumulative IPC: 1.74609 (Simulation time: 0 hr 8 min 44 sec) 
Heartbeat CPU 0 instructions: 15000001 cycles: 8617297 heartbeat IPC: 1.66838 cumulative IPC: 1.74069 (Simulation time: 0 hr 9 min 20 sec) 
Heartbeat CPU 0 instructions: 16000000 cycles: 9090753 heartbeat IPC: 2.11213 cumulative IPC: 1.76003 (Simulation time: 0 hr 9 min 58 sec) 
Heartbeat CPU 0 instructions: 17000000 cycles: 9564747 heartbeat IPC: 2.10973 cumulative IPC: 1.77736 (Simulation time: 0 hr 10 min 32 sec) 
Heartbeat CPU 0 instructions: 18000000 cycles: 10038643 heartbeat IPC: 2.11017 cumulative IPC: 1.79307 (Simulation time: 0 hr 11 min 8 sec) 
Heartbeat CPU 0 instructions: 19000002 cycles: 10512535 heartbeat IPC: 2.11019 cumulative IPC: 1.80737 (Simulation time: 0 hr 11 min 43 sec) 
Heartbeat CPU 0 instructions: 20000000 cycles: 10988366 heartbeat IPC: 2.10158 cumulative IPC: 1.82011 (Simulation time: 0 hr 12 min 19 sec) 
Heartbeat CPU 0 instructions: 21000001 cycles: 11469710 heartbeat IPC: 2.07752 cumulative IPC: 1.83091 (Simulation time: 0 hr 12 min 57 sec) 
Heartbeat CPU 0 instructions: 22000000 cycles: 12206874 heartbeat IPC: 1.35655 cumulative IPC: 1.80226 (Simulation time: 0 hr 13 min 41 sec) 
Heartbeat CPU 0 instructions: 23000002 cycles: 12904804 heartbeat IPC: 1.43281 cumulative IPC: 1.78228 (Simulation time: 0 hr 14 min 20 sec) 
Heartbeat CPU 0 instructions: 24000000 cycles: 13525464 heartbeat IPC: 1.61118 cumulative IPC: 1.77443 (Simulation time: 0 hr 15 min 3 sec) 
Heartbeat CPU 0 instructions: 25000000 cycles: 14141240 heartbeat IPC: 1.62397 cumulative IPC: 1.76788 (Simulation time: 0 hr 15 min 42 sec) 
Heartbeat CPU 0 instructions: 26000002 cycles: 14748861 heartbeat IPC: 1.64577 cumulative IPC: 1.76285 (Simulation time: 0 hr 16 min 24 sec) 
Heartbeat CPU 0 instructions: 27000001 cycles: 15399761 heartbeat IPC: 1.53633 cumulative IPC: 1.75327 (Simulation time: 0 hr 17 min 6 sec) 
Heartbeat CPU 0 instructions: 28000000 cycles: 15982255 heartbeat IPC: 1.71675 cumulative IPC: 1.75194 (Simulation time: 0 hr 17 min 47 sec) 
Heartbeat CPU 0 instructions: 29000001 cycles: 16455827 heartbeat IPC: 2.11161 cumulative IPC: 1.76229 (Simulation time: 0 hr 18 min 20 sec) 
Heartbeat CPU 0 instructions: 30000000 cycles: 16929503 heartbeat IPC: 2.11115 cumulative IPC: 1.77205 (Simulation time: 0 hr 18 min 54 sec) 
Heartbeat CPU 0 instructions: 31000000 cycles: 17403543 heartbeat IPC: 2.10953 cumulative IPC: 1.78125 (Simulation time: 0 hr 19 min 29 sec) 
Heartbeat CPU 0 instructions: 32000000 cycles: 17877485 heartbeat IPC: 2.10996 cumulative IPC: 1.78996 (Simulation time: 0 hr 20 min 4 sec) 
Heartbeat CPU 0 instructions: 33000002 cycles: 18353196 heartbeat IPC: 2.10212 cumulative IPC: 1.79805 (Simulation time: 0 hr 20 min 38 sec) 
Heartbeat CPU 0 instructions: 34000001 cycles: 18827222 heartbeat IPC: 2.10959 cumulative IPC: 1.8059 (Simulation time: 0 hr 21 min 12 sec) 
Heartbeat CPU 0 instructions: 35000000 cycles: 19472047 heartbeat IPC: 1.55081 cumulative IPC: 1.79745 (Simulation time: 0 hr 21 min 50 sec) 
Heartbeat CPU 0 instructions: 36000000 cycles: 20156484 heartbeat IPC: 1.46105 cumulative IPC: 1.78603 (Simulation time: 0 hr 22 min 29 sec) 
Heartbeat CPU 0 instructions: 37000003 cycles: 20841200 heartbeat IPC: 1.46046 cumulative IPC: 1.77533 (Simulation time: 0 hr 23 min 9 sec) 
Heartbeat CPU 0 instructions: 38000000 cycles: 21526339 heartbeat IPC: 1.45955 cumulative IPC: 1.76528 (Simulation time: 0 hr 23 min 43 sec) 
Heartbeat CPU 0 instructions: 39000002 cycles: 22210901 heartbeat IPC: 1.46079 cumulative IPC: 1.75589 (Simulation time: 0 hr 24 min 21 sec) 
Heartbeat CPU 0 instructions: 40000000 cycles: 22896058 heartbeat IPC: 1.45952 cumulative IPC: 1.74703 (Simulation time: 0 hr 24 min 59 sec) 
Heartbeat CPU 0 instructions: 41000000 cycles: 23581209 heartbeat IPC: 1.45953 cumulative IPC: 1.73867 (Simulation time: 0 hr 25 min 37 sec) 
Heartbeat CPU 0 instructions: 42000000 cycles: 24265869 heartbeat IPC: 1.46058 cumulative IPC: 1.73083 (Simulation time: 0 hr 26 min 12 sec) 
Heartbeat CPU 0 instructions: 43000002 cycles: 24950947 heartbeat IPC: 1.45969 cumulative IPC: 1.72338 (Simulation time: 0 hr 26 min 49 sec) 
Heartbeat CPU 0 instructions: 44000000 cycles: 25636021 heartbeat IPC: 1.45969 cumulative IPC: 1.71633 (Simulation time: 0 hr 27 min 25 sec) 
Heartbeat CPU 0 instructions: 45000000 cycles: 26321771 heartbeat IPC: 1.45826 cumulative IPC: 1.70961 (Simulation time: 0 hr 28 min 3 sec) 
Heartbeat CPU 0 instructions: 46000002 cycles: 27007024 heartbeat IPC: 1.45932 cumulative IPC: 1.70326 (Simulation time: 0 hr 28 min 40 sec) 
Heartbeat CPU 0 instructions: 47000001 cycles: 27691715 heartbeat IPC: 1.46051 cumulative IPC: 1.69726 (Simulation time: 0 hr 29 min 15 sec) 
Heartbeat CPU 0 instructions: 48000000 cycles: 28376006 heartbeat IPC: 1.46137 cumulative IPC: 1.69157 (Simulation time: 0 hr 29 min 51 sec) 
Heartbeat CPU 0 instructions: 49000000 cycles: 29061205 heartbeat IPC: 1.45943 cumulative IPC: 1.6861 (Simulation time: 0 hr 30 min 26 sec) 
Heartbeat CPU 0 instructions: 50000003 cycles: 29745506 heartbeat IPC: 1.46135 cumulative IPC: 1.68093 (Simulation time: 0 hr 31 min 1 sec) 

Warmup complete CPU 0 instructions: 50000003 cycles: 29745506 (Simulation time: 0 hr 31 min 1 sec) 

Heartbeat CPU 0 instructions: 51000001 cycles: 33325127 heartbeat IPC: 0.279359 cumulative IPC: 0.279359 (Simulation time: 0 hr 31 min 41 sec) 
Heartbeat CPU 0 instructions: 52000000 cycles: 36890137 heartbeat IPC: 0.280504 cumulative IPC: 0.27993 (Simulation time: 0 hr 32 min 22 sec) 
Heartbeat CPU 0 instructions: 53000001 cycles: 40471433 heartbeat IPC: 0.279229 cumulative IPC: 0.279696 (Simulation time: 0 hr 33 min 6 sec) 
Heartbeat CPU 0 instructions: 54000000 cycles: 44047319 heartbeat IPC: 0.279651 cumulative IPC: 0.279685 (Simulation time: 0 hr 33 min 48 sec) 
Heartbeat CPU 0 instructions: 55000000 cycles: 47631391 heartbeat IPC: 0.279012 cumulative IPC: 0.27955 (Simulation time: 0 hr 34 min 34 sec) 
Heartbeat CPU 0 instructions: 56000000 cycles: 51204609 heartbeat IPC: 0.27986 cumulative IPC: 0.279601 (Simulation time: 0 hr 35 min 13 sec) 
Heartbeat CPU 0 instructions: 57000002 cycles: 54744699 heartbeat IPC: 0.282479 cumulative IPC: 0.280009 (Simulation time: 0 hr 35 min 58 sec) 
Heartbeat CPU 0 instructions: 58000001 cycles: 58290876 heartbeat IPC: 0.281994 cumulative IPC: 0.280256 (Simulation time: 0 hr 36 min 37 sec) 
Heartbeat CPU 0 instructions: 59000003 cycles: 61809384 heartbeat IPC: 0.284212 cumulative IPC: 0.28069 (Simulation time: 0 hr 37 min 13 sec) 
Heartbeat CPU 0 instructions: 60000000 cycles: 65325184 heartbeat IPC: 0.284429 cumulative IPC: 0.281059 (Simulation time: 0 hr 37 min 58 sec) 
Heartbeat CPU 0 instructions: 61000000 cycles: 68835909 heartbeat IPC: 0.284841 cumulative IPC: 0.281399 (Simulation time: 0 hr 38 min 37 sec) 
Heartbeat CPU 0 instructions: 62000003 cycles: 72343783 heartbeat IPC: 0.285074 cumulative IPC: 0.281702 (Simulation time: 0 hr 39 min 14 sec) 
Heartbeat CPU 0 instructions: 63000001 cycles: 75854105 heartbeat IPC: 0.284874 cumulative IPC: 0.281943 (Simulation time: 0 hr 39 min 53 sec) 
Heartbeat CPU 0 instructions: 64000000 cycles: 79384164 heartbeat IPC: 0.283281 cumulative IPC: 0.282038 (Simulation time: 0 hr 40 min 30 sec) 
Heartbeat CPU 0 instructions: 65000000 cycles: 82952249 heartbeat IPC: 0.280262 cumulative IPC: 0.281919 (Simulation time: 0 hr 41 min 7 sec) 
Heartbeat CPU 0 instructions: 66000000 cycles: 86519790 heartbeat IPC: 0.280305 cumulative IPC: 0.281818 (Simulation time: 0 hr 41 min 49 sec) 
Heartbeat CPU 0 instructions: 67000001 cycles: 90121857 heartbeat IPC: 0.277619 cumulative IPC: 0.281567 (Simulation time: 0 hr 42 min 31 sec) 
Heartbeat CPU 0 instructions: 68000000 cycles: 93803194 heartbeat IPC: 0.27164 cumulative IPC: 0.280997 (Simulation time: 0 hr 43 min 12 sec) 
Heartbeat CPU 0 instructions: 69000003 cycles: 97517725 heartbeat IPC: 0.269214 cumulative IPC: 0.280351 (Simulation time: 0 hr 43 min 58 sec) 
Heartbeat CPU 0 instructions: 70000000 cycles: 101327872 heartbeat IPC: 0.262456 cumulative IPC: 0.279398 (Simulation time: 0 hr 44 min 45 sec) 
Heartbeat CPU 0 instructions: 71000002 cycles: 104935338 heartbeat IPC: 0.277203 cumulative IPC: 0.279293 (Simulation time: 0 hr 45 min 32 sec) 
Heartbeat CPU 0 instructions: 72000000 cycles: 108509031 heartbeat IPC: 0.279822 cumulative IPC: 0.279317 (Simulation time: 0 hr 46 min 17 sec) 
Heartbeat CPU 0 instructions: 73000003 cycles: 112082956 heartbeat IPC: 0.279805 cumulative IPC: 0.279338 (Simulation time: 0 hr 47 min 3 sec) 
Heartbeat CPU 0 instructions: 74000000 cycles: 115674731 heartbeat IPC: 0.278413 cumulative IPC: 0.2793 (Simulation time: 0 hr 47 min 48 sec) 
Heartbeat CPU 0 instructions: 75000000 cycles: 119266561 heartbeat IPC: 0.27841 cumulative IPC: 0.279264 (Simulation time: 0 hr 48 min 31 sec) 
Heartbeat CPU 0 instructions: 76000000 cycles: 122881763 heartbeat IPC: 0.27661 cumulative IPC: 0.279161 (Simulation time: 0 hr 49 min 15 sec) 
Heartbeat CPU 0 instructions: 77000000 cycles: 126471958 heartbeat IPC: 0.278536 cumulative IPC: 0.279138 (Simulation time: 0 hr 49 min 58 sec) 
Heartbeat CPU 0 instructions: 78000003 cycles: 130009692 heartbeat IPC: 0.282668 cumulative IPC: 0.279262 (Simulation time: 0 hr 50 min 46 sec) 
Heartbeat CPU 0 instructions: 79000000 cycles: 133575852 heartbeat IPC: 0.280413 cumulative IPC: 0.279302 (Simulation time: 0 hr 51 min 29 sec) 
Heartbeat CPU 0 instructions: 80000000 cycles: 137108469 heartbeat IPC: 0.283076 cumulative IPC: 0.279426 (Simulation time: 0 hr 52 min 16 sec) 
Heartbeat CPU 0 instructions: 81000001 cycles: 140625586 heartbeat IPC: 0.284324 cumulative IPC: 0.279581 (Simulation time: 0 hr 53 min 2 sec) 
Heartbeat CPU 0 instructions: 82000000 cycles: 144148390 heartbeat IPC: 0.283864 cumulative IPC: 0.279713 (Simulation time: 0 hr 53 min 50 sec) 
Heartbeat CPU 0 instructions: 83000003 cycles: 147689439 heartbeat IPC: 0.282403 cumulative IPC: 0.279794 (Simulation time: 0 hr 54 min 37 sec) 
Heartbeat CPU 0 instructions: 84000000 cycles: 151215661 heartbeat IPC: 0.283589 cumulative IPC: 0.279904 (Simulation time: 0 hr 55 min 20 sec) 
Heartbeat CPU 0 instructions: 85000000 cycles: 154750261 heartbeat IPC: 0.282917 cumulative IPC: 0.279989 (Simulation time: 0 hr 56 min 6 sec) 
Heartbeat CPU 0 instructions: 86000001 cycles: 158295750 heartbeat IPC: 0.282049 cumulative IPC: 0.280046 (Simulation time: 0 hr 56 min 45 sec) 
Heartbeat CPU 0 instructions: 87000001 cycles: 161847453 heartbeat IPC: 0.281555 cumulative IPC: 0.280087 (Simulation time: 0 hr 57 min 25 sec) 
Heartbeat CPU 0 instructions: 88000000 cycles: 165390228 heartbeat IPC: 0.282264 cumulative IPC: 0.280144 (Simulation time: 0 hr 58 min 5 sec) 
Heartbeat CPU 0 instructions: 89000003 cycles: 168929079 heartbeat IPC: 0.282578 cumulative IPC: 0.280205 (Simulation time: 0 hr 58 min 46 sec) 
Heartbeat CPU 0 instructions: 90000000 cycles: 172468156 heartbeat IPC: 0.282559 cumulative IPC: 0.280264 (Simulation time: 0 hr 59 min 29 sec) 
Heartbeat CPU 0 instructions: 91000000 cycles: 175995486 heartbeat IPC: 0.283501 cumulative IPC: 0.280342 (Simulation time: 1 hr 0 min 10 sec) 
Heartbeat CPU 0 instructions: 92000000 cycles: 179507049 heartbeat IPC: 0.284773 cumulative IPC: 0.280446 (Simulation time: 1 hr 0 min 56 sec) 
Heartbeat CPU 0 instructions: 93000001 cycles: 183022531 heartbeat IPC: 0.284456 cumulative IPC: 0.280538 (Simulation time: 1 hr 1 min 37 sec) 
Heartbeat CPU 0 instructions: 94000003 cycles: 186528236 heartbeat IPC: 0.28525 cumulative IPC: 0.280643 (Simulation time: 1 hr 2 min 19 sec) 
Heartbeat CPU 0 instructions: 95000002 cycles: 190040926 heartbeat IPC: 0.284682 cumulative IPC: 0.280732 (Simulation time: 1 hr 3 min 6 sec) 
Heartbeat CPU 0 instructions: 96000000 cycles: 193535496 heartbeat IPC: 0.286158 cumulative IPC: 0.280847 (Simulation time: 1 hr 3 min 52 sec) 
Heartbeat CPU 0 instructions: 97000000 cycles: 197026446 heartbeat IPC: 0.286455 cumulative IPC: 0.280964 (Simulation time: 1 hr 4 min 41 sec) 
Heartbeat CPU 0 instructions: 98000000 cycles: 200510803 heartbeat IPC: 0.286997 cumulative IPC: 0.281088 (Simulation time: 1 hr 5 min 32 sec) 
Heartbeat CPU 0 instructions: 99000000 cycles: 204014890 heartbeat IPC: 0.285381 cumulative IPC: 0.281174 (Simulation time: 1 hr 6 min 22 sec) 
Heartbeat CPU 0 instructions: 100000000 cycles: 207548775 heartbeat IPC: 0.282975 cumulative IPC: 0.28121 (Simulation time: 1 hr 7 min 10 sec) 
Heartbeat CPU 0 instructions: 101000003 cycles: 211059446 heartbeat IPC: 0.284847 cumulative IPC: 0.28128 (Simulation time: 1 hr 7 min 50 sec) 
Heartbeat CPU 0 instructions: 102000000 cycles: 214871013 heartbeat IPC: 0.262358 cumulative IPC: 0.28089 (Simulation time: 1 hr 8 min 27 sec) 
Heartbeat CPU 0 instructions: 103000002 cycles: 219028592 heartbeat IPC: 0.240525 cumulative IPC: 0.280004 (Simulation time: 1 hr 9 min 10 sec) 
Heartbeat CPU 0 instructions: 104000000 cycles: 223129967 heartbeat IPC: 0.24382 cumulative IPC: 0.279236 (Simulation time: 1 hr 9 min 52 sec) 
Heartbeat CPU 0 instructions: 105000000 cycles: 227024736 heartbeat IPC: 0.256755 cumulative IPC: 0.278793 (Simulation time: 1 hr 10 min 32 sec) 
Heartbeat CPU 0 instructions: 106000002 cycles: 230883804 heartbeat IPC: 0.25913 cumulative IPC: 0.278415 (Simulation time: 1 hr 11 min 16 sec) 
Heartbeat CPU 0 instructions: 107000001 cycles: 234798098 heartbeat IPC: 0.255474 cumulative IPC: 0.277977 (Simulation time: 1 hr 11 min 51 sec) 
Heartbeat CPU 0 instructions: 108000000 cycles: 238605104 heartbeat IPC: 0.262673 cumulative IPC: 0.277698 (Simulation time: 1 hr 12 min 29 sec) 
Heartbeat CPU 0 instructions: 109000000 cycles: 242328950 heartbeat IPC: 0.26854 cumulative IPC: 0.277538 (Simulation time: 1 hr 13 min 4 sec) 
Heartbeat CPU 0 instructions: 110000002 cycles: 246026971 heartbeat IPC: 0.270415 cumulative IPC: 0.277416 (Simulation time: 1 hr 13 min 39 sec) 
Heartbeat CPU 0 instructions: 111000000 cycles: 249707331 heartbeat IPC: 0.271712 cumulative IPC: 0.277321 (Simulation time: 1 hr 14 min 20 sec) 
Heartbeat CPU 0 instructions: 112000000 cycles: 253391188 heartbeat IPC: 0.271455 cumulative IPC: 0.277224 (Simulation time: 1 hr 14 min 57 sec) 
Heartbeat CPU 0 instructions: 113000001 cycles: 257091671 heartbeat IPC: 0.270235 cumulative IPC: 0.27711 (Simulation time: 1 hr 15 min 31 sec) 
Heartbeat CPU 0 instructions: 114000000 cycles: 260773519 heartbeat IPC: 0.271602 cumulative IPC: 0.277023 (Simulation time: 1 hr 16 min 7 sec) 
Heartbeat CPU 0 instructions: 115000003 cycles: 264340837 heartbeat IPC: 0.280323 cumulative IPC: 0.277073 (Simulation time: 1 hr 16 min 39 sec) 
Heartbeat CPU 0 instructions: 116000000 cycles: 267869095 heartbeat IPC: 0.283425 cumulative IPC: 0.277167 (Simulation time: 1 hr 17 min 10 sec) 
Heartbeat CPU 0 instructions: 117000001 cycles: 271385133 heartbeat IPC: 0.284411 cumulative IPC: 0.277272 (Simulation time: 1 hr 17 min 41 sec) 
Heartbeat CPU 0 instructions: 118000000 cycles: 274903714 heartbeat IPC: 0.284205 cumulative IPC: 0.277372 (Simulation time: 1 hr 18 min 10 sec) 
Heartbeat CPU 0 instructions: 119000001 cycles: 278610022 heartbeat IPC: 0.269811 cumulative IPC: 0.277259 (Simulation time: 1 hr 18 min 37 sec) 
Heartbeat CPU 0 instructions: 120000000 cycles: 283566429 heartbeat IPC: 0.201759 cumulative IPC: 0.275785 (Simulation time: 1 hr 19 min 9 sec) 
Heartbeat CPU 0 instructions: 121000001 cycles: 289503943 heartbeat IPC: 0.168421 cumulative IPC: 0.273331 (Simulation time: 1 hr 19 min 44 sec) 
Heartbeat CPU 0 instructions: 122000000 cycles: 295146241 heartbeat IPC: 0.177233 cumulative IPC: 0.271288 (Simulation time: 1 hr 20 min 20 sec) 
Heartbeat CPU 0 instructions: 123000001 cycles: 300775726 heartbeat IPC: 0.177636 cumulative IPC: 0.269343 (Simulation time: 1 hr 20 min 52 sec) 
Heartbeat CPU 0 instructions: 124000000 cycles: 306324971 heartbeat IPC: 0.180205 cumulative IPC: 0.267554 (Simulation time: 1 hr 21 min 23 sec) 
Heartbeat CPU 0 instructions: 125000000 cycles: 311779811 heartbeat IPC: 0.183323 cumulative IPC: 0.265925 (Simulation time: 1 hr 21 min 57 sec) 
Heartbeat CPU 0 instructions: 126000000 cycles: 317230988 heartbeat IPC: 0.183447 cumulative IPC: 0.264361 (Simulation time: 1 hr 22 min 25 sec) 
Heartbeat CPU 0 instructions: 127000003 cycles: 322684596 heartbeat IPC: 0.183365 cumulative IPC: 0.262853 (Simulation time: 1 hr 22 min 52 sec) 
Heartbeat CPU 0 instructions: 128000000 cycles: 328031646 heartbeat IPC: 0.187018 cumulative IPC: 0.261494 (Simulation time: 1 hr 23 min 21 sec) 
Heartbeat CPU 0 instructions: 129000002 cycles: 333242456 heartbeat IPC: 0.191909 cumulative IPC: 0.260299 (Simulation time: 1 hr 23 min 49 sec) 
Heartbeat CPU 0 instructions: 130000000 cycles: 338424512 heartbeat IPC: 0.192973 cumulative IPC: 0.259169 (Simulation time: 1 hr 24 min 15 sec) 
Heartbeat CPU 0 instructions: 131000001 cycles: 343797568 heartbeat IPC: 0.186114 cumulative IPC: 0.257919 (Simulation time: 1 hr 24 min 44 sec) 
Heartbeat CPU 0 instructions: 132000000 cycles: 349145165 heartbeat IPC: 0.187 cumulative IPC: 0.256732 (Simulation time: 1 hr 25 min 9 sec) 
Heartbeat CPU 0 instructions: 133000001 cycles: 354700686 heartbeat IPC: 0.180001 cumulative IPC: 0.25542 (Simulation time: 1 hr 25 min 34 sec) 
Heartbeat CPU 0 instructions: 134000002 cycles: 359900603 heartbeat IPC: 0.192311 cumulative IPC: 0.254426 (Simulation time: 1 hr 25 min 56 sec) 
Heartbeat CPU 0 instructions: 135000000 cycles: 365027669 heartbeat IPC: 0.195043 cumulative IPC: 0.253518 (Simulation time: 1 hr 26 min 18 sec) 
Heartbeat CPU 0 instructions: 136000000 cycles: 370201336 heartbeat IPC: 0.193287 cumulative IPC: 0.252603 (Simulation time: 1 hr 26 min 38 sec) 
Heartbeat CPU 0 instructions: 137000001 cycles: 375271406 heartbeat IPC: 0.197236 cumulative IPC: 0.25179 (Simulation time: 1 hr 26 min 57 sec) 
Heartbeat CPU 0 instructions: 138000002 cycles: 380234581 heartbeat IPC: 0.201484 cumulative IPC: 0.251078 (Simulation time: 1 hr 27 min 17 sec) 
Heartbeat CPU 0 instructions: 139000000 cycles: 385205055 heartbeat IPC: 0.201188 cumulative IPC: 0.25038 (Simulation time: 1 hr 27 min 35 sec) 
Heartbeat CPU 0 instructions: 140000000 cycles: 390167095 heartbeat IPC: 0.20153 cumulative IPC: 0.249708 (Simulation time: 1 hr 27 min 54 sec) 
Heartbeat CPU 0 instructions: 141000000 cycles: 395127345 heartbeat IPC: 0.201603 cumulative IPC: 0.249055 (Simulation time: 1 hr 28 min 12 sec) 
Heartbeat CPU 0 instructions: 142000000 cycles: 400035258 heartbeat IPC: 0.203753 cumulative IPC: 0.248454 (Simulation time: 1 hr 28 min 31 sec) 
Heartbeat CPU 0 instructions: 143000000 cycles: 404911540 heartbeat IPC: 0.205074 cumulative IPC: 0.24789 (Simulation time: 1 hr 28 min 50 sec) 
Heartbeat CPU 0 instructions: 144000000 cycles: 409781688 heartbeat IPC: 0.205333 cumulative IPC: 0.247345 (Simulation time: 1 hr 29 min 7 sec) 
Heartbeat CPU 0 instructions: 145000000 cycles: 414631455 heartbeat IPC: 0.206195 cumulative IPC: 0.246826 (Simulation time: 1 hr 29 min 23 sec) 
Heartbeat CPU 0 instructions: 146000000 cycles: 419560204 heartbeat IPC: 0.202891 cumulative IPC: 0.246271 (Simulation time: 1 hr 29 min 39 sec) 
Heartbeat CPU 0 instructions: 147000000 cycles: 423178314 heartbeat IPC: 0.276387 cumulative IPC: 0.246548 (Simulation time: 1 hr 29 min 53 sec) 
Heartbeat CPU 0 instructions: 148000000 cycles: 428301031 heartbeat IPC: 0.195209 cumulative IPC: 0.245888 (Simulation time: 1 hr 30 min 5 sec) 
Heartbeat CPU 0 instructions: 149000003 cycles: 433203983 heartbeat IPC: 0.203959 cumulative IPC: 0.245378 (Simulation time: 1 hr 30 min 16 sec) 
Heartbeat CPU 0 instructions: 150000001 cycles: 437557230 heartbeat IPC: 0.229713 cumulative IPC: 0.245211 (Simulation time: 1 hr 30 min 24 sec) 
Finished CPU 0 instructions: 100000002 cycles: 407811725 cummulative IPC: 0.245211 (Simulation time: 1 hr 30 min 24 sec) 

ChampSim completed all CPUs

Region of Interest Statistics

CPU 0 cummulative IPC: 0.245211 instructions: 100000002 cycles: 407811725
LLC TOTAL     ACCESS:    1690045  HIT:     142026  MISS:    1548019
LLC LOAD      ACCESS:     565226  HIT:      31852  MISS:     533374
LLC RFO       ACCESS:      88719  HIT:        638  MISS:      88081
LLC PREFETCH  ACCESS:     720298  HIT:      42878  MISS:     677420
LLC WRITEBACK ACCESS:     315802  HIT:      66658  MISS:     249144
OPTgen accesses: 23986
OPTgen hits: 3087
OPTgen hit rate: 12.87


