
*** ChampSim Multicore Out-of-Order Simulator ***

Warmup Instructions: 50000000
Simulation Instructions: 100000000
Configuration: 2
Number of CPUs: 1
LLC sets: 2048
LLC ways: 16
Off-chip DRAM Channels: 1 Width: 64-bit Data Rate: 1600 MT/s

CPU 0 runs /datasets/cs240c-wi22-a00-public/data/Assignment2-gz/sphinx3_2520B.trace.gz
CPU 0 L1D next line prefetcher
CPU 0 L2C IP-based stride prefetcher
Initialize Hawkeye state
Heartbeat CPU 0 instructions: 1000003 cycles: 338965 heartbeat IPC: 2.95017 cumulative IPC: 2.95017 (Simulation time: 0 hr 0 min 30 sec) 
Heartbeat CPU 0 instructions: 2000000 cycles: 737242 heartbeat IPC: 2.51081 cumulative IPC: 2.71281 (Simulation time: 0 hr 1 min 0 sec) 
Heartbeat CPU 0 instructions: 3000003 cycles: 1185235 heartbeat IPC: 2.23218 cumulative IPC: 2.53115 (Simulation time: 0 hr 1 min 30 sec) 
Heartbeat CPU 0 instructions: 4000000 cycles: 1524260 heartbeat IPC: 2.94963 cumulative IPC: 2.62422 (Simulation time: 0 hr 1 min 57 sec) 
Heartbeat CPU 0 instructions: 5000001 cycles: 1902379 heartbeat IPC: 2.64467 cumulative IPC: 2.62829 (Simulation time: 0 hr 2 min 31 sec) 
Heartbeat CPU 0 instructions: 6000001 cycles: 2367816 heartbeat IPC: 2.14852 cumulative IPC: 2.53398 (Simulation time: 0 hr 3 min 1 sec) 
Heartbeat CPU 0 instructions: 7000001 cycles: 2706760 heartbeat IPC: 2.95034 cumulative IPC: 2.58612 (Simulation time: 0 hr 3 min 33 sec) 
Heartbeat CPU 0 instructions: 8000000 cycles: 3055767 heartbeat IPC: 2.86527 cumulative IPC: 2.618 (Simulation time: 0 hr 4 min 7 sec) 
Heartbeat CPU 0 instructions: 9000000 cycles: 3509143 heartbeat IPC: 2.20567 cumulative IPC: 2.56473 (Simulation time: 0 hr 4 min 38 sec) 
Heartbeat CPU 0 instructions: 10000000 cycles: 3859310 heartbeat IPC: 2.85578 cumulative IPC: 2.59114 (Simulation time: 0 hr 5 min 7 sec) 
Heartbeat CPU 0 instructions: 11000003 cycles: 4204070 heartbeat IPC: 2.90058 cumulative IPC: 2.61651 (Simulation time: 0 hr 5 min 38 sec) 
Heartbeat CPU 0 instructions: 12000000 cycles: 4648630 heartbeat IPC: 2.24941 cumulative IPC: 2.58141 (Simulation time: 0 hr 6 min 5 sec) 
Heartbeat CPU 0 instructions: 13000000 cycles: 5008229 heartbeat IPC: 2.78088 cumulative IPC: 2.59573 (Simulation time: 0 hr 6 min 30 sec) 
Heartbeat CPU 0 instructions: 14000002 cycles: 5350931 heartbeat IPC: 2.91799 cumulative IPC: 2.61637 (Simulation time: 0 hr 6 min 57 sec) 
Heartbeat CPU 0 instructions: 15000003 cycles: 5790197 heartbeat IPC: 2.27653 cumulative IPC: 2.59059 (Simulation time: 0 hr 7 min 26 sec) 
Heartbeat CPU 0 instructions: 16000000 cycles: 6157051 heartbeat IPC: 2.72587 cumulative IPC: 2.59865 (Simulation time: 0 hr 7 min 55 sec) 
Heartbeat CPU 0 instructions: 17000000 cycles: 6498462 heartbeat IPC: 2.92902 cumulative IPC: 2.616 (Simulation time: 0 hr 8 min 21 sec) 
Heartbeat CPU 0 instructions: 18000002 cycles: 6932717 heartbeat IPC: 2.3028 cumulative IPC: 2.59639 (Simulation time: 0 hr 8 min 51 sec) 
Heartbeat CPU 0 instructions: 19000000 cycles: 7304045 heartbeat IPC: 2.69303 cumulative IPC: 2.6013 (Simulation time: 0 hr 9 min 18 sec) 
Heartbeat CPU 0 instructions: 20000000 cycles: 7645220 heartbeat IPC: 2.93105 cumulative IPC: 2.61601 (Simulation time: 0 hr 9 min 46 sec) 
Heartbeat CPU 0 instructions: 21000001 cycles: 8089533 heartbeat IPC: 2.25067 cumulative IPC: 2.59595 (Simulation time: 0 hr 10 min 19 sec) 
Heartbeat CPU 0 instructions: 22000002 cycles: 8503602 heartbeat IPC: 2.41506 cumulative IPC: 2.58714 (Simulation time: 0 hr 10 min 49 sec) 
Heartbeat CPU 0 instructions: 23000001 cycles: 8942598 heartbeat IPC: 2.27792 cumulative IPC: 2.57196 (Simulation time: 0 hr 11 min 20 sec) 
Heartbeat CPU 0 instructions: 24000000 cycles: 9281619 heartbeat IPC: 2.94967 cumulative IPC: 2.58576 (Simulation time: 0 hr 11 min 52 sec) 
Heartbeat CPU 0 instructions: 25000003 cycles: 9668258 heartbeat IPC: 2.5864 cumulative IPC: 2.58578 (Simulation time: 0 hr 12 min 28 sec) 
Heartbeat CPU 0 instructions: 26000001 cycles: 10085105 heartbeat IPC: 2.39896 cumulative IPC: 2.57806 (Simulation time: 0 hr 13 min 2 sec) 
Heartbeat CPU 0 instructions: 27000003 cycles: 10424079 heartbeat IPC: 2.95008 cumulative IPC: 2.59016 (Simulation time: 0 hr 13 min 37 sec) 
Heartbeat CPU 0 instructions: 28000000 cycles: 10827312 heartbeat IPC: 2.47995 cumulative IPC: 2.58605 (Simulation time: 0 hr 14 min 11 sec) 
Heartbeat CPU 0 instructions: 29000002 cycles: 11227841 heartbeat IPC: 2.4967 cumulative IPC: 2.58287 (Simulation time: 0 hr 14 min 41 sec) 
Heartbeat CPU 0 instructions: 30000002 cycles: 11566779 heartbeat IPC: 2.95039 cumulative IPC: 2.59363 (Simulation time: 0 hr 15 min 11 sec) 
Heartbeat CPU 0 instructions: 31000000 cycles: 11987976 heartbeat IPC: 2.37418 cumulative IPC: 2.58592 (Simulation time: 0 hr 15 min 44 sec) 
Heartbeat CPU 0 instructions: 32000000 cycles: 12369323 heartbeat IPC: 2.62228 cumulative IPC: 2.58705 (Simulation time: 0 hr 16 min 13 sec) 
Heartbeat CPU 0 instructions: 33000002 cycles: 12710079 heartbeat IPC: 2.93466 cumulative IPC: 2.59636 (Simulation time: 0 hr 16 min 44 sec) 
Heartbeat CPU 0 instructions: 34000000 cycles: 13149766 heartbeat IPC: 2.27434 cumulative IPC: 2.5856 (Simulation time: 0 hr 17 min 18 sec) 
Heartbeat CPU 0 instructions: 35000001 cycles: 13511045 heartbeat IPC: 2.76795 cumulative IPC: 2.59047 (Simulation time: 0 hr 17 min 50 sec) 
Heartbeat CPU 0 instructions: 36000000 cycles: 13853380 heartbeat IPC: 2.92111 cumulative IPC: 2.59864 (Simulation time: 0 hr 18 min 24 sec) 
Heartbeat CPU 0 instructions: 37000000 cycles: 14312870 heartbeat IPC: 2.17633 cumulative IPC: 2.58509 (Simulation time: 0 hr 18 min 54 sec) 
Heartbeat CPU 0 instructions: 38000000 cycles: 14653179 heartbeat IPC: 2.93851 cumulative IPC: 2.59329 (Simulation time: 0 hr 19 min 26 sec) 
Heartbeat CPU 0 instructions: 39000003 cycles: 14999498 heartbeat IPC: 2.88752 cumulative IPC: 2.60009 (Simulation time: 0 hr 19 min 59 sec) 
Heartbeat CPU 0 instructions: 40000000 cycles: 15458249 heartbeat IPC: 2.17983 cumulative IPC: 2.58762 (Simulation time: 0 hr 20 min 30 sec) 
Heartbeat CPU 0 instructions: 41000001 cycles: 15797285 heartbeat IPC: 2.94954 cumulative IPC: 2.59538 (Simulation time: 0 hr 21 min 1 sec) 
Heartbeat CPU 0 instructions: 42000003 cycles: 16145231 heartbeat IPC: 2.87401 cumulative IPC: 2.60139 (Simulation time: 0 hr 21 min 33 sec) 
Heartbeat CPU 0 instructions: 43000001 cycles: 16601572 heartbeat IPC: 2.19134 cumulative IPC: 2.59012 (Simulation time: 0 hr 22 min 6 sec) 
Heartbeat CPU 0 instructions: 44000000 cycles: 16940441 heartbeat IPC: 2.95099 cumulative IPC: 2.59733 (Simulation time: 0 hr 22 min 37 sec) 
Heartbeat CPU 0 instructions: 45000001 cycles: 17287520 heartbeat IPC: 2.88119 cumulative IPC: 2.60303 (Simulation time: 0 hr 23 min 9 sec) 
Heartbeat CPU 0 instructions: 46000000 cycles: 17745198 heartbeat IPC: 2.18494 cumulative IPC: 2.59225 (Simulation time: 0 hr 23 min 40 sec) 
Heartbeat CPU 0 instructions: 47000003 cycles: 18084183 heartbeat IPC: 2.94999 cumulative IPC: 2.59896 (Simulation time: 0 hr 24 min 11 sec) 
Heartbeat CPU 0 instructions: 48000000 cycles: 18432707 heartbeat IPC: 2.86923 cumulative IPC: 2.60407 (Simulation time: 0 hr 24 min 42 sec) 
Heartbeat CPU 0 instructions: 49000002 cycles: 18887527 heartbeat IPC: 2.19868 cumulative IPC: 2.5943 (Simulation time: 0 hr 25 min 13 sec) 
Heartbeat CPU 0 instructions: 50000001 cycles: 19226509 heartbeat IPC: 2.95001 cumulative IPC: 2.60058 (Simulation time: 0 hr 25 min 45 sec) 

Warmup complete CPU 0 instructions: 50000001 cycles: 19226509 (Simulation time: 0 hr 25 min 45 sec) 

Heartbeat CPU 0 instructions: 51000001 cycles: 20048711 heartbeat IPC: 1.21625 cumulative IPC: 1.21625 (Simulation time: 0 hr 26 min 21 sec) 
Heartbeat CPU 0 instructions: 52000000 cycles: 20881452 heartbeat IPC: 1.20085 cumulative IPC: 1.2085 (Simulation time: 0 hr 26 min 54 sec) 
Heartbeat CPU 0 instructions: 53000001 cycles: 21711833 heartbeat IPC: 1.20427 cumulative IPC: 1.20709 (Simulation time: 0 hr 27 min 31 sec) 
Heartbeat CPU 0 instructions: 54000001 cycles: 22515715 heartbeat IPC: 1.24396 cumulative IPC: 1.2161 (Simulation time: 0 hr 28 min 5 sec) 
Heartbeat CPU 0 instructions: 55000000 cycles: 23326980 heartbeat IPC: 1.23264 cumulative IPC: 1.21937 (Simulation time: 0 hr 28 min 41 sec) 
Heartbeat CPU 0 instructions: 56000000 cycles: 24142119 heartbeat IPC: 1.22678 cumulative IPC: 1.2206 (Simulation time: 0 hr 29 min 17 sec) 
Heartbeat CPU 0 instructions: 57000000 cycles: 25038462 heartbeat IPC: 1.11564 cumulative IPC: 1.20441 (Simulation time: 0 hr 29 min 54 sec) 
Heartbeat CPU 0 instructions: 58000002 cycles: 26166860 heartbeat IPC: 0.886214 cumulative IPC: 1.15268 (Simulation time: 0 hr 30 min 30 sec) 
Heartbeat CPU 0 instructions: 59000001 cycles: 27023229 heartbeat IPC: 1.16772 cumulative IPC: 1.15433 (Simulation time: 0 hr 31 min 6 sec) 
Heartbeat CPU 0 instructions: 60000000 cycles: 27839310 heartbeat IPC: 1.22537 cumulative IPC: 1.16106 (Simulation time: 0 hr 31 min 41 sec) 
Heartbeat CPU 0 instructions: 61000001 cycles: 28609417 heartbeat IPC: 1.29852 cumulative IPC: 1.17234 (Simulation time: 0 hr 32 min 17 sec) 
Heartbeat CPU 0 instructions: 62000000 cycles: 29435987 heartbeat IPC: 1.20982 cumulative IPC: 1.17538 (Simulation time: 0 hr 32 min 52 sec) 
Heartbeat CPU 0 instructions: 63000002 cycles: 30124876 heartbeat IPC: 1.45162 cumulative IPC: 1.19284 (Simulation time: 0 hr 33 min 27 sec) 
Heartbeat CPU 0 instructions: 64000000 cycles: 30877654 heartbeat IPC: 1.32841 cumulative IPC: 1.2016 (Simulation time: 0 hr 34 min 1 sec) 
Heartbeat CPU 0 instructions: 65000001 cycles: 31677937 heartbeat IPC: 1.24956 cumulative IPC: 1.20468 (Simulation time: 0 hr 34 min 36 sec) 
Heartbeat CPU 0 instructions: 66000000 cycles: 32361867 heartbeat IPC: 1.46214 cumulative IPC: 1.21809 (Simulation time: 0 hr 35 min 9 sec) 
Heartbeat CPU 0 instructions: 67000000 cycles: 33159670 heartbeat IPC: 1.25344 cumulative IPC: 1.22011 (Simulation time: 0 hr 35 min 45 sec) 
Heartbeat CPU 0 instructions: 68000000 cycles: 33950691 heartbeat IPC: 1.26419 cumulative IPC: 1.22248 (Simulation time: 0 hr 36 min 17 sec) 
Heartbeat CPU 0 instructions: 69000003 cycles: 34641034 heartbeat IPC: 1.44856 cumulative IPC: 1.2326 (Simulation time: 0 hr 36 min 50 sec) 
Heartbeat CPU 0 instructions: 70000000 cycles: 35444033 heartbeat IPC: 1.24533 cumulative IPC: 1.23323 (Simulation time: 0 hr 37 min 24 sec) 
Heartbeat CPU 0 instructions: 71000000 cycles: 36230289 heartbeat IPC: 1.27185 cumulative IPC: 1.23502 (Simulation time: 0 hr 37 min 57 sec) 
Heartbeat CPU 0 instructions: 72000000 cycles: 36920149 heartbeat IPC: 1.44957 cumulative IPC: 1.24338 (Simulation time: 0 hr 38 min 33 sec) 
Heartbeat CPU 0 instructions: 73000003 cycles: 37725194 heartbeat IPC: 1.24217 cumulative IPC: 1.24333 (Simulation time: 0 hr 39 min 5 sec) 
Heartbeat CPU 0 instructions: 74000003 cycles: 38491933 heartbeat IPC: 1.30422 cumulative IPC: 1.24576 (Simulation time: 0 hr 39 min 42 sec) 
Heartbeat CPU 0 instructions: 75000003 cycles: 39182798 heartbeat IPC: 1.44746 cumulative IPC: 1.25274 (Simulation time: 0 hr 40 min 15 sec) 
Heartbeat CPU 0 instructions: 76000000 cycles: 39997919 heartbeat IPC: 1.22681 cumulative IPC: 1.25172 (Simulation time: 0 hr 40 min 48 sec) 
Heartbeat CPU 0 instructions: 77000003 cycles: 40767150 heartbeat IPC: 1.3 cumulative IPC: 1.25344 (Simulation time: 0 hr 41 min 26 sec) 
Heartbeat CPU 0 instructions: 78000003 cycles: 41455621 heartbeat IPC: 1.45249 cumulative IPC: 1.25961 (Simulation time: 0 hr 41 min 58 sec) 
Heartbeat CPU 0 instructions: 79000000 cycles: 42279694 heartbeat IPC: 1.21348 cumulative IPC: 1.25796 (Simulation time: 0 hr 42 min 34 sec) 
Heartbeat CPU 0 instructions: 80000000 cycles: 43036907 heartbeat IPC: 1.32063 cumulative IPC: 1.25995 (Simulation time: 0 hr 43 min 10 sec) 
Heartbeat CPU 0 instructions: 81000001 cycles: 43724175 heartbeat IPC: 1.45504 cumulative IPC: 1.26543 (Simulation time: 0 hr 43 min 45 sec) 
Heartbeat CPU 0 instructions: 82000002 cycles: 44565435 heartbeat IPC: 1.18869 cumulative IPC: 1.26288 (Simulation time: 0 hr 44 min 20 sec) 
Heartbeat CPU 0 instructions: 83000003 cycles: 45310376 heartbeat IPC: 1.34239 cumulative IPC: 1.26515 (Simulation time: 0 hr 44 min 56 sec) 
Heartbeat CPU 0 instructions: 84000000 cycles: 46003510 heartbeat IPC: 1.44272 cumulative IPC: 1.26975 (Simulation time: 0 hr 45 min 30 sec) 
Heartbeat CPU 0 instructions: 85000001 cycles: 46852919 heartbeat IPC: 1.17729 cumulative IPC: 1.2669 (Simulation time: 0 hr 46 min 5 sec) 
Heartbeat CPU 0 instructions: 86000000 cycles: 47554770 heartbeat IPC: 1.4248 cumulative IPC: 1.27082 (Simulation time: 0 hr 46 min 40 sec) 
Heartbeat CPU 0 instructions: 87000003 cycles: 48242541 heartbeat IPC: 1.45398 cumulative IPC: 1.27516 (Simulation time: 0 hr 47 min 14 sec) 
Heartbeat CPU 0 instructions: 88000000 cycles: 49097000 heartbeat IPC: 1.17033 cumulative IPC: 1.27216 (Simulation time: 0 hr 47 min 51 sec) 
Heartbeat CPU 0 instructions: 89000002 cycles: 49787954 heartbeat IPC: 1.44728 cumulative IPC: 1.27612 (Simulation time: 0 hr 48 min 25 sec) 
Heartbeat CPU 0 instructions: 90000001 cycles: 50475065 heartbeat IPC: 1.45537 cumulative IPC: 1.28006 (Simulation time: 0 hr 49 min 2 sec) 
Heartbeat CPU 0 instructions: 91000001 cycles: 51336508 heartbeat IPC: 1.16084 cumulative IPC: 1.27686 (Simulation time: 0 hr 49 min 37 sec) 
Heartbeat CPU 0 instructions: 92000000 cycles: 52026874 heartbeat IPC: 1.44851 cumulative IPC: 1.28047 (Simulation time: 0 hr 50 min 11 sec) 
Heartbeat CPU 0 instructions: 93000002 cycles: 52710391 heartbeat IPC: 1.46302 cumulative IPC: 1.2842 (Simulation time: 0 hr 50 min 46 sec) 
Heartbeat CPU 0 instructions: 94000000 cycles: 53588599 heartbeat IPC: 1.13868 cumulative IPC: 1.28048 (Simulation time: 0 hr 51 min 21 sec) 
Heartbeat CPU 0 instructions: 95000000 cycles: 54270216 heartbeat IPC: 1.4671 cumulative IPC: 1.28411 (Simulation time: 0 hr 51 min 58 sec) 
Heartbeat CPU 0 instructions: 96000000 cycles: 54989531 heartbeat IPC: 1.39021 cumulative IPC: 1.28624 (Simulation time: 0 hr 52 min 32 sec) 
Heartbeat CPU 0 instructions: 97000002 cycles: 56184612 heartbeat IPC: 0.836765 cumulative IPC: 1.27171 (Simulation time: 0 hr 53 min 8 sec) 
Heartbeat CPU 0 instructions: 98000003 cycles: 57184330 heartbeat IPC: 1.00028 cumulative IPC: 1.26456 (Simulation time: 0 hr 53 min 41 sec) 
Heartbeat CPU 0 instructions: 99000001 cycles: 57911835 heartbeat IPC: 1.37456 cumulative IPC: 1.26663 (Simulation time: 0 hr 54 min 16 sec) 
Heartbeat CPU 0 instructions: 100000000 cycles: 58617922 heartbeat IPC: 1.41625 cumulative IPC: 1.26931 (Simulation time: 0 hr 54 min 50 sec) 
Heartbeat CPU 0 instructions: 101000001 cycles: 60060635 heartbeat IPC: 0.693139 cumulative IPC: 1.24896 (Simulation time: 0 hr 55 min 30 sec) 
Heartbeat CPU 0 instructions: 102000002 cycles: 60895670 heartbeat IPC: 1.19756 cumulative IPC: 1.24793 (Simulation time: 0 hr 56 min 5 sec) 
Heartbeat CPU 0 instructions: 103000001 cycles: 61667233 heartbeat IPC: 1.29607 cumulative IPC: 1.2488 (Simulation time: 0 hr 56 min 39 sec) 
Heartbeat CPU 0 instructions: 104000000 cycles: 62993129 heartbeat IPC: 0.754206 cumulative IPC: 1.23382 (Simulation time: 0 hr 57 min 16 sec) 
Heartbeat CPU 0 instructions: 105000002 cycles: 63886397 heartbeat IPC: 1.11949 cumulative IPC: 1.23153 (Simulation time: 0 hr 57 min 48 sec) 
Heartbeat CPU 0 instructions: 106000000 cycles: 64632634 heartbeat IPC: 1.34005 cumulative IPC: 1.23331 (Simulation time: 0 hr 58 min 21 sec) 
Heartbeat CPU 0 instructions: 107000001 cycles: 65758735 heartbeat IPC: 0.888021 cumulative IPC: 1.22496 (Simulation time: 0 hr 58 min 57 sec) 
Heartbeat CPU 0 instructions: 108000000 cycles: 66839488 heartbeat IPC: 0.92528 cumulative IPC: 1.21816 (Simulation time: 0 hr 59 min 32 sec) 
Heartbeat CPU 0 instructions: 109000003 cycles: 67598613 heartbeat IPC: 1.31731 cumulative IPC: 1.21971 (Simulation time: 1 hr 0 min 7 sec) 
Heartbeat CPU 0 instructions: 110000000 cycles: 68443283 heartbeat IPC: 1.18389 cumulative IPC: 1.2191 (Simulation time: 1 hr 0 min 41 sec) 
Heartbeat CPU 0 instructions: 111000001 cycles: 69780533 heartbeat IPC: 0.747804 cumulative IPC: 1.20663 (Simulation time: 1 hr 1 min 18 sec) 
Heartbeat CPU 0 instructions: 112000000 cycles: 70604821 heartbeat IPC: 1.21317 cumulative IPC: 1.20673 (Simulation time: 1 hr 1 min 53 sec) 
Heartbeat CPU 0 instructions: 113000000 cycles: 71359139 heartbeat IPC: 1.3257 cumulative IPC: 1.20846 (Simulation time: 1 hr 2 min 27 sec) 
Heartbeat CPU 0 instructions: 114000000 cycles: 72719708 heartbeat IPC: 0.734987 cumulative IPC: 1.19641 (Simulation time: 1 hr 3 min 5 sec) 
Heartbeat CPU 0 instructions: 115000000 cycles: 73598974 heartbeat IPC: 1.13731 cumulative IPC: 1.19546 (Simulation time: 1 hr 3 min 40 sec) 
Heartbeat CPU 0 instructions: 116000000 cycles: 74346316 heartbeat IPC: 1.33808 cumulative IPC: 1.19739 (Simulation time: 1 hr 4 min 15 sec) 
Heartbeat CPU 0 instructions: 117000001 cycles: 75490790 heartbeat IPC: 0.873765 cumulative IPC: 1.19081 (Simulation time: 1 hr 4 min 53 sec) 
Heartbeat CPU 0 instructions: 118000001 cycles: 76592088 heartbeat IPC: 0.908019 cumulative IPC: 1.18538 (Simulation time: 1 hr 5 min 31 sec) 
Heartbeat CPU 0 instructions: 119000001 cycles: 77342040 heartbeat IPC: 1.33342 cumulative IPC: 1.18729 (Simulation time: 1 hr 6 min 6 sec) 
Heartbeat CPU 0 instructions: 120000000 cycles: 78178927 heartbeat IPC: 1.1949 cumulative IPC: 1.1874 (Simulation time: 1 hr 6 min 41 sec) 
Heartbeat CPU 0 instructions: 121000003 cycles: 79517151 heartbeat IPC: 0.747261 cumulative IPC: 1.17763 (Simulation time: 1 hr 7 min 18 sec) 
Heartbeat CPU 0 instructions: 122000000 cycles: 80347895 heartbeat IPC: 1.20374 cumulative IPC: 1.17798 (Simulation time: 1 hr 7 min 52 sec) 
Heartbeat CPU 0 instructions: 123000003 cycles: 81096760 heartbeat IPC: 1.33536 cumulative IPC: 1.17989 (Simulation time: 1 hr 8 min 27 sec) 
Heartbeat CPU 0 instructions: 124000000 cycles: 82437008 heartbeat IPC: 0.746128 cumulative IPC: 1.17069 (Simulation time: 1 hr 9 min 5 sec) 
Heartbeat CPU 0 instructions: 125000000 cycles: 83370321 heartbeat IPC: 1.07145 cumulative IPC: 1.16925 (Simulation time: 1 hr 9 min 42 sec) 
Heartbeat CPU 0 instructions: 126000000 cycles: 84098628 heartbeat IPC: 1.37305 cumulative IPC: 1.17154 (Simulation time: 1 hr 10 min 17 sec) 
Heartbeat CPU 0 instructions: 127000000 cycles: 85182161 heartbeat IPC: 0.922907 cumulative IPC: 1.16745 (Simulation time: 1 hr 10 min 55 sec) 
Heartbeat CPU 0 instructions: 128000000 cycles: 86368708 heartbeat IPC: 0.842782 cumulative IPC: 1.16171 (Simulation time: 1 hr 11 min 31 sec) 
Heartbeat CPU 0 instructions: 129000000 cycles: 87111151 heartbeat IPC: 1.3469 cumulative IPC: 1.16374 (Simulation time: 1 hr 12 min 5 sec) 
Heartbeat CPU 0 instructions: 130000000 cycles: 87845276 heartbeat IPC: 1.36217 cumulative IPC: 1.16586 (Simulation time: 1 hr 12 min 39 sec) 
Heartbeat CPU 0 instructions: 131000002 cycles: 89257804 heartbeat IPC: 0.707952 cumulative IPC: 1.15663 (Simulation time: 1 hr 13 min 17 sec) 
Heartbeat CPU 0 instructions: 132000000 cycles: 90093004 heartbeat IPC: 1.19732 cumulative IPC: 1.15711 (Simulation time: 1 hr 13 min 53 sec) 
Heartbeat CPU 0 instructions: 133000000 cycles: 90822219 heartbeat IPC: 1.37134 cumulative IPC: 1.15929 (Simulation time: 1 hr 14 min 28 sec) 
Heartbeat CPU 0 instructions: 134000001 cycles: 92115512 heartbeat IPC: 0.773221 cumulative IPC: 1.15244 (Simulation time: 1 hr 15 min 5 sec) 
Heartbeat CPU 0 instructions: 135000002 cycles: 93086136 heartbeat IPC: 1.03027 cumulative IPC: 1.15083 (Simulation time: 1 hr 15 min 40 sec) 
Heartbeat CPU 0 instructions: 136000000 cycles: 93821485 heartbeat IPC: 1.3599 cumulative IPC: 1.15289 (Simulation time: 1 hr 16 min 16 sec) 
Heartbeat CPU 0 instructions: 137000002 cycles: 94776345 heartbeat IPC: 1.04728 cumulative IPC: 1.15156 (Simulation time: 1 hr 16 min 50 sec) 
Heartbeat CPU 0 instructions: 138000000 cycles: 96233825 heartbeat IPC: 0.686114 cumulative IPC: 1.14275 (Simulation time: 1 hr 17 min 28 sec) 
Heartbeat CPU 0 instructions: 139000000 cycles: 97343930 heartbeat IPC: 0.900816 cumulative IPC: 1.13931 (Simulation time: 1 hr 18 min 2 sec) 
Heartbeat CPU 0 instructions: 140000000 cycles: 98185372 heartbeat IPC: 1.18844 cumulative IPC: 1.13983 (Simulation time: 1 hr 18 min 33 sec) 
Heartbeat CPU 0 instructions: 141000003 cycles: 98939760 heartbeat IPC: 1.32558 cumulative IPC: 1.14159 (Simulation time: 1 hr 19 min 4 sec) 
Heartbeat CPU 0 instructions: 142000000 cycles: 100187059 heartbeat IPC: 0.80173 cumulative IPC: 1.13636 (Simulation time: 1 hr 19 min 41 sec) 
Heartbeat CPU 0 instructions: 143000002 cycles: 101248002 heartbeat IPC: 0.94256 cumulative IPC: 1.13385 (Simulation time: 1 hr 20 min 15 sec) 
Heartbeat CPU 0 instructions: 144000000 cycles: 101984382 heartbeat IPC: 1.35799 cumulative IPC: 1.13584 (Simulation time: 1 hr 20 min 47 sec) 
Heartbeat CPU 0 instructions: 145000000 cycles: 102874002 heartbeat IPC: 1.12408 cumulative IPC: 1.13572 (Simulation time: 1 hr 21 min 19 sec) 
Heartbeat CPU 0 instructions: 146000000 cycles: 104195479 heartbeat IPC: 0.756729 cumulative IPC: 1.12982 (Simulation time: 1 hr 21 min 52 sec) 
Heartbeat CPU 0 instructions: 147000003 cycles: 105008124 heartbeat IPC: 1.23055 cumulative IPC: 1.13078 (Simulation time: 1 hr 22 min 25 sec) 
Heartbeat CPU 0 instructions: 148000000 cycles: 105741421 heartbeat IPC: 1.3637 cumulative IPC: 1.13275 (Simulation time: 1 hr 22 min 56 sec) 
Heartbeat CPU 0 instructions: 149000003 cycles: 107140033 heartbeat IPC: 0.714997 cumulative IPC: 1.12611 (Simulation time: 1 hr 23 min 28 sec) 
Heartbeat CPU 0 instructions: 150000001 cycles: 108044258 heartbeat IPC: 1.10592 cumulative IPC: 1.1259 (Simulation time: 1 hr 23 min 59 sec) 
Finished CPU 0 instructions: 100000000 cycles: 88817749 cummulative IPC: 1.1259 (Simulation time: 1 hr 23 min 59 sec) 

ChampSim completed all CPUs

Region of Interest Statistics

CPU 0 cummulative IPC: 1.1259 instructions: 100000000 cycles: 88817749
LLC TOTAL     ACCESS:    1520201  HIT:     932249  MISS:     587952
LLC LOAD      ACCESS:     160534  HIT:      92447  MISS:      68087
LLC RFO       ACCESS:     118828  HIT:     110020  MISS:       8808
LLC PREFETCH  ACCESS:    1108532  HIT:     597483  MISS:     511049
LLC WRITEBACK ACCESS:     132307  HIT:     132299  MISS:          8
OPTgen accesses: 2749
OPTgen hits: 2454
OPTgen hit rate: 89.2688


