
*** ChampSim Multicore Out-of-Order Simulator ***

Warmup Instructions: 50000000
Simulation Instructions: 100000000
Configuration: 2
Number of CPUs: 1
LLC sets: 2048
LLC ways: 16
Off-chip DRAM Channels: 1 Width: 64-bit Data Rate: 1600 MT/s

CPU 0 runs /datasets/cs240c-wi22-a00-public/data/Assignment2-gz/astar_163B.trace.gz
CPU 0 L1D next line prefetcher
CPU 0 L2C IP-based stride prefetcher
Initialize Hawkeye state
Heartbeat CPU 0 instructions: 1000002 cycles: 531212 heartbeat IPC: 1.88249 cumulative IPC: 1.88249 (Simulation time: 0 hr 0 min 52 sec) 
Heartbeat CPU 0 instructions: 2000003 cycles: 1060827 heartbeat IPC: 1.88817 cumulative IPC: 1.88532 (Simulation time: 0 hr 1 min 52 sec) 
Heartbeat CPU 0 instructions: 3000003 cycles: 1590862 heartbeat IPC: 1.88667 cumulative IPC: 1.88577 (Simulation time: 0 hr 2 min 55 sec) 
Heartbeat CPU 0 instructions: 4000000 cycles: 2120964 heartbeat IPC: 1.88642 cumulative IPC: 1.88593 (Simulation time: 0 hr 3 min 54 sec) 
Heartbeat CPU 0 instructions: 5000000 cycles: 2652877 heartbeat IPC: 1.88001 cumulative IPC: 1.88475 (Simulation time: 0 hr 4 min 58 sec) 
Heartbeat CPU 0 instructions: 6000002 cycles: 3181392 heartbeat IPC: 1.8921 cumulative IPC: 1.88597 (Simulation time: 0 hr 6 min 5 sec) 
Heartbeat CPU 0 instructions: 7000003 cycles: 3710906 heartbeat IPC: 1.88853 cumulative IPC: 1.88633 (Simulation time: 0 hr 7 min 8 sec) 
Heartbeat CPU 0 instructions: 8000000 cycles: 4240191 heartbeat IPC: 1.88934 cumulative IPC: 1.88671 (Simulation time: 0 hr 8 min 11 sec) 
Heartbeat CPU 0 instructions: 9000000 cycles: 4771199 heartbeat IPC: 1.88321 cumulative IPC: 1.88632 (Simulation time: 0 hr 9 min 14 sec) 
Heartbeat CPU 0 instructions: 10000001 cycles: 5301280 heartbeat IPC: 1.88651 cumulative IPC: 1.88634 (Simulation time: 0 hr 10 min 10 sec) 
Heartbeat CPU 0 instructions: 11000003 cycles: 5830319 heartbeat IPC: 1.89022 cumulative IPC: 1.88669 (Simulation time: 0 hr 11 min 13 sec) 
Heartbeat CPU 0 instructions: 12000000 cycles: 6359036 heartbeat IPC: 1.89137 cumulative IPC: 1.88708 (Simulation time: 0 hr 12 min 14 sec) 
Heartbeat CPU 0 instructions: 13000002 cycles: 6888781 heartbeat IPC: 1.8877 cumulative IPC: 1.88713 (Simulation time: 0 hr 13 min 15 sec) 
Heartbeat CPU 0 instructions: 14000000 cycles: 7418873 heartbeat IPC: 1.88646 cumulative IPC: 1.88708 (Simulation time: 0 hr 14 min 14 sec) 
Heartbeat CPU 0 instructions: 15000000 cycles: 7949251 heartbeat IPC: 1.88545 cumulative IPC: 1.88697 (Simulation time: 0 hr 15 min 12 sec) 
Heartbeat CPU 0 instructions: 16000000 cycles: 8480112 heartbeat IPC: 1.88373 cumulative IPC: 1.88677 (Simulation time: 0 hr 16 min 8 sec) 
Heartbeat CPU 0 instructions: 17000002 cycles: 9009719 heartbeat IPC: 1.8882 cumulative IPC: 1.88685 (Simulation time: 0 hr 17 min 10 sec) 
Heartbeat CPU 0 instructions: 18000003 cycles: 9539122 heartbeat IPC: 1.88892 cumulative IPC: 1.88697 (Simulation time: 0 hr 18 min 9 sec) 
Heartbeat CPU 0 instructions: 19000003 cycles: 10069651 heartbeat IPC: 1.88491 cumulative IPC: 1.88686 (Simulation time: 0 hr 19 min 8 sec) 
Heartbeat CPU 0 instructions: 20000000 cycles: 10599916 heartbeat IPC: 1.88584 cumulative IPC: 1.88681 (Simulation time: 0 hr 20 min 10 sec) 
Heartbeat CPU 0 instructions: 21000003 cycles: 11130030 heartbeat IPC: 1.88639 cumulative IPC: 1.88679 (Simulation time: 0 hr 21 min 4 sec) 
Heartbeat CPU 0 instructions: 22000001 cycles: 11661618 heartbeat IPC: 1.88115 cumulative IPC: 1.88653 (Simulation time: 0 hr 21 min 58 sec) 
Heartbeat CPU 0 instructions: 23000001 cycles: 12191785 heartbeat IPC: 1.8862 cumulative IPC: 1.88652 (Simulation time: 0 hr 22 min 59 sec) 
Heartbeat CPU 0 instructions: 24000000 cycles: 12722649 heartbeat IPC: 1.88372 cumulative IPC: 1.8864 (Simulation time: 0 hr 23 min 57 sec) 
Heartbeat CPU 0 instructions: 25000003 cycles: 13223460 heartbeat IPC: 1.99677 cumulative IPC: 1.89058 (Simulation time: 0 hr 24 min 49 sec) 
Heartbeat CPU 0 instructions: 26000002 cycles: 13727756 heartbeat IPC: 1.98296 cumulative IPC: 1.89397 (Simulation time: 0 hr 25 min 47 sec) 
Heartbeat CPU 0 instructions: 27000000 cycles: 14239758 heartbeat IPC: 1.95311 cumulative IPC: 1.8961 (Simulation time: 0 hr 26 min 44 sec) 
Heartbeat CPU 0 instructions: 28000000 cycles: 14763258 heartbeat IPC: 1.91022 cumulative IPC: 1.8966 (Simulation time: 0 hr 27 min 35 sec) 
Heartbeat CPU 0 instructions: 29000003 cycles: 15291160 heartbeat IPC: 1.8943 cumulative IPC: 1.89652 (Simulation time: 0 hr 28 min 29 sec) 
Heartbeat CPU 0 instructions: 30000000 cycles: 15814535 heartbeat IPC: 1.91067 cumulative IPC: 1.89699 (Simulation time: 0 hr 29 min 24 sec) 
Heartbeat CPU 0 instructions: 31000001 cycles: 16335172 heartbeat IPC: 1.92073 cumulative IPC: 1.89775 (Simulation time: 0 hr 30 min 9 sec) 
Heartbeat CPU 0 instructions: 32000000 cycles: 16862455 heartbeat IPC: 1.89651 cumulative IPC: 1.89771 (Simulation time: 0 hr 31 min 1 sec) 
Heartbeat CPU 0 instructions: 33000001 cycles: 17382915 heartbeat IPC: 1.92138 cumulative IPC: 1.89842 (Simulation time: 0 hr 31 min 55 sec) 
Heartbeat CPU 0 instructions: 34000001 cycles: 17905789 heartbeat IPC: 1.91251 cumulative IPC: 1.89883 (Simulation time: 0 hr 32 min 51 sec) 
Heartbeat CPU 0 instructions: 35000000 cycles: 18431257 heartbeat IPC: 1.90306 cumulative IPC: 1.89895 (Simulation time: 0 hr 33 min 50 sec) 
Heartbeat CPU 0 instructions: 36000000 cycles: 18958181 heartbeat IPC: 1.89781 cumulative IPC: 1.89892 (Simulation time: 0 hr 34 min 49 sec) 
Heartbeat CPU 0 instructions: 37000002 cycles: 19475643 heartbeat IPC: 1.93251 cumulative IPC: 1.89981 (Simulation time: 0 hr 35 min 45 sec) 
Heartbeat CPU 0 instructions: 38000002 cycles: 19995629 heartbeat IPC: 1.92313 cumulative IPC: 1.90042 (Simulation time: 0 hr 36 min 41 sec) 
Heartbeat CPU 0 instructions: 39000001 cycles: 20515996 heartbeat IPC: 1.92172 cumulative IPC: 1.90096 (Simulation time: 0 hr 37 min 38 sec) 
Heartbeat CPU 0 instructions: 40000000 cycles: 21034889 heartbeat IPC: 1.92718 cumulative IPC: 1.9016 (Simulation time: 0 hr 38 min 35 sec) 
Heartbeat CPU 0 instructions: 41000001 cycles: 21556215 heartbeat IPC: 1.91819 cumulative IPC: 1.902 (Simulation time: 0 hr 39 min 31 sec) 
Heartbeat CPU 0 instructions: 42000002 cycles: 22070119 heartbeat IPC: 1.94589 cumulative IPC: 1.90303 (Simulation time: 0 hr 40 min 28 sec) 
Heartbeat CPU 0 instructions: 43000001 cycles: 22583594 heartbeat IPC: 1.94751 cumulative IPC: 1.90404 (Simulation time: 0 hr 41 min 27 sec) 
Heartbeat CPU 0 instructions: 44000000 cycles: 23103512 heartbeat IPC: 1.92338 cumulative IPC: 1.90447 (Simulation time: 0 hr 42 min 15 sec) 
Heartbeat CPU 0 instructions: 45000001 cycles: 23619799 heartbeat IPC: 1.93691 cumulative IPC: 1.90518 (Simulation time: 0 hr 43 min 8 sec) 
Heartbeat CPU 0 instructions: 46000003 cycles: 24144153 heartbeat IPC: 1.90711 cumulative IPC: 1.90522 (Simulation time: 0 hr 43 min 56 sec) 
Heartbeat CPU 0 instructions: 47000000 cycles: 24667763 heartbeat IPC: 1.90981 cumulative IPC: 1.90532 (Simulation time: 0 hr 44 min 44 sec) 
Heartbeat CPU 0 instructions: 48000000 cycles: 25188087 heartbeat IPC: 1.92188 cumulative IPC: 1.90566 (Simulation time: 0 hr 45 min 30 sec) 
Heartbeat CPU 0 instructions: 49000003 cycles: 25713971 heartbeat IPC: 1.90157 cumulative IPC: 1.90558 (Simulation time: 0 hr 46 min 29 sec) 
Heartbeat CPU 0 instructions: 50000001 cycles: 26240590 heartbeat IPC: 1.8989 cumulative IPC: 1.90544 (Simulation time: 0 hr 47 min 20 sec) 

Warmup complete CPU 0 instructions: 50000001 cycles: 26240590 (Simulation time: 0 hr 47 min 20 sec) 

Heartbeat CPU 0 instructions: 51000003 cycles: 28172950 heartbeat IPC: 0.517503 cumulative IPC: 0.517503 (Simulation time: 0 hr 48 min 17 sec) 
Heartbeat CPU 0 instructions: 52000000 cycles: 30181896 heartbeat IPC: 0.497772 cumulative IPC: 0.507446 (Simulation time: 0 hr 49 min 14 sec) 
Heartbeat CPU 0 instructions: 53000001 cycles: 32140163 heartbeat IPC: 0.510656 cumulative IPC: 0.508511 (Simulation time: 0 hr 50 min 5 sec) 
Heartbeat CPU 0 instructions: 54000003 cycles: 34032788 heartbeat IPC: 0.528368 cumulative IPC: 0.513334 (Simulation time: 0 hr 50 min 53 sec) 
Heartbeat CPU 0 instructions: 55000000 cycles: 35901730 heartbeat IPC: 0.53506 cumulative IPC: 0.517537 (Simulation time: 0 hr 51 min 40 sec) 
Heartbeat CPU 0 instructions: 56000000 cycles: 37791206 heartbeat IPC: 0.529247 cumulative IPC: 0.519453 (Simulation time: 0 hr 52 min 33 sec) 
Heartbeat CPU 0 instructions: 57000000 cycles: 39659331 heartbeat IPC: 0.535296 cumulative IPC: 0.521658 (Simulation time: 0 hr 53 min 22 sec) 
Heartbeat CPU 0 instructions: 58000001 cycles: 41584032 heartbeat IPC: 0.519562 cumulative IPC: 0.521395 (Simulation time: 0 hr 54 min 13 sec) 
Heartbeat CPU 0 instructions: 59000003 cycles: 43493255 heartbeat IPC: 0.523774 cumulative IPC: 0.521659 (Simulation time: 0 hr 55 min 3 sec) 
Heartbeat CPU 0 instructions: 60000000 cycles: 45383281 heartbeat IPC: 0.529092 cumulative IPC: 0.522393 (Simulation time: 0 hr 55 min 52 sec) 
Heartbeat CPU 0 instructions: 61000002 cycles: 47272607 heartbeat IPC: 0.52929 cumulative IPC: 0.523012 (Simulation time: 0 hr 56 min 41 sec) 
Heartbeat CPU 0 instructions: 62000001 cycles: 49171083 heartbeat IPC: 0.526738 cumulative IPC: 0.523321 (Simulation time: 0 hr 57 min 30 sec) 
Heartbeat CPU 0 instructions: 63000001 cycles: 51219560 heartbeat IPC: 0.488168 cumulative IPC: 0.520438 (Simulation time: 0 hr 58 min 12 sec) 
Heartbeat CPU 0 instructions: 64000000 cycles: 53170009 heartbeat IPC: 0.512702 cumulative IPC: 0.519877 (Simulation time: 0 hr 58 min 57 sec) 
Heartbeat CPU 0 instructions: 65000000 cycles: 55109006 heartbeat IPC: 0.515731 cumulative IPC: 0.519599 (Simulation time: 0 hr 59 min 43 sec) 
Heartbeat CPU 0 instructions: 66000000 cycles: 57061278 heartbeat IPC: 0.512224 cumulative IPC: 0.519132 (Simulation time: 1 hr 0 min 27 sec) 
Heartbeat CPU 0 instructions: 67000003 cycles: 59000292 heartbeat IPC: 0.515728 cumulative IPC: 0.51893 (Simulation time: 1 hr 1 min 12 sec) 
Heartbeat CPU 0 instructions: 68000000 cycles: 60928507 heartbeat IPC: 0.518613 cumulative IPC: 0.518913 (Simulation time: 1 hr 1 min 58 sec) 
Heartbeat CPU 0 instructions: 69000000 cycles: 62860739 heartbeat IPC: 0.517536 cumulative IPC: 0.51884 (Simulation time: 1 hr 2 min 44 sec) 
Heartbeat CPU 0 instructions: 70000003 cycles: 64811420 heartbeat IPC: 0.512643 cumulative IPC: 0.518527 (Simulation time: 1 hr 3 min 37 sec) 
Heartbeat CPU 0 instructions: 71000001 cycles: 66767920 heartbeat IPC: 0.511116 cumulative IPC: 0.518169 (Simulation time: 1 hr 4 min 31 sec) 
Heartbeat CPU 0 instructions: 72000000 cycles: 68719616 heartbeat IPC: 0.512374 cumulative IPC: 0.517903 (Simulation time: 1 hr 5 min 26 sec) 
Heartbeat CPU 0 instructions: 73000000 cycles: 70669087 heartbeat IPC: 0.51296 cumulative IPC: 0.517686 (Simulation time: 1 hr 6 min 30 sec) 
Heartbeat CPU 0 instructions: 74000000 cycles: 72609303 heartbeat IPC: 0.515407 cumulative IPC: 0.51759 (Simulation time: 1 hr 7 min 30 sec) 
Heartbeat CPU 0 instructions: 75000001 cycles: 74519503 heartbeat IPC: 0.523506 cumulative IPC: 0.517824 (Simulation time: 1 hr 8 min 29 sec) 
Heartbeat CPU 0 instructions: 76000000 cycles: 76453063 heartbeat IPC: 0.51718 cumulative IPC: 0.5178 (Simulation time: 1 hr 9 min 35 sec) 
Heartbeat CPU 0 instructions: 77000001 cycles: 78482910 heartbeat IPC: 0.492648 cumulative IPC: 0.516822 (Simulation time: 1 hr 10 min 33 sec) 
Heartbeat CPU 0 instructions: 78000000 cycles: 80439268 heartbeat IPC: 0.511153 cumulative IPC: 0.516618 (Simulation time: 1 hr 11 min 33 sec) 
Heartbeat CPU 0 instructions: 79000003 cycles: 82478296 heartbeat IPC: 0.490431 cumulative IPC: 0.515668 (Simulation time: 1 hr 12 min 39 sec) 
Heartbeat CPU 0 instructions: 80000000 cycles: 84570031 heartbeat IPC: 0.478071 cumulative IPC: 0.51432 (Simulation time: 1 hr 13 min 37 sec) 
Heartbeat CPU 0 instructions: 81000003 cycles: 86655063 heartbeat IPC: 0.47961 cumulative IPC: 0.513122 (Simulation time: 1 hr 14 min 40 sec) 
Heartbeat CPU 0 instructions: 82000000 cycles: 88705098 heartbeat IPC: 0.487795 cumulative IPC: 0.512291 (Simulation time: 1 hr 15 min 43 sec) 
Heartbeat CPU 0 instructions: 83000000 cycles: 90687483 heartbeat IPC: 0.504443 cumulative IPC: 0.512049 (Simulation time: 1 hr 16 min 40 sec) 
Heartbeat CPU 0 instructions: 84000000 cycles: 92665151 heartbeat IPC: 0.505646 cumulative IPC: 0.511859 (Simulation time: 1 hr 17 min 27 sec) 
Heartbeat CPU 0 instructions: 85000001 cycles: 94631645 heartbeat IPC: 0.50852 cumulative IPC: 0.511763 (Simulation time: 1 hr 18 min 9 sec) 
Heartbeat CPU 0 instructions: 86000002 cycles: 96592349 heartbeat IPC: 0.510021 cumulative IPC: 0.511714 (Simulation time: 1 hr 18 min 57 sec) 
Heartbeat CPU 0 instructions: 87000000 cycles: 98580017 heartbeat IPC: 0.503101 cumulative IPC: 0.511478 (Simulation time: 1 hr 19 min 36 sec) 
Heartbeat CPU 0 instructions: 88000000 cycles: 100622724 heartbeat IPC: 0.489546 cumulative IPC: 0.510875 (Simulation time: 1 hr 20 min 17 sec) 
Heartbeat CPU 0 instructions: 89000003 cycles: 102607794 heartbeat IPC: 0.503762 cumulative IPC: 0.51069 (Simulation time: 1 hr 20 min 56 sec) 
Heartbeat CPU 0 instructions: 90000000 cycles: 104578511 heartbeat IPC: 0.507428 cumulative IPC: 0.510608 (Simulation time: 1 hr 21 min 37 sec) 
Heartbeat CPU 0 instructions: 91000000 cycles: 106565195 heartbeat IPC: 0.503351 cumulative IPC: 0.510429 (Simulation time: 1 hr 22 min 18 sec) 
Heartbeat CPU 0 instructions: 92000000 cycles: 108559005 heartbeat IPC: 0.501552 cumulative IPC: 0.510214 (Simulation time: 1 hr 22 min 59 sec) 
Heartbeat CPU 0 instructions: 93000003 cycles: 110514959 heartbeat IPC: 0.511261 cumulative IPC: 0.510238 (Simulation time: 1 hr 23 min 39 sec) 
Heartbeat CPU 0 instructions: 94000000 cycles: 112457785 heartbeat IPC: 0.514713 cumulative IPC: 0.510339 (Simulation time: 1 hr 24 min 17 sec) 
Heartbeat CPU 0 instructions: 95000000 cycles: 114435050 heartbeat IPC: 0.505749 cumulative IPC: 0.510236 (Simulation time: 1 hr 25 min 0 sec) 
Heartbeat CPU 0 instructions: 96000000 cycles: 116449075 heartbeat IPC: 0.496518 cumulative IPC: 0.50993 (Simulation time: 1 hr 25 min 35 sec) 
Heartbeat CPU 0 instructions: 97000000 cycles: 118466655 heartbeat IPC: 0.495643 cumulative IPC: 0.509617 (Simulation time: 1 hr 26 min 11 sec) 
Heartbeat CPU 0 instructions: 98000000 cycles: 120467357 heartbeat IPC: 0.499825 cumulative IPC: 0.509409 (Simulation time: 1 hr 26 min 47 sec) 
Heartbeat CPU 0 instructions: 99000000 cycles: 122567213 heartbeat IPC: 0.476223 cumulative IPC: 0.508686 (Simulation time: 1 hr 27 min 15 sec) 
Heartbeat CPU 0 instructions: 100000000 cycles: 124579395 heartbeat IPC: 0.496973 cumulative IPC: 0.508446 (Simulation time: 1 hr 27 min 46 sec) 
Heartbeat CPU 0 instructions: 101000000 cycles: 126613206 heartbeat IPC: 0.491688 cumulative IPC: 0.508107 (Simulation time: 1 hr 28 min 17 sec) 
Heartbeat CPU 0 instructions: 102000003 cycles: 128617866 heartbeat IPC: 0.498839 cumulative IPC: 0.507925 (Simulation time: 1 hr 28 min 45 sec) 
Heartbeat CPU 0 instructions: 103000000 cycles: 130566846 heartbeat IPC: 0.513087 cumulative IPC: 0.508022 (Simulation time: 1 hr 29 min 10 sec) 
Heartbeat CPU 0 instructions: 104000000 cycles: 132504656 heartbeat IPC: 0.516046 cumulative IPC: 0.508168 (Simulation time: 1 hr 29 min 36 sec) 
Heartbeat CPU 0 instructions: 105000002 cycles: 134449270 heartbeat IPC: 0.514242 cumulative IPC: 0.508277 (Simulation time: 1 hr 30 min 2 sec) 
Heartbeat CPU 0 instructions: 106000003 cycles: 136376447 heartbeat IPC: 0.518894 cumulative IPC: 0.508463 (Simulation time: 1 hr 30 min 28 sec) 
Heartbeat CPU 0 instructions: 107000000 cycles: 138324840 heartbeat IPC: 0.513242 cumulative IPC: 0.508546 (Simulation time: 1 hr 30 min 57 sec) 
Heartbeat CPU 0 instructions: 108000000 cycles: 140400901 heartbeat IPC: 0.481681 cumulative IPC: 0.508057 (Simulation time: 1 hr 31 min 28 sec) 
Heartbeat CPU 0 instructions: 109000003 cycles: 142443998 heartbeat IPC: 0.489454 cumulative IPC: 0.50773 (Simulation time: 1 hr 31 min 54 sec) 
Heartbeat CPU 0 instructions: 110000002 cycles: 144435712 heartbeat IPC: 0.50208 cumulative IPC: 0.507635 (Simulation time: 1 hr 32 min 19 sec) 
Heartbeat CPU 0 instructions: 111000002 cycles: 146420767 heartbeat IPC: 0.503764 cumulative IPC: 0.507571 (Simulation time: 1 hr 32 min 42 sec) 
Heartbeat CPU 0 instructions: 112000000 cycles: 148414079 heartbeat IPC: 0.501677 cumulative IPC: 0.507475 (Simulation time: 1 hr 33 min 5 sec) 
Heartbeat CPU 0 instructions: 113000000 cycles: 150401562 heartbeat IPC: 0.503149 cumulative IPC: 0.507406 (Simulation time: 1 hr 33 min 39 sec) 
Heartbeat CPU 0 instructions: 114000001 cycles: 152399879 heartbeat IPC: 0.500422 cumulative IPC: 0.507295 (Simulation time: 1 hr 34 min 7 sec) 
Heartbeat CPU 0 instructions: 115000000 cycles: 154410208 heartbeat IPC: 0.497431 cumulative IPC: 0.50714 (Simulation time: 1 hr 34 min 29 sec) 
Heartbeat CPU 0 instructions: 116000000 cycles: 156460253 heartbeat IPC: 0.487794 cumulative IPC: 0.506836 (Simulation time: 1 hr 34 min 52 sec) 
Heartbeat CPU 0 instructions: 117000000 cycles: 158546559 heartbeat IPC: 0.479316 cumulative IPC: 0.506402 (Simulation time: 1 hr 35 min 12 sec) 
Heartbeat CPU 0 instructions: 118000002 cycles: 160659938 heartbeat IPC: 0.473177 cumulative IPC: 0.50588 (Simulation time: 1 hr 35 min 32 sec) 
Heartbeat CPU 0 instructions: 119000001 cycles: 162738832 heartbeat IPC: 0.481025 cumulative IPC: 0.505501 (Simulation time: 1 hr 35 min 52 sec) 
Heartbeat CPU 0 instructions: 120000000 cycles: 164771491 heartbeat IPC: 0.491966 cumulative IPC: 0.505302 (Simulation time: 1 hr 36 min 13 sec) 
Heartbeat CPU 0 instructions: 121000000 cycles: 166855108 heartbeat IPC: 0.479935 cumulative IPC: 0.504927 (Simulation time: 1 hr 36 min 33 sec) 
Heartbeat CPU 0 instructions: 122000001 cycles: 169001354 heartbeat IPC: 0.46593 cumulative IPC: 0.50434 (Simulation time: 1 hr 36 min 49 sec) 
Heartbeat CPU 0 instructions: 123000000 cycles: 171068033 heartbeat IPC: 0.483868 cumulative IPC: 0.504048 (Simulation time: 1 hr 37 min 6 sec) 
Heartbeat CPU 0 instructions: 124000000 cycles: 173068848 heartbeat IPC: 0.499796 cumulative IPC: 0.50399 (Simulation time: 1 hr 37 min 23 sec) 
Heartbeat CPU 0 instructions: 125000001 cycles: 175046904 heartbeat IPC: 0.505547 cumulative IPC: 0.504011 (Simulation time: 1 hr 37 min 42 sec) 
Heartbeat CPU 0 instructions: 126000000 cycles: 177041113 heartbeat IPC: 0.501451 cumulative IPC: 0.503977 (Simulation time: 1 hr 38 min 0 sec) 
Heartbeat CPU 0 instructions: 127000001 cycles: 179033541 heartbeat IPC: 0.501901 cumulative IPC: 0.50395 (Simulation time: 1 hr 38 min 17 sec) 
Heartbeat CPU 0 instructions: 128000000 cycles: 181060601 heartbeat IPC: 0.493325 cumulative IPC: 0.503811 (Simulation time: 1 hr 38 min 32 sec) 
Heartbeat CPU 0 instructions: 129000000 cycles: 183117084 heartbeat IPC: 0.486267 cumulative IPC: 0.503581 (Simulation time: 1 hr 38 min 48 sec) 
Heartbeat CPU 0 instructions: 130000002 cycles: 185149067 heartbeat IPC: 0.492131 cumulative IPC: 0.503434 (Simulation time: 1 hr 39 min 4 sec) 
Heartbeat CPU 0 instructions: 131000001 cycles: 187147224 heartbeat IPC: 0.500461 cumulative IPC: 0.503398 (Simulation time: 1 hr 39 min 20 sec) 
Heartbeat CPU 0 instructions: 132000000 cycles: 189157832 heartbeat IPC: 0.497361 cumulative IPC: 0.503323 (Simulation time: 1 hr 39 min 35 sec) 
Heartbeat CPU 0 instructions: 133000001 cycles: 191173126 heartbeat IPC: 0.496206 cumulative IPC: 0.503236 (Simulation time: 1 hr 39 min 49 sec) 
Heartbeat CPU 0 instructions: 134000002 cycles: 193185606 heartbeat IPC: 0.4969 cumulative IPC: 0.50316 (Simulation time: 1 hr 40 min 2 sec) 
Heartbeat CPU 0 instructions: 135000003 cycles: 195208236 heartbeat IPC: 0.494406 cumulative IPC: 0.503055 (Simulation time: 1 hr 40 min 14 sec) 
Heartbeat CPU 0 instructions: 136000000 cycles: 197201794 heartbeat IPC: 0.501614 cumulative IPC: 0.503038 (Simulation time: 1 hr 40 min 26 sec) 
Heartbeat CPU 0 instructions: 137000000 cycles: 199192603 heartbeat IPC: 0.502308 cumulative IPC: 0.50303 (Simulation time: 1 hr 40 min 37 sec) 
Heartbeat CPU 0 instructions: 138000003 cycles: 201190094 heartbeat IPC: 0.50063 cumulative IPC: 0.503002 (Simulation time: 1 hr 40 min 49 sec) 
Heartbeat CPU 0 instructions: 139000000 cycles: 203216490 heartbeat IPC: 0.493485 cumulative IPC: 0.502893 (Simulation time: 1 hr 40 min 59 sec) 
Heartbeat CPU 0 instructions: 140000000 cycles: 205255364 heartbeat IPC: 0.490467 cumulative IPC: 0.502752 (Simulation time: 1 hr 41 min 10 sec) 
Heartbeat CPU 0 instructions: 141000002 cycles: 207258005 heartbeat IPC: 0.499342 cumulative IPC: 0.502714 (Simulation time: 1 hr 41 min 19 sec) 
Heartbeat CPU 0 instructions: 142000002 cycles: 209249480 heartbeat IPC: 0.50214 cumulative IPC: 0.502708 (Simulation time: 1 hr 41 min 28 sec) 
Heartbeat CPU 0 instructions: 143000002 cycles: 211259600 heartbeat IPC: 0.497483 cumulative IPC: 0.502651 (Simulation time: 1 hr 41 min 39 sec) 
Heartbeat CPU 0 instructions: 144000000 cycles: 213270513 heartbeat IPC: 0.497286 cumulative IPC: 0.502593 (Simulation time: 1 hr 41 min 49 sec) 
Heartbeat CPU 0 instructions: 145000001 cycles: 215369554 heartbeat IPC: 0.476409 cumulative IPC: 0.502303 (Simulation time: 1 hr 41 min 57 sec) 
Heartbeat CPU 0 instructions: 146000000 cycles: 217559455 heartbeat IPC: 0.456641 cumulative IPC: 0.50178 (Simulation time: 1 hr 42 min 3 sec) 
Heartbeat CPU 0 instructions: 147000000 cycles: 219694454 heartbeat IPC: 0.468384 cumulative IPC: 0.501412 (Simulation time: 1 hr 42 min 8 sec) 
Heartbeat CPU 0 instructions: 148000000 cycles: 221847355 heartbeat IPC: 0.46449 cumulative IPC: 0.501005 (Simulation time: 1 hr 42 min 13 sec) 
Heartbeat CPU 0 instructions: 149000000 cycles: 223974248 heartbeat IPC: 0.470169 cumulative IPC: 0.500673 (Simulation time: 1 hr 42 min 18 sec) 
Heartbeat CPU 0 instructions: 150000000 cycles: 226165836 heartbeat IPC: 0.45629 cumulative IPC: 0.500187 (Simulation time: 1 hr 42 min 23 sec) 
Finished CPU 0 instructions: 100000003 cycles: 199925247 cummulative IPC: 0.500187 (Simulation time: 1 hr 42 min 23 sec) 

ChampSim completed all CPUs

Region of Interest Statistics

CPU 0 cummulative IPC: 0.500187 instructions: 100000003 cycles: 199925247
LLC TOTAL     ACCESS:     477012  HIT:     313524  MISS:     163488
LLC LOAD      ACCESS:     104806  HIT:      60769  MISS:      44037
LLC RFO       ACCESS:      70517  HIT:      28247  MISS:      42270
LLC PREFETCH  ACCESS:     138033  HIT:      77182  MISS:      60851
LLC WRITEBACK ACCESS:     163656  HIT:     147326  MISS:      16330
OPTgen accesses: 1133
OPTgen hits: 957
OPTgen hit rate: 84.466


