
*** ChampSim Multicore Out-of-Order Simulator ***

Warmup Instructions: 50000000
Simulation Instructions: 100000000
Configuration: 2
Number of CPUs: 1
LLC sets: 2048
LLC ways: 16
Off-chip DRAM Channels: 1 Width: 64-bit Data Rate: 1600 MT/s

CPU 0 runs /datasets/cs240c-wi22-a00-public/data/Assignment2-gz/cactusADM_1495B.trace.gz
CPU 0 L1D next line prefetcher
CPU 0 L2C IP-based stride prefetcher
Initialize Hawkeye state
Heartbeat CPU 0 instructions: 1000003 cycles: 593383 heartbeat IPC: 1.68526 cumulative IPC: 1.68526 (Simulation time: 0 hr 0 min 50 sec) 
Heartbeat CPU 0 instructions: 2000000 cycles: 1186345 heartbeat IPC: 1.68644 cumulative IPC: 1.68585 (Simulation time: 0 hr 1 min 38 sec) 
Heartbeat CPU 0 instructions: 3000003 cycles: 1779703 heartbeat IPC: 1.68533 cumulative IPC: 1.68568 (Simulation time: 0 hr 2 min 21 sec) 
Heartbeat CPU 0 instructions: 4000000 cycles: 2372522 heartbeat IPC: 1.68685 cumulative IPC: 1.68597 (Simulation time: 0 hr 3 min 1 sec) 
Heartbeat CPU 0 instructions: 5000000 cycles: 2965579 heartbeat IPC: 1.68618 cumulative IPC: 1.68601 (Simulation time: 0 hr 3 min 41 sec) 
Heartbeat CPU 0 instructions: 6000001 cycles: 3558796 heartbeat IPC: 1.68573 cumulative IPC: 1.68596 (Simulation time: 0 hr 4 min 27 sec) 
Heartbeat CPU 0 instructions: 7000000 cycles: 4151738 heartbeat IPC: 1.6865 cumulative IPC: 1.68604 (Simulation time: 0 hr 5 min 9 sec) 
Heartbeat CPU 0 instructions: 8000000 cycles: 4906804 heartbeat IPC: 1.32439 cumulative IPC: 1.63039 (Simulation time: 0 hr 6 min 8 sec) 
Heartbeat CPU 0 instructions: 9000002 cycles: 5500003 heartbeat IPC: 1.68578 cumulative IPC: 1.63636 (Simulation time: 0 hr 6 min 57 sec) 
Heartbeat CPU 0 instructions: 10000002 cycles: 6092926 heartbeat IPC: 1.68656 cumulative IPC: 1.64125 (Simulation time: 0 hr 7 min 40 sec) 
Heartbeat CPU 0 instructions: 11000001 cycles: 6686056 heartbeat IPC: 1.68597 cumulative IPC: 1.64522 (Simulation time: 0 hr 8 min 20 sec) 
Heartbeat CPU 0 instructions: 12000000 cycles: 7279215 heartbeat IPC: 1.68589 cumulative IPC: 1.64853 (Simulation time: 0 hr 9 min 5 sec) 
Heartbeat CPU 0 instructions: 13000001 cycles: 7872119 heartbeat IPC: 1.68662 cumulative IPC: 1.6514 (Simulation time: 0 hr 9 min 48 sec) 
Heartbeat CPU 0 instructions: 14000003 cycles: 8465387 heartbeat IPC: 1.68558 cumulative IPC: 1.65379 (Simulation time: 0 hr 10 min 32 sec) 
Heartbeat CPU 0 instructions: 15000001 cycles: 9058477 heartbeat IPC: 1.68608 cumulative IPC: 1.65591 (Simulation time: 0 hr 11 min 15 sec) 
Heartbeat CPU 0 instructions: 16000000 cycles: 9651742 heartbeat IPC: 1.68559 cumulative IPC: 1.65773 (Simulation time: 0 hr 11 min 56 sec) 
Heartbeat CPU 0 instructions: 17000002 cycles: 10244730 heartbeat IPC: 1.68638 cumulative IPC: 1.65939 (Simulation time: 0 hr 12 min 42 sec) 
Heartbeat CPU 0 instructions: 18000000 cycles: 10837719 heartbeat IPC: 1.68637 cumulative IPC: 1.66087 (Simulation time: 0 hr 13 min 32 sec) 
Heartbeat CPU 0 instructions: 19000002 cycles: 11430733 heartbeat IPC: 1.6863 cumulative IPC: 1.66219 (Simulation time: 0 hr 14 min 20 sec) 
Heartbeat CPU 0 instructions: 20000000 cycles: 12024100 heartbeat IPC: 1.68529 cumulative IPC: 1.66333 (Simulation time: 0 hr 15 min 7 sec) 
Heartbeat CPU 0 instructions: 21000002 cycles: 12765455 heartbeat IPC: 1.34888 cumulative IPC: 1.64506 (Simulation time: 0 hr 16 min 5 sec) 
Heartbeat CPU 0 instructions: 22000003 cycles: 13370430 heartbeat IPC: 1.65296 cumulative IPC: 1.64542 (Simulation time: 0 hr 16 min 52 sec) 
Heartbeat CPU 0 instructions: 23000000 cycles: 13963122 heartbeat IPC: 1.68721 cumulative IPC: 1.6472 (Simulation time: 0 hr 17 min 39 sec) 
Heartbeat CPU 0 instructions: 24000000 cycles: 14556809 heartbeat IPC: 1.68439 cumulative IPC: 1.64871 (Simulation time: 0 hr 18 min 24 sec) 
Heartbeat CPU 0 instructions: 25000002 cycles: 15149960 heartbeat IPC: 1.68591 cumulative IPC: 1.65017 (Simulation time: 0 hr 19 min 9 sec) 
Heartbeat CPU 0 instructions: 26000003 cycles: 15742527 heartbeat IPC: 1.68757 cumulative IPC: 1.65158 (Simulation time: 0 hr 19 min 54 sec) 
Heartbeat CPU 0 instructions: 27000001 cycles: 16335612 heartbeat IPC: 1.6861 cumulative IPC: 1.65283 (Simulation time: 0 hr 20 min 43 sec) 
Heartbeat CPU 0 instructions: 28000000 cycles: 16928701 heartbeat IPC: 1.68609 cumulative IPC: 1.654 (Simulation time: 0 hr 21 min 30 sec) 
Heartbeat CPU 0 instructions: 29000002 cycles: 17521857 heartbeat IPC: 1.6859 cumulative IPC: 1.65508 (Simulation time: 0 hr 22 min 17 sec) 
Heartbeat CPU 0 instructions: 30000002 cycles: 18114968 heartbeat IPC: 1.68603 cumulative IPC: 1.65609 (Simulation time: 0 hr 23 min 6 sec) 
Heartbeat CPU 0 instructions: 31000002 cycles: 18708233 heartbeat IPC: 1.68559 cumulative IPC: 1.65702 (Simulation time: 0 hr 23 min 55 sec) 
Heartbeat CPU 0 instructions: 32000000 cycles: 19301610 heartbeat IPC: 1.68527 cumulative IPC: 1.65789 (Simulation time: 0 hr 24 min 39 sec) 
Heartbeat CPU 0 instructions: 33000001 cycles: 19894328 heartbeat IPC: 1.68714 cumulative IPC: 1.65876 (Simulation time: 0 hr 25 min 23 sec) 
Heartbeat CPU 0 instructions: 34000002 cycles: 20606337 heartbeat IPC: 1.40448 cumulative IPC: 1.64998 (Simulation time: 0 hr 26 min 14 sec) 
Heartbeat CPU 0 instructions: 35000001 cycles: 21242297 heartbeat IPC: 1.57242 cumulative IPC: 1.64766 (Simulation time: 0 hr 27 min 0 sec) 
Heartbeat CPU 0 instructions: 36000000 cycles: 21835362 heartbeat IPC: 1.68615 cumulative IPC: 1.6487 (Simulation time: 0 hr 27 min 52 sec) 
Heartbeat CPU 0 instructions: 37000000 cycles: 22428160 heartbeat IPC: 1.68692 cumulative IPC: 1.64971 (Simulation time: 0 hr 28 min 40 sec) 
Heartbeat CPU 0 instructions: 38000003 cycles: 23021117 heartbeat IPC: 1.68647 cumulative IPC: 1.65066 (Simulation time: 0 hr 29 min 28 sec) 
Heartbeat CPU 0 instructions: 39000002 cycles: 23614421 heartbeat IPC: 1.68547 cumulative IPC: 1.65153 (Simulation time: 0 hr 30 min 22 sec) 
Heartbeat CPU 0 instructions: 40000000 cycles: 24207318 heartbeat IPC: 1.68663 cumulative IPC: 1.65239 (Simulation time: 0 hr 31 min 12 sec) 
Heartbeat CPU 0 instructions: 41000002 cycles: 24800222 heartbeat IPC: 1.68662 cumulative IPC: 1.65321 (Simulation time: 0 hr 32 min 3 sec) 
Heartbeat CPU 0 instructions: 42000000 cycles: 25393147 heartbeat IPC: 1.68655 cumulative IPC: 1.65399 (Simulation time: 0 hr 32 min 53 sec) 
Heartbeat CPU 0 instructions: 43000000 cycles: 25986138 heartbeat IPC: 1.68637 cumulative IPC: 1.65473 (Simulation time: 0 hr 33 min 42 sec) 
Heartbeat CPU 0 instructions: 44000000 cycles: 26578972 heartbeat IPC: 1.68681 cumulative IPC: 1.65544 (Simulation time: 0 hr 34 min 31 sec) 
Heartbeat CPU 0 instructions: 45000003 cycles: 27171967 heartbeat IPC: 1.68636 cumulative IPC: 1.65612 (Simulation time: 0 hr 35 min 21 sec) 
Heartbeat CPU 0 instructions: 46000001 cycles: 27765099 heartbeat IPC: 1.68596 cumulative IPC: 1.65676 (Simulation time: 0 hr 36 min 10 sec) 
Heartbeat CPU 0 instructions: 47000001 cycles: 28445186 heartbeat IPC: 1.4704 cumulative IPC: 1.6523 (Simulation time: 0 hr 37 min 2 sec) 
Heartbeat CPU 0 instructions: 48000000 cycles: 29112121 heartbeat IPC: 1.4994 cumulative IPC: 1.6488 (Simulation time: 0 hr 37 min 51 sec) 
Heartbeat CPU 0 instructions: 49000001 cycles: 29705063 heartbeat IPC: 1.68651 cumulative IPC: 1.64955 (Simulation time: 0 hr 38 min 41 sec) 
Heartbeat CPU 0 instructions: 50000003 cycles: 30297996 heartbeat IPC: 1.68653 cumulative IPC: 1.65027 (Simulation time: 0 hr 39 min 25 sec) 

Warmup complete CPU 0 instructions: 50000003 cycles: 30297996 (Simulation time: 0 hr 39 min 25 sec) 

Heartbeat CPU 0 instructions: 51000000 cycles: 31986284 heartbeat IPC: 0.592314 cumulative IPC: 0.592314 (Simulation time: 0 hr 40 min 15 sec) 
Heartbeat CPU 0 instructions: 52000000 cycles: 33667905 heartbeat IPC: 0.594664 cumulative IPC: 0.593487 (Simulation time: 0 hr 41 min 6 sec) 
Heartbeat CPU 0 instructions: 53000003 cycles: 35406034 heartbeat IPC: 0.575333 cumulative IPC: 0.58731 (Simulation time: 0 hr 41 min 58 sec) 
Heartbeat CPU 0 instructions: 54000001 cycles: 37145825 heartbeat IPC: 0.574781 cumulative IPC: 0.584126 (Simulation time: 0 hr 42 min 47 sec) 
Heartbeat CPU 0 instructions: 55000000 cycles: 38882784 heartbeat IPC: 0.575718 cumulative IPC: 0.582425 (Simulation time: 0 hr 43 min 36 sec) 
Heartbeat CPU 0 instructions: 56000000 cycles: 40541676 heartbeat IPC: 0.602812 cumulative IPC: 0.585727 (Simulation time: 0 hr 44 min 23 sec) 
Heartbeat CPU 0 instructions: 57000000 cycles: 42254133 heartbeat IPC: 0.583956 cumulative IPC: 0.585473 (Simulation time: 0 hr 45 min 14 sec) 
Heartbeat CPU 0 instructions: 58000002 cycles: 43994931 heartbeat IPC: 0.57445 cumulative IPC: 0.584072 (Simulation time: 0 hr 46 min 4 sec) 
Heartbeat CPU 0 instructions: 59000001 cycles: 45736562 heartbeat IPC: 0.574174 cumulative IPC: 0.582956 (Simulation time: 0 hr 46 min 55 sec) 
Heartbeat CPU 0 instructions: 60000000 cycles: 49092762 heartbeat IPC: 0.297956 cumulative IPC: 0.532063 (Simulation time: 0 hr 47 min 50 sec) 
Heartbeat CPU 0 instructions: 61000001 cycles: 54045445 heartbeat IPC: 0.201911 cumulative IPC: 0.463208 (Simulation time: 0 hr 48 min 46 sec) 
Heartbeat CPU 0 instructions: 62000000 cycles: 55781923 heartbeat IPC: 0.575878 cumulative IPC: 0.470885 (Simulation time: 0 hr 49 min 35 sec) 
Heartbeat CPU 0 instructions: 63000000 cycles: 57523096 heartbeat IPC: 0.574325 cumulative IPC: 0.4775 (Simulation time: 0 hr 50 min 24 sec) 
Heartbeat CPU 0 instructions: 64000000 cycles: 59257622 heartbeat IPC: 0.576526 cumulative IPC: 0.483432 (Simulation time: 0 hr 51 min 14 sec) 
Heartbeat CPU 0 instructions: 65000002 cycles: 60919317 heartbeat IPC: 0.601796 cumulative IPC: 0.489855 (Simulation time: 0 hr 52 min 5 sec) 
Heartbeat CPU 0 instructions: 66000003 cycles: 62626303 heartbeat IPC: 0.585828 cumulative IPC: 0.494922 (Simulation time: 0 hr 53 min 0 sec) 
Heartbeat CPU 0 instructions: 67000001 cycles: 64366447 heartbeat IPC: 0.574664 cumulative IPC: 0.498995 (Simulation time: 0 hr 53 min 57 sec) 
Heartbeat CPU 0 instructions: 68000000 cycles: 66106787 heartbeat IPC: 0.5746 cumulative IPC: 0.50267 (Simulation time: 0 hr 54 min 54 sec) 
Heartbeat CPU 0 instructions: 69000003 cycles: 67824200 heartbeat IPC: 0.582273 cumulative IPC: 0.506313 (Simulation time: 0 hr 55 min 50 sec) 
Heartbeat CPU 0 instructions: 70000000 cycles: 69479814 heartbeat IPC: 0.604004 cumulative IPC: 0.510441 (Simulation time: 0 hr 56 min 44 sec) 
Heartbeat CPU 0 instructions: 71000002 cycles: 71211187 heartbeat IPC: 0.577577 cumulative IPC: 0.513282 (Simulation time: 0 hr 57 min 36 sec) 
Heartbeat CPU 0 instructions: 72000000 cycles: 72954229 heartbeat IPC: 0.573708 cumulative IPC: 0.515751 (Simulation time: 0 hr 58 min 25 sec) 
Heartbeat CPU 0 instructions: 73000001 cycles: 75424611 heartbeat IPC: 0.404796 cumulative IPC: 0.509677 (Simulation time: 0 hr 59 min 18 sec) 
Heartbeat CPU 0 instructions: 74000002 cycles: 81330791 heartbeat IPC: 0.169314 cumulative IPC: 0.470286 (Simulation time: 1 hr 0 min 17 sec) 
Heartbeat CPU 0 instructions: 75000002 cycles: 83030046 heartbeat IPC: 0.588493 cumulative IPC: 0.474095 (Simulation time: 1 hr 1 min 5 sec) 
Heartbeat CPU 0 instructions: 76000000 cycles: 84770723 heartbeat IPC: 0.574488 cumulative IPC: 0.477303 (Simulation time: 1 hr 1 min 57 sec) 
Heartbeat CPU 0 instructions: 77000001 cycles: 86510920 heartbeat IPC: 0.574648 cumulative IPC: 0.480317 (Simulation time: 1 hr 2 min 46 sec) 
Heartbeat CPU 0 instructions: 78000000 cycles: 88234288 heartbeat IPC: 0.580259 cumulative IPC: 0.483289 (Simulation time: 1 hr 3 min 34 sec) 
Heartbeat CPU 0 instructions: 79000003 cycles: 89882675 heartbeat IPC: 0.606655 cumulative IPC: 0.486702 (Simulation time: 1 hr 4 min 23 sec) 
Heartbeat CPU 0 instructions: 80000000 cycles: 91615791 heartbeat IPC: 0.576994 cumulative IPC: 0.489254 (Simulation time: 1 hr 5 min 12 sec) 
Heartbeat CPU 0 instructions: 81000002 cycles: 93356906 heartbeat IPC: 0.574346 cumulative IPC: 0.491604 (Simulation time: 1 hr 6 min 2 sec) 
Heartbeat CPU 0 instructions: 82000000 cycles: 95096851 heartbeat IPC: 0.57473 cumulative IPC: 0.493836 (Simulation time: 1 hr 6 min 49 sec) 
Heartbeat CPU 0 instructions: 83000000 cycles: 96785327 heartbeat IPC: 0.59225 cumulative IPC: 0.496335 (Simulation time: 1 hr 7 min 40 sec) 
Heartbeat CPU 0 instructions: 84000000 cycles: 98462492 heartbeat IPC: 0.596244 cumulative IPC: 0.498793 (Simulation time: 1 hr 8 min 28 sec) 
Heartbeat CPU 0 instructions: 85000003 cycles: 100226439 heartbeat IPC: 0.566912 cumulative IPC: 0.500512 (Simulation time: 1 hr 9 min 20 sec) 
Heartbeat CPU 0 instructions: 86000000 cycles: 101968701 heartbeat IPC: 0.573965 cumulative IPC: 0.502297 (Simulation time: 1 hr 10 min 11 sec) 
Heartbeat CPU 0 instructions: 87000001 cycles: 108702163 heartbeat IPC: 0.148512 cumulative IPC: 0.471914 (Simulation time: 1 hr 11 min 13 sec) 
Heartbeat CPU 0 instructions: 88000000 cycles: 110348641 heartbeat IPC: 0.607356 cumulative IPC: 0.474699 (Simulation time: 1 hr 12 min 3 sec) 
Heartbeat CPU 0 instructions: 89000002 cycles: 112077011 heartbeat IPC: 0.578581 cumulative IPC: 0.476895 (Simulation time: 1 hr 12 min 57 sec) 
Heartbeat CPU 0 instructions: 90000001 cycles: 113843443 heartbeat IPC: 0.566112 cumulative IPC: 0.478781 (Simulation time: 1 hr 13 min 47 sec) 
Heartbeat CPU 0 instructions: 91000002 cycles: 115582791 heartbeat IPC: 0.574929 cumulative IPC: 0.480742 (Simulation time: 1 hr 14 min 39 sec) 
Heartbeat CPU 0 instructions: 92000000 cycles: 117278599 heartbeat IPC: 0.589688 cumulative IPC: 0.482866 (Simulation time: 1 hr 15 min 28 sec) 
Heartbeat CPU 0 instructions: 93000002 cycles: 118950102 heartbeat IPC: 0.598265 cumulative IPC: 0.485042 (Simulation time: 1 hr 16 min 15 sec) 
Heartbeat CPU 0 instructions: 94000002 cycles: 120685927 heartbeat IPC: 0.576095 cumulative IPC: 0.486791 (Simulation time: 1 hr 17 min 4 sec) 
Heartbeat CPU 0 instructions: 95000003 cycles: 122427902 heartbeat IPC: 0.574062 cumulative IPC: 0.488441 (Simulation time: 1 hr 17 min 49 sec) 
Heartbeat CPU 0 instructions: 96000000 cycles: 124163900 heartbeat IPC: 0.576036 cumulative IPC: 0.490061 (Simulation time: 1 hr 18 min 34 sec) 
Heartbeat CPU 0 instructions: 97000003 cycles: 125827473 heartbeat IPC: 0.601118 cumulative IPC: 0.491995 (Simulation time: 1 hr 19 min 20 sec) 
Heartbeat CPU 0 instructions: 98000003 cycles: 127530431 heartbeat IPC: 0.587214 cumulative IPC: 0.493662 (Simulation time: 1 hr 20 min 6 sec) 
Heartbeat CPU 0 instructions: 99000000 cycles: 129272042 heartbeat IPC: 0.574179 cumulative IPC: 0.495079 (Simulation time: 1 hr 20 min 54 sec) 
Heartbeat CPU 0 instructions: 100000000 cycles: 136011963 heartbeat IPC: 0.14837 cumulative IPC: 0.472974 (Simulation time: 1 hr 21 min 46 sec) 
Heartbeat CPU 0 instructions: 101000000 cycles: 137711021 heartbeat IPC: 0.588561 cumulative IPC: 0.474803 (Simulation time: 1 hr 22 min 31 sec) 
Heartbeat CPU 0 instructions: 102000003 cycles: 139380050 heartbeat IPC: 0.599153 cumulative IPC: 0.476705 (Simulation time: 1 hr 23 min 14 sec) 
Heartbeat CPU 0 instructions: 103000000 cycles: 141114131 heartbeat IPC: 0.576673 cumulative IPC: 0.47827 (Simulation time: 1 hr 23 min 54 sec) 
Heartbeat CPU 0 instructions: 104000000 cycles: 142853984 heartbeat IPC: 0.574761 cumulative IPC: 0.479761 (Simulation time: 1 hr 24 min 33 sec) 
Heartbeat CPU 0 instructions: 105000001 cycles: 144589714 heartbeat IPC: 0.576127 cumulative IPC: 0.481225 (Simulation time: 1 hr 25 min 16 sec) 
Heartbeat CPU 0 instructions: 106000000 cycles: 146259114 heartbeat IPC: 0.599017 cumulative IPC: 0.48292 (Simulation time: 1 hr 25 min 55 sec) 
Heartbeat CPU 0 instructions: 107000001 cycles: 147956294 heartbeat IPC: 0.589213 cumulative IPC: 0.484454 (Simulation time: 1 hr 26 min 37 sec) 
Heartbeat CPU 0 instructions: 108000000 cycles: 149696335 heartbeat IPC: 0.574699 cumulative IPC: 0.485769 (Simulation time: 1 hr 27 min 11 sec) 
Heartbeat CPU 0 instructions: 109000002 cycles: 151437144 heartbeat IPC: 0.574447 cumulative IPC: 0.487043 (Simulation time: 1 hr 27 min 49 sec) 
Heartbeat CPU 0 instructions: 110000001 cycles: 153164055 heartbeat IPC: 0.579068 cumulative IPC: 0.488337 (Simulation time: 1 hr 28 min 20 sec) 
Heartbeat CPU 0 instructions: 111000003 cycles: 154813017 heartbeat IPC: 0.606443 cumulative IPC: 0.489901 (Simulation time: 1 hr 28 min 48 sec) 
Heartbeat CPU 0 instructions: 112000000 cycles: 156542822 heartbeat IPC: 0.578098 cumulative IPC: 0.491109 (Simulation time: 1 hr 29 min 16 sec) 
Heartbeat CPU 0 instructions: 113000001 cycles: 163227743 heartbeat IPC: 0.149591 cumulative IPC: 0.473935 (Simulation time: 1 hr 29 min 53 sec) 
Heartbeat CPU 0 instructions: 114000003 cycles: 164964644 heartbeat IPC: 0.575739 cumulative IPC: 0.475248 (Simulation time: 1 hr 30 min 21 sec) 
Heartbeat CPU 0 instructions: 115000003 cycles: 166639423 heartbeat IPC: 0.597094 cumulative IPC: 0.476744 (Simulation time: 1 hr 30 min 48 sec) 
Heartbeat CPU 0 instructions: 116000000 cycles: 168332870 heartbeat IPC: 0.59051 cumulative IPC: 0.47814 (Simulation time: 1 hr 31 min 14 sec) 
Heartbeat CPU 0 instructions: 117000002 cycles: 170073177 heartbeat IPC: 0.574612 cumulative IPC: 0.479341 (Simulation time: 1 hr 31 min 40 sec) 
Heartbeat CPU 0 instructions: 118000001 cycles: 171814809 heartbeat IPC: 0.574174 cumulative IPC: 0.480508 (Simulation time: 1 hr 32 min 6 sec) 
Heartbeat CPU 0 instructions: 119000000 cycles: 173542947 heartbeat IPC: 0.578657 cumulative IPC: 0.481692 (Simulation time: 1 hr 32 min 33 sec) 
Heartbeat CPU 0 instructions: 120000000 cycles: 175191521 heartbeat IPC: 0.606585 cumulative IPC: 0.483113 (Simulation time: 1 hr 33 min 2 sec) 
Heartbeat CPU 0 instructions: 121000003 cycles: 176919438 heartbeat IPC: 0.578733 cumulative IPC: 0.48424 (Simulation time: 1 hr 33 min 27 sec) 
Heartbeat CPU 0 instructions: 122000003 cycles: 178660502 heartbeat IPC: 0.574361 cumulative IPC: 0.485298 (Simulation time: 1 hr 33 min 51 sec) 
Heartbeat CPU 0 instructions: 123000001 cycles: 180401502 heartbeat IPC: 0.574381 cumulative IPC: 0.486331 (Simulation time: 1 hr 34 min 16 sec) 
Heartbeat CPU 0 instructions: 124000000 cycles: 182102460 heartbeat IPC: 0.587903 cumulative IPC: 0.487469 (Simulation time: 1 hr 34 min 40 sec) 
Heartbeat CPU 0 instructions: 125000000 cycles: 183774320 heartbeat IPC: 0.598136 cumulative IPC: 0.488675 (Simulation time: 1 hr 35 min 8 sec) 
Heartbeat CPU 0 instructions: 126000002 cycles: 190209610 heartbeat IPC: 0.155393 cumulative IPC: 0.475263 (Simulation time: 1 hr 35 min 41 sec) 
Heartbeat CPU 0 instructions: 127000002 cycles: 192200292 heartbeat IPC: 0.50234 cumulative IPC: 0.475595 (Simulation time: 1 hr 36 min 5 sec) 
Heartbeat CPU 0 instructions: 128000000 cycles: 193929912 heartbeat IPC: 0.578161 cumulative IPC: 0.47668 (Simulation time: 1 hr 36 min 27 sec) 
Heartbeat CPU 0 instructions: 129000001 cycles: 195580685 heartbeat IPC: 0.605777 cumulative IPC: 0.477969 (Simulation time: 1 hr 36 min 48 sec) 
Heartbeat CPU 0 instructions: 130000001 cycles: 197302842 heartbeat IPC: 0.580667 cumulative IPC: 0.479028 (Simulation time: 1 hr 37 min 9 sec) 
Heartbeat CPU 0 instructions: 131000002 cycles: 199042623 heartbeat IPC: 0.574786 cumulative IPC: 0.480015 (Simulation time: 1 hr 37 min 30 sec) 
Heartbeat CPU 0 instructions: 132000000 cycles: 200782242 heartbeat IPC: 0.574837 cumulative IPC: 0.480983 (Simulation time: 1 hr 37 min 51 sec) 
Heartbeat CPU 0 instructions: 133000002 cycles: 202482911 heartbeat IPC: 0.588005 cumulative IPC: 0.48204 (Simulation time: 1 hr 38 min 10 sec) 
Heartbeat CPU 0 instructions: 134000000 cycles: 204147841 heartbeat IPC: 0.600625 cumulative IPC: 0.483176 (Simulation time: 1 hr 38 min 28 sec) 
Heartbeat CPU 0 instructions: 135000003 cycles: 205883613 heartbeat IPC: 0.576114 cumulative IPC: 0.484094 (Simulation time: 1 hr 38 min 45 sec) 
Heartbeat CPU 0 instructions: 136000000 cycles: 207623361 heartbeat IPC: 0.574794 cumulative IPC: 0.484984 (Simulation time: 1 hr 39 min 1 sec) 
Heartbeat CPU 0 instructions: 137000003 cycles: 209361942 heartbeat IPC: 0.575183 cumulative IPC: 0.48586 (Simulation time: 1 hr 39 min 18 sec) 
Heartbeat CPU 0 instructions: 138000003 cycles: 211034031 heartbeat IPC: 0.598054 cumulative IPC: 0.486898 (Simulation time: 1 hr 39 min 34 sec) 
Heartbeat CPU 0 instructions: 139000000 cycles: 216429190 heartbeat IPC: 0.185351 cumulative IPC: 0.478157 (Simulation time: 1 hr 39 min 51 sec) 
Heartbeat CPU 0 instructions: 140000000 cycles: 219392279 heartbeat IPC: 0.337486 cumulative IPC: 0.475953 (Simulation time: 1 hr 40 min 6 sec) 
Heartbeat CPU 0 instructions: 141000001 cycles: 221129711 heartbeat IPC: 0.575563 cumulative IPC: 0.47686 (Simulation time: 1 hr 40 min 19 sec) 
Heartbeat CPU 0 instructions: 142000000 cycles: 222836386 heartbeat IPC: 0.585934 cumulative IPC: 0.477827 (Simulation time: 1 hr 40 min 32 sec) 
Heartbeat CPU 0 instructions: 143000003 cycles: 224498080 heartbeat IPC: 0.601797 cumulative IPC: 0.478888 (Simulation time: 1 hr 40 min 44 sec) 
Heartbeat CPU 0 instructions: 144000000 cycles: 226230191 heartbeat IPC: 0.577329 cumulative IPC: 0.479758 (Simulation time: 1 hr 40 min 56 sec) 
Heartbeat CPU 0 instructions: 145000002 cycles: 227985271 heartbeat IPC: 0.569776 cumulative IPC: 0.480557 (Simulation time: 1 hr 41 min 7 sec) 
Heartbeat CPU 0 instructions: 146000001 cycles: 229722212 heartbeat IPC: 0.575724 cumulative IPC: 0.481386 (Simulation time: 1 hr 41 min 18 sec) 
Heartbeat CPU 0 instructions: 147000000 cycles: 231397089 heartbeat IPC: 0.597058 cumulative IPC: 0.482349 (Simulation time: 1 hr 41 min 27 sec) 
Heartbeat CPU 0 instructions: 148000000 cycles: 233086373 heartbeat IPC: 0.591967 cumulative IPC: 0.483262 (Simulation time: 1 hr 41 min 38 sec) 
Heartbeat CPU 0 instructions: 149000000 cycles: 234841388 heartbeat IPC: 0.569796 cumulative IPC: 0.484005 (Simulation time: 1 hr 41 min 49 sec) 
Heartbeat CPU 0 instructions: 150000002 cycles: 236600384 heartbeat IPC: 0.568507 cumulative IPC: 0.484725 (Simulation time: 1 hr 41 min 57 sec) 
Finished CPU 0 instructions: 100000003 cycles: 206302389 cummulative IPC: 0.484725 (Simulation time: 1 hr 41 min 57 sec) 

ChampSim completed all CPUs

Region of Interest Statistics

CPU 0 cummulative IPC: 0.484725 instructions: 100000003 cycles: 206302389
LLC TOTAL     ACCESS:    1106883  HIT:     325869  MISS:     781014
LLC LOAD      ACCESS:      21629  HIT:       2892  MISS:      18737
LLC RFO       ACCESS:     245174  HIT:      87472  MISS:     157702
LLC PREFETCH  ACCESS:     594516  HIT:     121324  MISS:     473192
LLC WRITEBACK ACCESS:     245564  HIT:     114181  MISS:     131383
OPTgen accesses: 1892
OPTgen hits: 686
OPTgen hit rate: 36.2579


