
*** ChampSim Multicore Out-of-Order Simulator ***

Warmup Instructions: 50000000
Simulation Instructions: 100000000
Configuration: 2
Number of CPUs: 1
LLC sets: 2048
LLC ways: 16
Off-chip DRAM Channels: 1 Width: 64-bit Data Rate: 1600 MT/s

CPU 0 runs /datasets/cs240c-wi22-a00-public/data/Assignment2-gz/libquantum_1210B.trace.gz
CPU 0 L1D next line prefetcher
CPU 0 L2C IP-based stride prefetcher
Initialize Hawkeye state
Heartbeat CPU 0 instructions: 1000003 cycles: 314916 heartbeat IPC: 3.17546 cumulative IPC: 3.17546 (Simulation time: 0 hr 0 min 24 sec) 
Heartbeat CPU 0 instructions: 2000000 cycles: 630170 heartbeat IPC: 3.17204 cumulative IPC: 3.17375 (Simulation time: 0 hr 0 min 42 sec) 
Heartbeat CPU 0 instructions: 3000001 cycles: 945979 heartbeat IPC: 3.16647 cumulative IPC: 3.17132 (Simulation time: 0 hr 1 min 4 sec) 
Heartbeat CPU 0 instructions: 4000000 cycles: 1260333 heartbeat IPC: 3.18112 cumulative IPC: 3.17376 (Simulation time: 0 hr 1 min 25 sec) 
Heartbeat CPU 0 instructions: 5000001 cycles: 1576818 heartbeat IPC: 3.15971 cumulative IPC: 3.17094 (Simulation time: 0 hr 1 min 45 sec) 
Heartbeat CPU 0 instructions: 6000002 cycles: 1891318 heartbeat IPC: 3.17965 cumulative IPC: 3.17239 (Simulation time: 0 hr 2 min 7 sec) 
Heartbeat CPU 0 instructions: 7000001 cycles: 2206981 heartbeat IPC: 3.16793 cumulative IPC: 3.17175 (Simulation time: 0 hr 2 min 29 sec) 
Heartbeat CPU 0 instructions: 8000000 cycles: 2522385 heartbeat IPC: 3.17053 cumulative IPC: 3.1716 (Simulation time: 0 hr 2 min 49 sec) 
Heartbeat CPU 0 instructions: 9000002 cycles: 2837144 heartbeat IPC: 3.17704 cumulative IPC: 3.1722 (Simulation time: 0 hr 3 min 11 sec) 
Heartbeat CPU 0 instructions: 10000003 cycles: 3153454 heartbeat IPC: 3.16146 cumulative IPC: 3.17113 (Simulation time: 0 hr 3 min 31 sec) 
Heartbeat CPU 0 instructions: 11000001 cycles: 3467723 heartbeat IPC: 3.18198 cumulative IPC: 3.17211 (Simulation time: 0 hr 3 min 52 sec) 
Heartbeat CPU 0 instructions: 12000000 cycles: 3783792 heartbeat IPC: 3.16386 cumulative IPC: 3.17142 (Simulation time: 0 hr 4 min 17 sec) 
Heartbeat CPU 0 instructions: 13000003 cycles: 4264651 heartbeat IPC: 2.07962 cumulative IPC: 3.04832 (Simulation time: 0 hr 4 min 45 sec) 
Heartbeat CPU 0 instructions: 14000001 cycles: 4772750 heartbeat IPC: 1.96812 cumulative IPC: 2.93332 (Simulation time: 0 hr 5 min 13 sec) 
Heartbeat CPU 0 instructions: 15000001 cycles: 5279404 heartbeat IPC: 1.97373 cumulative IPC: 2.84123 (Simulation time: 0 hr 5 min 43 sec) 
Heartbeat CPU 0 instructions: 16000000 cycles: 5788628 heartbeat IPC: 1.96377 cumulative IPC: 2.76404 (Simulation time: 0 hr 6 min 14 sec) 
Heartbeat CPU 0 instructions: 17000000 cycles: 6300340 heartbeat IPC: 1.95422 cumulative IPC: 2.69827 (Simulation time: 0 hr 6 min 45 sec) 
Heartbeat CPU 0 instructions: 18000000 cycles: 6813181 heartbeat IPC: 1.94992 cumulative IPC: 2.64194 (Simulation time: 0 hr 7 min 15 sec) 
Heartbeat CPU 0 instructions: 19000000 cycles: 7323126 heartbeat IPC: 1.961 cumulative IPC: 2.59452 (Simulation time: 0 hr 7 min 40 sec) 
Heartbeat CPU 0 instructions: 20000000 cycles: 7831196 heartbeat IPC: 1.96823 cumulative IPC: 2.55389 (Simulation time: 0 hr 8 min 6 sec) 
Heartbeat CPU 0 instructions: 21000000 cycles: 8339286 heartbeat IPC: 1.96816 cumulative IPC: 2.5182 (Simulation time: 0 hr 8 min 30 sec) 
Heartbeat CPU 0 instructions: 22000003 cycles: 8847294 heartbeat IPC: 1.96848 cumulative IPC: 2.48664 (Simulation time: 0 hr 8 min 58 sec) 
Heartbeat CPU 0 instructions: 23000000 cycles: 9352298 heartbeat IPC: 1.98018 cumulative IPC: 2.45929 (Simulation time: 0 hr 9 min 30 sec) 
Heartbeat CPU 0 instructions: 24000000 cycles: 9862866 heartbeat IPC: 1.9586 cumulative IPC: 2.43337 (Simulation time: 0 hr 9 min 57 sec) 
Heartbeat CPU 0 instructions: 25000000 cycles: 10374319 heartbeat IPC: 1.95521 cumulative IPC: 2.4098 (Simulation time: 0 hr 10 min 23 sec) 
Heartbeat CPU 0 instructions: 26000000 cycles: 10886972 heartbeat IPC: 1.95064 cumulative IPC: 2.38818 (Simulation time: 0 hr 10 min 54 sec) 
Heartbeat CPU 0 instructions: 27000000 cycles: 11395325 heartbeat IPC: 1.96714 cumulative IPC: 2.36939 (Simulation time: 0 hr 11 min 22 sec) 
Heartbeat CPU 0 instructions: 28000000 cycles: 11881150 heartbeat IPC: 2.05835 cumulative IPC: 2.35667 (Simulation time: 0 hr 11 min 51 sec) 
Heartbeat CPU 0 instructions: 29000002 cycles: 12220214 heartbeat IPC: 2.9493 cumulative IPC: 2.37312 (Simulation time: 0 hr 12 min 15 sec) 
Heartbeat CPU 0 instructions: 30000001 cycles: 12559582 heartbeat IPC: 2.94665 cumulative IPC: 2.38861 (Simulation time: 0 hr 12 min 42 sec) 
Heartbeat CPU 0 instructions: 31000000 cycles: 12898996 heartbeat IPC: 2.94625 cumulative IPC: 2.40329 (Simulation time: 0 hr 13 min 10 sec) 
Heartbeat CPU 0 instructions: 32000000 cycles: 13238401 heartbeat IPC: 2.94633 cumulative IPC: 2.41721 (Simulation time: 0 hr 13 min 38 sec) 
Heartbeat CPU 0 instructions: 33000000 cycles: 13577811 heartbeat IPC: 2.94629 cumulative IPC: 2.43044 (Simulation time: 0 hr 14 min 5 sec) 
Heartbeat CPU 0 instructions: 34000002 cycles: 13917221 heartbeat IPC: 2.9463 cumulative IPC: 2.44302 (Simulation time: 0 hr 14 min 32 sec) 
Heartbeat CPU 0 instructions: 35000001 cycles: 14256633 heartbeat IPC: 2.94627 cumulative IPC: 2.455 (Simulation time: 0 hr 14 min 59 sec) 
Heartbeat CPU 0 instructions: 36000000 cycles: 14595999 heartbeat IPC: 2.94667 cumulative IPC: 2.46643 (Simulation time: 0 hr 15 min 23 sec) 
Heartbeat CPU 0 instructions: 37000003 cycles: 14935386 heartbeat IPC: 2.9465 cumulative IPC: 2.47734 (Simulation time: 0 hr 15 min 50 sec) 
Heartbeat CPU 0 instructions: 38000002 cycles: 15274795 heartbeat IPC: 2.94629 cumulative IPC: 2.48776 (Simulation time: 0 hr 16 min 14 sec) 
Heartbeat CPU 0 instructions: 39000001 cycles: 15614204 heartbeat IPC: 2.94629 cumulative IPC: 2.49773 (Simulation time: 0 hr 16 min 38 sec) 
Heartbeat CPU 0 instructions: 40000000 cycles: 15953613 heartbeat IPC: 2.94629 cumulative IPC: 2.50727 (Simulation time: 0 hr 17 min 1 sec) 
Heartbeat CPU 0 instructions: 41000001 cycles: 16293025 heartbeat IPC: 2.94627 cumulative IPC: 2.51641 (Simulation time: 0 hr 17 min 25 sec) 
Heartbeat CPU 0 instructions: 42000000 cycles: 16632434 heartbeat IPC: 2.94629 cumulative IPC: 2.52519 (Simulation time: 0 hr 17 min 52 sec) 
Heartbeat CPU 0 instructions: 43000002 cycles: 16971844 heartbeat IPC: 2.9463 cumulative IPC: 2.53361 (Simulation time: 0 hr 18 min 17 sec) 
Heartbeat CPU 0 instructions: 44000000 cycles: 17311253 heartbeat IPC: 2.94629 cumulative IPC: 2.5417 (Simulation time: 0 hr 18 min 43 sec) 
Heartbeat CPU 0 instructions: 45000000 cycles: 17650662 heartbeat IPC: 2.9463 cumulative IPC: 2.54948 (Simulation time: 0 hr 19 min 9 sec) 
Heartbeat CPU 0 instructions: 46000003 cycles: 17990072 heartbeat IPC: 2.9463 cumulative IPC: 2.55697 (Simulation time: 0 hr 19 min 35 sec) 
Heartbeat CPU 0 instructions: 47000001 cycles: 18367322 heartbeat IPC: 2.65076 cumulative IPC: 2.55889 (Simulation time: 0 hr 20 min 2 sec) 
Heartbeat CPU 0 instructions: 48000000 cycles: 18874712 heartbeat IPC: 1.97087 cumulative IPC: 2.54309 (Simulation time: 0 hr 20 min 30 sec) 
Heartbeat CPU 0 instructions: 49000000 cycles: 19367506 heartbeat IPC: 2.02925 cumulative IPC: 2.53001 (Simulation time: 0 hr 20 min 57 sec) 
Heartbeat CPU 0 instructions: 50000001 cycles: 19868141 heartbeat IPC: 1.99747 cumulative IPC: 2.51659 (Simulation time: 0 hr 21 min 27 sec) 

Warmup complete CPU 0 instructions: 50000001 cycles: 19868141 (Simulation time: 0 hr 21 min 27 sec) 

Heartbeat CPU 0 instructions: 51000000 cycles: 22178873 heartbeat IPC: 0.432763 cumulative IPC: 0.432763 (Simulation time: 0 hr 22 min 5 sec) 
Heartbeat CPU 0 instructions: 52000000 cycles: 24505086 heartbeat IPC: 0.429883 cumulative IPC: 0.431318 (Simulation time: 0 hr 22 min 43 sec) 
Heartbeat CPU 0 instructions: 53000003 cycles: 26779027 heartbeat IPC: 0.439766 cumulative IPC: 0.434098 (Simulation time: 0 hr 23 min 23 sec) 
Heartbeat CPU 0 instructions: 54000003 cycles: 28474046 heartbeat IPC: 0.589964 cumulative IPC: 0.464797 (Simulation time: 0 hr 24 min 0 sec) 
Heartbeat CPU 0 instructions: 55000002 cycles: 30771668 heartbeat IPC: 0.435232 cumulative IPC: 0.458567 (Simulation time: 0 hr 24 min 39 sec) 
Heartbeat CPU 0 instructions: 56000000 cycles: 33094174 heartbeat IPC: 0.430569 cumulative IPC: 0.453651 (Simulation time: 0 hr 25 min 17 sec) 
Heartbeat CPU 0 instructions: 57000001 cycles: 35413879 heartbeat IPC: 0.43109 cumulative IPC: 0.450284 (Simulation time: 0 hr 25 min 55 sec) 
Heartbeat CPU 0 instructions: 58000000 cycles: 37726403 heartbeat IPC: 0.432428 cumulative IPC: 0.447972 (Simulation time: 0 hr 26 min 33 sec) 
Heartbeat CPU 0 instructions: 59000000 cycles: 40044201 heartbeat IPC: 0.431444 cumulative IPC: 0.446073 (Simulation time: 0 hr 27 min 11 sec) 
Heartbeat CPU 0 instructions: 60000000 cycles: 42336850 heartbeat IPC: 0.436177 cumulative IPC: 0.445063 (Simulation time: 0 hr 27 min 46 sec) 
Heartbeat CPU 0 instructions: 61000001 cycles: 44649777 heartbeat IPC: 0.432353 cumulative IPC: 0.443877 (Simulation time: 0 hr 28 min 25 sec) 
Heartbeat CPU 0 instructions: 62000000 cycles: 46958841 heartbeat IPC: 0.433075 cumulative IPC: 0.442956 (Simulation time: 0 hr 29 min 3 sec) 
Heartbeat CPU 0 instructions: 63000001 cycles: 48834820 heartbeat IPC: 0.533056 cumulative IPC: 0.448792 (Simulation time: 0 hr 29 min 40 sec) 
Heartbeat CPU 0 instructions: 64000000 cycles: 50961067 heartbeat IPC: 0.470312 cumulative IPC: 0.450263 (Simulation time: 0 hr 30 min 18 sec) 
Heartbeat CPU 0 instructions: 65000000 cycles: 53090670 heartbeat IPC: 0.469571 cumulative IPC: 0.451501 (Simulation time: 0 hr 30 min 52 sec) 
Heartbeat CPU 0 instructions: 66000001 cycles: 55244127 heartbeat IPC: 0.46437 cumulative IPC: 0.452284 (Simulation time: 0 hr 31 min 29 sec) 
Heartbeat CPU 0 instructions: 67000000 cycles: 57344045 heartbeat IPC: 0.476209 cumulative IPC: 0.453625 (Simulation time: 0 hr 32 min 6 sec) 
Heartbeat CPU 0 instructions: 68000000 cycles: 59501093 heartbeat IPC: 0.463597 cumulative IPC: 0.454168 (Simulation time: 0 hr 32 min 42 sec) 
Heartbeat CPU 0 instructions: 69000002 cycles: 61646730 heartbeat IPC: 0.466063 cumulative IPC: 0.454778 (Simulation time: 0 hr 33 min 18 sec) 
Heartbeat CPU 0 instructions: 70000001 cycles: 63784161 heartbeat IPC: 0.467851 cumulative IPC: 0.455415 (Simulation time: 0 hr 33 min 52 sec) 
Heartbeat CPU 0 instructions: 71000000 cycles: 65463510 heartbeat IPC: 0.595468 cumulative IPC: 0.460573 (Simulation time: 0 hr 34 min 26 sec) 
Heartbeat CPU 0 instructions: 72000000 cycles: 67327270 heartbeat IPC: 0.53655 cumulative IPC: 0.463557 (Simulation time: 0 hr 35 min 0 sec) 
Heartbeat CPU 0 instructions: 73000002 cycles: 69483438 heartbeat IPC: 0.463787 cumulative IPC: 0.463567 (Simulation time: 0 hr 35 min 33 sec) 
Heartbeat CPU 0 instructions: 74000002 cycles: 71600508 heartbeat IPC: 0.472351 cumulative IPC: 0.463926 (Simulation time: 0 hr 36 min 8 sec) 
Heartbeat CPU 0 instructions: 75000001 cycles: 73742672 heartbeat IPC: 0.466817 cumulative IPC: 0.464041 (Simulation time: 0 hr 36 min 41 sec) 
Heartbeat CPU 0 instructions: 76000000 cycles: 75883185 heartbeat IPC: 0.467177 cumulative IPC: 0.464161 (Simulation time: 0 hr 37 min 15 sec) 
Heartbeat CPU 0 instructions: 77000000 cycles: 78017018 heartbeat IPC: 0.46864 cumulative IPC: 0.464325 (Simulation time: 0 hr 37 min 47 sec) 
Heartbeat CPU 0 instructions: 78000002 cycles: 80184334 heartbeat IPC: 0.461401 cumulative IPC: 0.46422 (Simulation time: 0 hr 38 min 23 sec) 
Heartbeat CPU 0 instructions: 79000001 cycles: 82300027 heartbeat IPC: 0.472658 cumulative IPC: 0.464506 (Simulation time: 0 hr 38 min 56 sec) 
Heartbeat CPU 0 instructions: 80000000 cycles: 84468778 heartbeat IPC: 0.461094 cumulative IPC: 0.464392 (Simulation time: 0 hr 39 min 30 sec) 
Heartbeat CPU 0 instructions: 81000000 cycles: 86596136 heartbeat IPC: 0.470067 cumulative IPC: 0.464573 (Simulation time: 0 hr 40 min 3 sec) 
Heartbeat CPU 0 instructions: 82000000 cycles: 88735225 heartbeat IPC: 0.467489 cumulative IPC: 0.464663 (Simulation time: 0 hr 40 min 37 sec) 
Heartbeat CPU 0 instructions: 83000001 cycles: 90793433 heartbeat IPC: 0.48586 cumulative IPC: 0.465278 (Simulation time: 0 hr 41 min 13 sec) 
Heartbeat CPU 0 instructions: 84000000 cycles: 93282240 heartbeat IPC: 0.401799 cumulative IPC: 0.463126 (Simulation time: 0 hr 41 min 51 sec) 
Heartbeat CPU 0 instructions: 85000001 cycles: 95777247 heartbeat IPC: 0.400801 cumulative IPC: 0.461078 (Simulation time: 0 hr 42 min 30 sec) 
Heartbeat CPU 0 instructions: 86000001 cycles: 98267377 heartbeat IPC: 0.401585 cumulative IPC: 0.459188 (Simulation time: 0 hr 43 min 10 sec) 
Heartbeat CPU 0 instructions: 87000003 cycles: 100777036 heartbeat IPC: 0.398461 cumulative IPC: 0.457305 (Simulation time: 0 hr 43 min 47 sec) 
Heartbeat CPU 0 instructions: 88000000 cycles: 103289049 heartbeat IPC: 0.398086 cumulative IPC: 0.455521 (Simulation time: 0 hr 44 min 22 sec) 
Heartbeat CPU 0 instructions: 89000001 cycles: 105502579 heartbeat IPC: 0.451768 cumulative IPC: 0.455424 (Simulation time: 0 hr 44 min 59 sec) 
Heartbeat CPU 0 instructions: 90000000 cycles: 107608817 heartbeat IPC: 0.47478 cumulative IPC: 0.455889 (Simulation time: 0 hr 45 min 35 sec) 
Heartbeat CPU 0 instructions: 91000002 cycles: 110102616 heartbeat IPC: 0.400995 cumulative IPC: 0.454372 (Simulation time: 0 hr 46 min 13 sec) 
Heartbeat CPU 0 instructions: 92000000 cycles: 112578682 heartbeat IPC: 0.403866 cumulative IPC: 0.453023 (Simulation time: 0 hr 46 min 52 sec) 
Heartbeat CPU 0 instructions: 93000003 cycles: 115075353 heartbeat IPC: 0.400535 cumulative IPC: 0.451646 (Simulation time: 0 hr 47 min 31 sec) 
Heartbeat CPU 0 instructions: 94000000 cycles: 117587092 heartbeat IPC: 0.398129 cumulative IPC: 0.450271 (Simulation time: 0 hr 48 min 10 sec) 
Heartbeat CPU 0 instructions: 95000002 cycles: 120100348 heartbeat IPC: 0.397891 cumulative IPC: 0.448958 (Simulation time: 0 hr 48 min 47 sec) 
Heartbeat CPU 0 instructions: 96000000 cycles: 122620227 heartbeat IPC: 0.396844 cumulative IPC: 0.447679 (Simulation time: 0 hr 49 min 26 sec) 
Heartbeat CPU 0 instructions: 97000001 cycles: 125139931 heartbeat IPC: 0.396872 cumulative IPC: 0.446463 (Simulation time: 0 hr 50 min 5 sec) 
Heartbeat CPU 0 instructions: 98000002 cycles: 127638028 heartbeat IPC: 0.400305 cumulative IPC: 0.445393 (Simulation time: 0 hr 50 min 43 sec) 
Heartbeat CPU 0 instructions: 99000002 cycles: 129012583 heartbeat IPC: 0.727508 cumulative IPC: 0.448946 (Simulation time: 0 hr 51 min 17 sec) 
Heartbeat CPU 0 instructions: 100000000 cycles: 130439249 heartbeat IPC: 0.700934 cumulative IPC: 0.452198 (Simulation time: 0 hr 51 min 52 sec) 
Heartbeat CPU 0 instructions: 101000000 cycles: 131865963 heartbeat IPC: 0.700911 cumulative IPC: 0.455366 (Simulation time: 0 hr 52 min 30 sec) 
Heartbeat CPU 0 instructions: 102000003 cycles: 133292557 heartbeat IPC: 0.700972 cumulative IPC: 0.458455 (Simulation time: 0 hr 53 min 6 sec) 
Heartbeat CPU 0 instructions: 103000002 cycles: 134719153 heartbeat IPC: 0.700969 cumulative IPC: 0.461467 (Simulation time: 0 hr 53 min 43 sec) 
Heartbeat CPU 0 instructions: 104000000 cycles: 136145817 heartbeat IPC: 0.700934 cumulative IPC: 0.464406 (Simulation time: 0 hr 54 min 19 sec) 
Heartbeat CPU 0 instructions: 105000000 cycles: 137572531 heartbeat IPC: 0.700911 cumulative IPC: 0.467272 (Simulation time: 0 hr 54 min 59 sec) 
Heartbeat CPU 0 instructions: 106000001 cycles: 138854040 heartbeat IPC: 0.780331 cumulative IPC: 0.470644 (Simulation time: 0 hr 55 min 34 sec) 
Heartbeat CPU 0 instructions: 107000000 cycles: 140009249 heartbeat IPC: 0.865643 cumulative IPC: 0.474442 (Simulation time: 0 hr 56 min 10 sec) 
Heartbeat CPU 0 instructions: 108000000 cycles: 141435914 heartbeat IPC: 0.700935 cumulative IPC: 0.4771 (Simulation time: 0 hr 56 min 48 sec) 
Heartbeat CPU 0 instructions: 109000001 cycles: 142862630 heartbeat IPC: 0.700911 cumulative IPC: 0.479696 (Simulation time: 0 hr 57 min 24 sec) 
Heartbeat CPU 0 instructions: 110000000 cycles: 144289222 heartbeat IPC: 0.700971 cumulative IPC: 0.482233 (Simulation time: 0 hr 58 min 0 sec) 
Heartbeat CPU 0 instructions: 111000001 cycles: 145715822 heartbeat IPC: 0.700968 cumulative IPC: 0.484713 (Simulation time: 0 hr 58 min 36 sec) 
Heartbeat CPU 0 instructions: 112000000 cycles: 147142484 heartbeat IPC: 0.700936 cumulative IPC: 0.487137 (Simulation time: 0 hr 59 min 12 sec) 
Heartbeat CPU 0 instructions: 113000001 cycles: 148569215 heartbeat IPC: 0.700904 cumulative IPC: 0.489506 (Simulation time: 0 hr 59 min 50 sec) 
Heartbeat CPU 0 instructions: 114000000 cycles: 149995996 heartbeat IPC: 0.700878 cumulative IPC: 0.491824 (Simulation time: 1 hr 0 min 25 sec) 
Heartbeat CPU 0 instructions: 115000000 cycles: 151422587 heartbeat IPC: 0.700972 cumulative IPC: 0.494092 (Simulation time: 1 hr 1 min 1 sec) 
Heartbeat CPU 0 instructions: 116000000 cycles: 152849178 heartbeat IPC: 0.700972 cumulative IPC: 0.496311 (Simulation time: 1 hr 1 min 37 sec) 
Heartbeat CPU 0 instructions: 117000000 cycles: 154257316 heartbeat IPC: 0.710158 cumulative IPC: 0.498552 (Simulation time: 1 hr 2 min 14 sec) 
Heartbeat CPU 0 instructions: 118000000 cycles: 156259785 heartbeat IPC: 0.499384 cumulative IPC: 0.498564 (Simulation time: 1 hr 2 min 51 sec) 
Heartbeat CPU 0 instructions: 119000000 cycles: 158560549 heartbeat IPC: 0.434638 cumulative IPC: 0.497504 (Simulation time: 1 hr 3 min 29 sec) 
Heartbeat CPU 0 instructions: 120000000 cycles: 160864957 heartbeat IPC: 0.433951 cumulative IPC: 0.496465 (Simulation time: 1 hr 4 min 9 sec) 
Heartbeat CPU 0 instructions: 121000003 cycles: 163175393 heartbeat IPC: 0.43282 cumulative IPC: 0.495439 (Simulation time: 1 hr 4 min 47 sec) 
Heartbeat CPU 0 instructions: 122000000 cycles: 165494168 heartbeat IPC: 0.431261 cumulative IPC: 0.494417 (Simulation time: 1 hr 5 min 27 sec) 
Heartbeat CPU 0 instructions: 123000001 cycles: 167807213 heartbeat IPC: 0.432331 cumulative IPC: 0.493446 (Simulation time: 1 hr 6 min 5 sec) 
Heartbeat CPU 0 instructions: 124000000 cycles: 169513433 heartbeat IPC: 0.58609 cumulative IPC: 0.494503 (Simulation time: 1 hr 6 min 40 sec) 
Heartbeat CPU 0 instructions: 125000001 cycles: 171792024 heartbeat IPC: 0.438868 cumulative IPC: 0.493668 (Simulation time: 1 hr 7 min 17 sec) 
Heartbeat CPU 0 instructions: 126000001 cycles: 174101472 heartbeat IPC: 0.433004 cumulative IPC: 0.49276 (Simulation time: 1 hr 7 min 57 sec) 
Heartbeat CPU 0 instructions: 127000003 cycles: 176408207 heartbeat IPC: 0.433514 cumulative IPC: 0.491887 (Simulation time: 1 hr 8 min 36 sec) 
Heartbeat CPU 0 instructions: 128000000 cycles: 178729984 heartbeat IPC: 0.430703 cumulative IPC: 0.490993 (Simulation time: 1 hr 9 min 12 sec) 
Heartbeat CPU 0 instructions: 129000002 cycles: 181043307 heartbeat IPC: 0.432279 cumulative IPC: 0.49015 (Simulation time: 1 hr 9 min 50 sec) 
Heartbeat CPU 0 instructions: 130000002 cycles: 183344308 heartbeat IPC: 0.434593 cumulative IPC: 0.489368 (Simulation time: 1 hr 10 min 27 sec) 
Heartbeat CPU 0 instructions: 131000002 cycles: 185649970 heartbeat IPC: 0.433715 cumulative IPC: 0.488594 (Simulation time: 1 hr 11 min 5 sec) 
Heartbeat CPU 0 instructions: 132000000 cycles: 187972744 heartbeat IPC: 0.430519 cumulative IPC: 0.487792 (Simulation time: 1 hr 11 min 41 sec) 
Heartbeat CPU 0 instructions: 133000000 cycles: 189805097 heartbeat IPC: 0.545746 cumulative IPC: 0.488416 (Simulation time: 1 hr 12 min 16 sec) 
Heartbeat CPU 0 instructions: 134000003 cycles: 191270768 heartbeat IPC: 0.682283 cumulative IPC: 0.490074 (Simulation time: 1 hr 12 min 53 sec) 
Heartbeat CPU 0 instructions: 135000002 cycles: 192780692 heartbeat IPC: 0.662284 cumulative IPC: 0.491578 (Simulation time: 1 hr 13 min 31 sec) 
Heartbeat CPU 0 instructions: 136000000 cycles: 194290686 heartbeat IPC: 0.662253 cumulative IPC: 0.493056 (Simulation time: 1 hr 14 min 8 sec) 
Heartbeat CPU 0 instructions: 137000000 cycles: 195800729 heartbeat IPC: 0.662233 cumulative IPC: 0.494508 (Simulation time: 1 hr 14 min 45 sec) 
Heartbeat CPU 0 instructions: 138000001 cycles: 197310852 heartbeat IPC: 0.662198 cumulative IPC: 0.495935 (Simulation time: 1 hr 15 min 21 sec) 
Heartbeat CPU 0 instructions: 139000000 cycles: 198820772 heartbeat IPC: 0.662286 cumulative IPC: 0.497338 (Simulation time: 1 hr 16 min 1 sec) 
Heartbeat CPU 0 instructions: 140000000 cycles: 200328050 heartbeat IPC: 0.663448 cumulative IPC: 0.498726 (Simulation time: 1 hr 16 min 39 sec) 
Heartbeat CPU 0 instructions: 141000001 cycles: 201395540 heartbeat IPC: 0.936778 cumulative IPC: 0.501302 (Simulation time: 1 hr 17 min 13 sec) 
Heartbeat CPU 0 instructions: 142000000 cycles: 202876144 heartbeat IPC: 0.675399 cumulative IPC: 0.50271 (Simulation time: 1 hr 17 min 52 sec) 
Heartbeat CPU 0 instructions: 143000003 cycles: 204386072 heartbeat IPC: 0.662285 cumulative IPC: 0.504016 (Simulation time: 1 hr 18 min 27 sec) 
Heartbeat CPU 0 instructions: 144000000 cycles: 205896064 heartbeat IPC: 0.662253 cumulative IPC: 0.5053 (Simulation time: 1 hr 19 min 1 sec) 
Heartbeat CPU 0 instructions: 145000001 cycles: 207406106 heartbeat IPC: 0.662234 cumulative IPC: 0.506564 (Simulation time: 1 hr 19 min 38 sec) 
Heartbeat CPU 0 instructions: 146000000 cycles: 208916026 heartbeat IPC: 0.662286 cumulative IPC: 0.507808 (Simulation time: 1 hr 20 min 13 sec) 
Heartbeat CPU 0 instructions: 147000001 cycles: 210425951 heartbeat IPC: 0.662285 cumulative IPC: 0.509032 (Simulation time: 1 hr 20 min 47 sec) 
Heartbeat CPU 0 instructions: 148000000 cycles: 211935943 heartbeat IPC: 0.662255 cumulative IPC: 0.510237 (Simulation time: 1 hr 21 min 21 sec) 
Heartbeat CPU 0 instructions: 149000002 cycles: 213445987 heartbeat IPC: 0.662234 cumulative IPC: 0.511422 (Simulation time: 1 hr 21 min 57 sec) 
Heartbeat CPU 0 instructions: 150000001 cycles: 214955907 heartbeat IPC: 0.662286 cumulative IPC: 0.51259 (Simulation time: 1 hr 22 min 30 sec) 
Finished CPU 0 instructions: 100000000 cycles: 195087766 cummulative IPC: 0.51259 (Simulation time: 1 hr 22 min 30 sec) 

ChampSim completed all CPUs

Region of Interest Statistics

CPU 0 cummulative IPC: 0.51259 instructions: 100000000 cycles: 195087766
LLC TOTAL     ACCESS:    3948315  HIT:     259113  MISS:    3689202
LLC LOAD      ACCESS:     889801  HIT:      49814  MISS:     839987
LLC RFO       ACCESS:         21  HIT:         21  MISS:          0
LLC PREFETCH  ACCESS:    2104103  HIT:     117119  MISS:    1986984
LLC WRITEBACK ACCESS:     954390  HIT:      92159  MISS:     862231
OPTgen accesses: 4963
OPTgen hits: 683
OPTgen hit rate: 13.7618


