
*** ChampSim Multicore Out-of-Order Simulator ***

Warmup Instructions: 50000000
Simulation Instructions: 100000000
Configuration: 2
Number of CPUs: 1
LLC sets: 2048
LLC ways: 16
Off-chip DRAM Channels: 1 Width: 64-bit Data Rate: 1600 MT/s

CPU 0 runs /datasets/cs240c-wi22-a00-public/data/Assignment2-gz/astar_23B.trace.gz
CPU 0 L1D next line prefetcher
CPU 0 L2C IP-based stride prefetcher
Initialize Hawkeye state
Heartbeat CPU 0 instructions: 1000000 cycles: 359869 heartbeat IPC: 2.77879 cumulative IPC: 2.77879 (Simulation time: 0 hr 0 min 36 sec) 
Heartbeat CPU 0 instructions: 2000001 cycles: 720498 heartbeat IPC: 2.77294 cumulative IPC: 2.77586 (Simulation time: 0 hr 1 min 10 sec) 
Heartbeat CPU 0 instructions: 3000000 cycles: 1079245 heartbeat IPC: 2.78748 cumulative IPC: 2.77972 (Simulation time: 0 hr 1 min 43 sec) 
Heartbeat CPU 0 instructions: 4000000 cycles: 1440499 heartbeat IPC: 2.76814 cumulative IPC: 2.77682 (Simulation time: 0 hr 2 min 25 sec) 
Heartbeat CPU 0 instructions: 5000000 cycles: 1802439 heartbeat IPC: 2.76289 cumulative IPC: 2.77402 (Simulation time: 0 hr 3 min 0 sec) 
Heartbeat CPU 0 instructions: 6000002 cycles: 2163910 heartbeat IPC: 2.76648 cumulative IPC: 2.77276 (Simulation time: 0 hr 3 min 41 sec) 
Heartbeat CPU 0 instructions: 7000002 cycles: 2525202 heartbeat IPC: 2.76784 cumulative IPC: 2.77206 (Simulation time: 0 hr 4 min 19 sec) 
Heartbeat CPU 0 instructions: 8000000 cycles: 2887899 heartbeat IPC: 2.75712 cumulative IPC: 2.77018 (Simulation time: 0 hr 4 min 57 sec) 
Heartbeat CPU 0 instructions: 9000000 cycles: 3250621 heartbeat IPC: 2.75693 cumulative IPC: 2.7687 (Simulation time: 0 hr 5 min 32 sec) 
Heartbeat CPU 0 instructions: 10000003 cycles: 3615245 heartbeat IPC: 2.74256 cumulative IPC: 2.76607 (Simulation time: 0 hr 6 min 9 sec) 
Heartbeat CPU 0 instructions: 11000000 cycles: 3979319 heartbeat IPC: 2.74669 cumulative IPC: 2.76429 (Simulation time: 0 hr 6 min 44 sec) 
Heartbeat CPU 0 instructions: 12000000 cycles: 4343809 heartbeat IPC: 2.74356 cumulative IPC: 2.76255 (Simulation time: 0 hr 7 min 21 sec) 
Heartbeat CPU 0 instructions: 13000001 cycles: 4706262 heartbeat IPC: 2.75898 cumulative IPC: 2.76228 (Simulation time: 0 hr 7 min 58 sec) 
Heartbeat CPU 0 instructions: 14000003 cycles: 5069097 heartbeat IPC: 2.75608 cumulative IPC: 2.76183 (Simulation time: 0 hr 8 min 34 sec) 
Heartbeat CPU 0 instructions: 15000003 cycles: 5431707 heartbeat IPC: 2.75778 cumulative IPC: 2.76156 (Simulation time: 0 hr 9 min 14 sec) 
Heartbeat CPU 0 instructions: 16000000 cycles: 5794049 heartbeat IPC: 2.75982 cumulative IPC: 2.76145 (Simulation time: 0 hr 9 min 54 sec) 
Heartbeat CPU 0 instructions: 17000000 cycles: 6155188 heartbeat IPC: 2.76902 cumulative IPC: 2.7619 (Simulation time: 0 hr 10 min 37 sec) 
Heartbeat CPU 0 instructions: 18000001 cycles: 6515371 heartbeat IPC: 2.77637 cumulative IPC: 2.7627 (Simulation time: 0 hr 11 min 15 sec) 
Heartbeat CPU 0 instructions: 19000002 cycles: 6876051 heartbeat IPC: 2.77254 cumulative IPC: 2.76321 (Simulation time: 0 hr 11 min 54 sec) 
Heartbeat CPU 0 instructions: 20000000 cycles: 7236051 heartbeat IPC: 2.77777 cumulative IPC: 2.76394 (Simulation time: 0 hr 12 min 33 sec) 
Heartbeat CPU 0 instructions: 21000001 cycles: 7596968 heartbeat IPC: 2.77072 cumulative IPC: 2.76426 (Simulation time: 0 hr 13 min 16 sec) 
Heartbeat CPU 0 instructions: 22000000 cycles: 7958988 heartbeat IPC: 2.76228 cumulative IPC: 2.76417 (Simulation time: 0 hr 13 min 55 sec) 
Heartbeat CPU 0 instructions: 23000000 cycles: 8320218 heartbeat IPC: 2.76832 cumulative IPC: 2.76435 (Simulation time: 0 hr 14 min 36 sec) 
Heartbeat CPU 0 instructions: 24000000 cycles: 8681018 heartbeat IPC: 2.77162 cumulative IPC: 2.76465 (Simulation time: 0 hr 15 min 16 sec) 
Heartbeat CPU 0 instructions: 25000001 cycles: 9041606 heartbeat IPC: 2.77325 cumulative IPC: 2.765 (Simulation time: 0 hr 15 min 55 sec) 
Heartbeat CPU 0 instructions: 26000002 cycles: 9402716 heartbeat IPC: 2.76924 cumulative IPC: 2.76516 (Simulation time: 0 hr 16 min 33 sec) 
Heartbeat CPU 0 instructions: 27000000 cycles: 9763218 heartbeat IPC: 2.7739 cumulative IPC: 2.76548 (Simulation time: 0 hr 17 min 13 sec) 
Heartbeat CPU 0 instructions: 28000000 cycles: 10124505 heartbeat IPC: 2.76788 cumulative IPC: 2.76557 (Simulation time: 0 hr 17 min 52 sec) 
Heartbeat CPU 0 instructions: 29000000 cycles: 10486000 heartbeat IPC: 2.76629 cumulative IPC: 2.76559 (Simulation time: 0 hr 18 min 31 sec) 
Heartbeat CPU 0 instructions: 30000000 cycles: 10848162 heartbeat IPC: 2.7612 cumulative IPC: 2.76545 (Simulation time: 0 hr 19 min 10 sec) 
Heartbeat CPU 0 instructions: 31000001 cycles: 11209331 heartbeat IPC: 2.76879 cumulative IPC: 2.76555 (Simulation time: 0 hr 19 min 48 sec) 
Heartbeat CPU 0 instructions: 32000000 cycles: 11570051 heartbeat IPC: 2.77223 cumulative IPC: 2.76576 (Simulation time: 0 hr 20 min 25 sec) 
Heartbeat CPU 0 instructions: 33000002 cycles: 11930975 heartbeat IPC: 2.77067 cumulative IPC: 2.76591 (Simulation time: 0 hr 21 min 2 sec) 
Heartbeat CPU 0 instructions: 34000001 cycles: 12292603 heartbeat IPC: 2.76527 cumulative IPC: 2.76589 (Simulation time: 0 hr 21 min 39 sec) 
Heartbeat CPU 0 instructions: 35000000 cycles: 12653311 heartbeat IPC: 2.77232 cumulative IPC: 2.76607 (Simulation time: 0 hr 22 min 17 sec) 
Heartbeat CPU 0 instructions: 36000000 cycles: 13013153 heartbeat IPC: 2.779 cumulative IPC: 2.76643 (Simulation time: 0 hr 22 min 56 sec) 
Heartbeat CPU 0 instructions: 37000000 cycles: 13372979 heartbeat IPC: 2.77912 cumulative IPC: 2.76677 (Simulation time: 0 hr 23 min 35 sec) 
Heartbeat CPU 0 instructions: 38000003 cycles: 13733031 heartbeat IPC: 2.77738 cumulative IPC: 2.76705 (Simulation time: 0 hr 24 min 13 sec) 
Heartbeat CPU 0 instructions: 39000003 cycles: 14093645 heartbeat IPC: 2.77305 cumulative IPC: 2.7672 (Simulation time: 0 hr 24 min 50 sec) 
Heartbeat CPU 0 instructions: 40000000 cycles: 14453897 heartbeat IPC: 2.77583 cumulative IPC: 2.76742 (Simulation time: 0 hr 25 min 26 sec) 
Heartbeat CPU 0 instructions: 41000002 cycles: 14814021 heartbeat IPC: 2.77683 cumulative IPC: 2.76765 (Simulation time: 0 hr 26 min 3 sec) 
Heartbeat CPU 0 instructions: 42000003 cycles: 15175834 heartbeat IPC: 2.76386 cumulative IPC: 2.76756 (Simulation time: 0 hr 26 min 42 sec) 
Heartbeat CPU 0 instructions: 43000003 cycles: 15537028 heartbeat IPC: 2.7686 cumulative IPC: 2.76758 (Simulation time: 0 hr 27 min 18 sec) 
Heartbeat CPU 0 instructions: 44000000 cycles: 15899953 heartbeat IPC: 2.75538 cumulative IPC: 2.7673 (Simulation time: 0 hr 27 min 52 sec) 
Heartbeat CPU 0 instructions: 45000002 cycles: 16264068 heartbeat IPC: 2.74639 cumulative IPC: 2.76684 (Simulation time: 0 hr 28 min 33 sec) 
Heartbeat CPU 0 instructions: 46000001 cycles: 16628094 heartbeat IPC: 2.74705 cumulative IPC: 2.7664 (Simulation time: 0 hr 29 min 11 sec) 
Heartbeat CPU 0 instructions: 47000002 cycles: 16991907 heartbeat IPC: 2.74867 cumulative IPC: 2.76602 (Simulation time: 0 hr 29 min 48 sec) 
Heartbeat CPU 0 instructions: 48000000 cycles: 17354287 heartbeat IPC: 2.75953 cumulative IPC: 2.76589 (Simulation time: 0 hr 30 min 24 sec) 
Heartbeat CPU 0 instructions: 49000000 cycles: 17716494 heartbeat IPC: 2.76085 cumulative IPC: 2.76578 (Simulation time: 0 hr 31 min 0 sec) 
Heartbeat CPU 0 instructions: 50000000 cycles: 18078301 heartbeat IPC: 2.7639 cumulative IPC: 2.76575 (Simulation time: 0 hr 31 min 37 sec) 

Warmup complete CPU 0 instructions: 50000004 cycles: 18078302 (Simulation time: 0 hr 31 min 37 sec) 

Heartbeat CPU 0 instructions: 51000001 cycles: 21808899 heartbeat IPC: 0.268054 cumulative IPC: 0.268053 (Simulation time: 0 hr 32 min 15 sec) 
Heartbeat CPU 0 instructions: 52000000 cycles: 25779099 heartbeat IPC: 0.251876 cumulative IPC: 0.259713 (Simulation time: 0 hr 32 min 52 sec) 
Heartbeat CPU 0 instructions: 53000000 cycles: 28586331 heartbeat IPC: 0.356223 cumulative IPC: 0.285496 (Simulation time: 0 hr 33 min 29 sec) 
Heartbeat CPU 0 instructions: 54000002 cycles: 31444970 heartbeat IPC: 0.349818 cumulative IPC: 0.299252 (Simulation time: 0 hr 34 min 6 sec) 
Heartbeat CPU 0 instructions: 55000002 cycles: 34256801 heartbeat IPC: 0.35564 cumulative IPC: 0.309052 (Simulation time: 0 hr 34 min 44 sec) 
Heartbeat CPU 0 instructions: 56000000 cycles: 37018042 heartbeat IPC: 0.362155 cumulative IPC: 0.316794 (Simulation time: 0 hr 35 min 17 sec) 
Heartbeat CPU 0 instructions: 57000000 cycles: 39608838 heartbeat IPC: 0.385982 cumulative IPC: 0.325119 (Simulation time: 0 hr 35 min 53 sec) 
Heartbeat CPU 0 instructions: 58000001 cycles: 42180060 heartbeat IPC: 0.388921 cumulative IPC: 0.331926 (Simulation time: 0 hr 36 min 27 sec) 
Heartbeat CPU 0 instructions: 59000000 cycles: 44930443 heartbeat IPC: 0.363585 cumulative IPC: 0.335169 (Simulation time: 0 hr 37 min 3 sec) 
Heartbeat CPU 0 instructions: 60000000 cycles: 47505340 heartbeat IPC: 0.388365 cumulative IPC: 0.339823 (Simulation time: 0 hr 37 min 37 sec) 
Heartbeat CPU 0 instructions: 61000000 cycles: 49998050 heartbeat IPC: 0.40117 cumulative IPC: 0.344614 (Simulation time: 0 hr 38 min 13 sec) 
Heartbeat CPU 0 instructions: 62000003 cycles: 52467078 heartbeat IPC: 0.405019 cumulative IPC: 0.348951 (Simulation time: 0 hr 38 min 48 sec) 
Heartbeat CPU 0 instructions: 63000000 cycles: 55084145 heartbeat IPC: 0.382106 cumulative IPC: 0.351296 (Simulation time: 0 hr 39 min 24 sec) 
Heartbeat CPU 0 instructions: 64000000 cycles: 57610029 heartbeat IPC: 0.395901 cumulative IPC: 0.354146 (Simulation time: 0 hr 40 min 0 sec) 
Heartbeat CPU 0 instructions: 65000000 cycles: 60054980 heartbeat IPC: 0.409006 cumulative IPC: 0.357341 (Simulation time: 0 hr 40 min 33 sec) 
Heartbeat CPU 0 instructions: 66000000 cycles: 62517687 heartbeat IPC: 0.406057 cumulative IPC: 0.360041 (Simulation time: 0 hr 41 min 8 sec) 
Heartbeat CPU 0 instructions: 67000000 cycles: 64991486 heartbeat IPC: 0.404237 cumulative IPC: 0.362371 (Simulation time: 0 hr 41 min 44 sec) 
Heartbeat CPU 0 instructions: 68000000 cycles: 67381315 heartbeat IPC: 0.41844 cumulative IPC: 0.365089 (Simulation time: 0 hr 42 min 19 sec) 
Heartbeat CPU 0 instructions: 69000000 cycles: 69967319 heartbeat IPC: 0.386697 cumulative IPC: 0.366166 (Simulation time: 0 hr 42 min 55 sec) 
Heartbeat CPU 0 instructions: 70000000 cycles: 72502323 heartbeat IPC: 0.394477 cumulative IPC: 0.367485 (Simulation time: 0 hr 43 min 29 sec) 
Heartbeat CPU 0 instructions: 71000001 cycles: 75099207 heartbeat IPC: 0.385077 cumulative IPC: 0.368286 (Simulation time: 0 hr 44 min 2 sec) 
Heartbeat CPU 0 instructions: 72000000 cycles: 77724548 heartbeat IPC: 0.380903 cumulative IPC: 0.368841 (Simulation time: 0 hr 44 min 37 sec) 
Heartbeat CPU 0 instructions: 73000001 cycles: 80226381 heartbeat IPC: 0.399707 cumulative IPC: 0.370084 (Simulation time: 0 hr 45 min 12 sec) 
Heartbeat CPU 0 instructions: 74000002 cycles: 82474148 heartbeat IPC: 0.444886 cumulative IPC: 0.372695 (Simulation time: 0 hr 45 min 46 sec) 
Heartbeat CPU 0 instructions: 75000002 cycles: 84961811 heartbeat IPC: 0.401984 cumulative IPC: 0.373784 (Simulation time: 0 hr 46 min 23 sec) 
Heartbeat CPU 0 instructions: 76000000 cycles: 87454016 heartbeat IPC: 0.40125 cumulative IPC: 0.374771 (Simulation time: 0 hr 47 min 0 sec) 
Heartbeat CPU 0 instructions: 77000000 cycles: 90512688 heartbeat IPC: 0.326939 cumulative IPC: 0.372751 (Simulation time: 0 hr 47 min 35 sec) 
Heartbeat CPU 0 instructions: 78000003 cycles: 93528352 heartbeat IPC: 0.331603 cumulative IPC: 0.371106 (Simulation time: 0 hr 48 min 12 sec) 
Heartbeat CPU 0 instructions: 79000001 cycles: 95975897 heartbeat IPC: 0.408572 cumulative IPC: 0.372284 (Simulation time: 0 hr 48 min 47 sec) 
Heartbeat CPU 0 instructions: 80000000 cycles: 98545875 heartbeat IPC: 0.389108 cumulative IPC: 0.372821 (Simulation time: 0 hr 49 min 24 sec) 
Heartbeat CPU 0 instructions: 81000001 cycles: 101144426 heartbeat IPC: 0.38483 cumulative IPC: 0.373197 (Simulation time: 0 hr 50 min 0 sec) 
Heartbeat CPU 0 instructions: 82000002 cycles: 103687119 heartbeat IPC: 0.393284 cumulative IPC: 0.373793 (Simulation time: 0 hr 50 min 38 sec) 
Heartbeat CPU 0 instructions: 83000002 cycles: 106121825 heartbeat IPC: 0.410727 cumulative IPC: 0.374815 (Simulation time: 0 hr 51 min 12 sec) 
Heartbeat CPU 0 instructions: 84000000 cycles: 108596688 heartbeat IPC: 0.404062 cumulative IPC: 0.375614 (Simulation time: 0 hr 51 min 47 sec) 
Heartbeat CPU 0 instructions: 85000000 cycles: 111095045 heartbeat IPC: 0.400263 cumulative IPC: 0.376276 (Simulation time: 0 hr 52 min 21 sec) 
Heartbeat CPU 0 instructions: 86000001 cycles: 113500685 heartbeat IPC: 0.41569 cumulative IPC: 0.37727 (Simulation time: 0 hr 52 min 57 sec) 
Heartbeat CPU 0 instructions: 87000000 cycles: 115869708 heartbeat IPC: 0.422115 cumulative IPC: 0.378356 (Simulation time: 0 hr 53 min 36 sec) 
Heartbeat CPU 0 instructions: 88000000 cycles: 118385286 heartbeat IPC: 0.397523 cumulative IPC: 0.378837 (Simulation time: 0 hr 54 min 14 sec) 
Heartbeat CPU 0 instructions: 89000000 cycles: 120928678 heartbeat IPC: 0.393176 cumulative IPC: 0.379192 (Simulation time: 0 hr 54 min 51 sec) 
Heartbeat CPU 0 instructions: 90000001 cycles: 123410802 heartbeat IPC: 0.402881 cumulative IPC: 0.37975 (Simulation time: 0 hr 55 min 28 sec) 
Heartbeat CPU 0 instructions: 91000000 cycles: 125849318 heartbeat IPC: 0.410085 cumulative IPC: 0.380436 (Simulation time: 0 hr 56 min 4 sec) 
Heartbeat CPU 0 instructions: 92000000 cycles: 128785800 heartbeat IPC: 0.340544 cumulative IPC: 0.379378 (Simulation time: 0 hr 56 min 41 sec) 
Heartbeat CPU 0 instructions: 93000000 cycles: 131319121 heartbeat IPC: 0.394739 cumulative IPC: 0.379722 (Simulation time: 0 hr 57 min 16 sec) 
Heartbeat CPU 0 instructions: 94000003 cycles: 133856382 heartbeat IPC: 0.394127 cumulative IPC: 0.380037 (Simulation time: 0 hr 57 min 50 sec) 
Heartbeat CPU 0 instructions: 95000000 cycles: 136286706 heartbeat IPC: 0.411467 cumulative IPC: 0.380684 (Simulation time: 0 hr 58 min 23 sec) 
Heartbeat CPU 0 instructions: 96000000 cycles: 138799381 heartbeat IPC: 0.397982 cumulative IPC: 0.381044 (Simulation time: 0 hr 59 min 0 sec) 
Heartbeat CPU 0 instructions: 97000000 cycles: 141227434 heartbeat IPC: 0.411853 cumulative IPC: 0.381651 (Simulation time: 0 hr 59 min 35 sec) 
Heartbeat CPU 0 instructions: 98000000 cycles: 143748312 heartbeat IPC: 0.396687 cumulative IPC: 0.381953 (Simulation time: 1 hr 0 min 9 sec) 
Heartbeat CPU 0 instructions: 99000002 cycles: 146705268 heartbeat IPC: 0.338186 cumulative IPC: 0.380947 (Simulation time: 1 hr 0 min 44 sec) 
Heartbeat CPU 0 instructions: 100000000 cycles: 149453925 heartbeat IPC: 0.363813 cumulative IPC: 0.380588 (Simulation time: 1 hr 1 min 18 sec) 
Heartbeat CPU 0 instructions: 101000000 cycles: 152384527 heartbeat IPC: 0.341227 cumulative IPC: 0.379729 (Simulation time: 1 hr 1 min 54 sec) 
Heartbeat CPU 0 instructions: 102000001 cycles: 155849860 heartbeat IPC: 0.288573 cumulative IPC: 0.377436 (Simulation time: 1 hr 2 min 33 sec) 
Heartbeat CPU 0 instructions: 103000002 cycles: 159323139 heartbeat IPC: 0.287913 cumulative IPC: 0.375235 (Simulation time: 1 hr 3 min 7 sec) 
Heartbeat CPU 0 instructions: 104000000 cycles: 162426629 heartbeat IPC: 0.322217 cumulative IPC: 0.374095 (Simulation time: 1 hr 3 min 42 sec) 
Heartbeat CPU 0 instructions: 105000001 cycles: 165231846 heartbeat IPC: 0.356479 cumulative IPC: 0.373759 (Simulation time: 1 hr 4 min 18 sec) 
Heartbeat CPU 0 instructions: 106000001 cycles: 167842376 heartbeat IPC: 0.383064 cumulative IPC: 0.373921 (Simulation time: 1 hr 4 min 54 sec) 
Heartbeat CPU 0 instructions: 107000002 cycles: 170614255 heartbeat IPC: 0.360766 cumulative IPC: 0.373682 (Simulation time: 1 hr 5 min 29 sec) 
Heartbeat CPU 0 instructions: 108000000 cycles: 173536538 heartbeat IPC: 0.342198 cumulative IPC: 0.373091 (Simulation time: 1 hr 6 min 5 sec) 
Heartbeat CPU 0 instructions: 109000003 cycles: 176589938 heartbeat IPC: 0.327505 cumulative IPC: 0.372212 (Simulation time: 1 hr 6 min 40 sec) 
Heartbeat CPU 0 instructions: 110000003 cycles: 179582713 heartbeat IPC: 0.334138 cumulative IPC: 0.371507 (Simulation time: 1 hr 7 min 16 sec) 
Heartbeat CPU 0 instructions: 111000001 cycles: 182723807 heartbeat IPC: 0.31836 cumulative IPC: 0.370493 (Simulation time: 1 hr 7 min 50 sec) 
Heartbeat CPU 0 instructions: 112000000 cycles: 185905169 heartbeat IPC: 0.31433 cumulative IPC: 0.369428 (Simulation time: 1 hr 8 min 26 sec) 
Heartbeat CPU 0 instructions: 113000001 cycles: 188788477 heartbeat IPC: 0.346824 cumulative IPC: 0.369047 (Simulation time: 1 hr 9 min 1 sec) 
Heartbeat CPU 0 instructions: 114000000 cycles: 191525619 heartbeat IPC: 0.365344 cumulative IPC: 0.368988 (Simulation time: 1 hr 9 min 37 sec) 
Heartbeat CPU 0 instructions: 115000000 cycles: 194267478 heartbeat IPC: 0.364716 cumulative IPC: 0.368922 (Simulation time: 1 hr 10 min 13 sec) 
Heartbeat CPU 0 instructions: 116000000 cycles: 196969495 heartbeat IPC: 0.370094 cumulative IPC: 0.368939 (Simulation time: 1 hr 10 min 48 sec) 
Heartbeat CPU 0 instructions: 117000001 cycles: 199318668 heartbeat IPC: 0.425682 cumulative IPC: 0.369675 (Simulation time: 1 hr 11 min 24 sec) 
Heartbeat CPU 0 instructions: 118000002 cycles: 201603860 heartbeat IPC: 0.4376 cumulative IPC: 0.370521 (Simulation time: 1 hr 11 min 57 sec) 
Heartbeat CPU 0 instructions: 119000002 cycles: 204123239 heartbeat IPC: 0.396923 cumulative IPC: 0.370878 (Simulation time: 1 hr 12 min 32 sec) 
Heartbeat CPU 0 instructions: 120000000 cycles: 206875172 heartbeat IPC: 0.36338 cumulative IPC: 0.370769 (Simulation time: 1 hr 13 min 8 sec) 
Heartbeat CPU 0 instructions: 121000002 cycles: 209582385 heartbeat IPC: 0.369384 cumulative IPC: 0.370749 (Simulation time: 1 hr 13 min 46 sec) 
Heartbeat CPU 0 instructions: 122000001 cycles: 212521605 heartbeat IPC: 0.340226 cumulative IPC: 0.370288 (Simulation time: 1 hr 14 min 23 sec) 
Heartbeat CPU 0 instructions: 123000000 cycles: 215787503 heartbeat IPC: 0.306194 cumulative IPC: 0.369229 (Simulation time: 1 hr 14 min 59 sec) 
Heartbeat CPU 0 instructions: 124000000 cycles: 219329974 heartbeat IPC: 0.282289 cumulative IPC: 0.367699 (Simulation time: 1 hr 15 min 33 sec) 
Heartbeat CPU 0 instructions: 125000002 cycles: 222877988 heartbeat IPC: 0.281848 cumulative IPC: 0.366212 (Simulation time: 1 hr 16 min 9 sec) 
Heartbeat CPU 0 instructions: 126000000 cycles: 226801876 heartbeat IPC: 0.254849 cumulative IPC: 0.364118 (Simulation time: 1 hr 16 min 44 sec) 
Heartbeat CPU 0 instructions: 127000002 cycles: 230991235 heartbeat IPC: 0.2387 cumulative IPC: 0.36165 (Simulation time: 1 hr 17 min 19 sec) 
Heartbeat CPU 0 instructions: 128000000 cycles: 235124222 heartbeat IPC: 0.241955 cumulative IPC: 0.359371 (Simulation time: 1 hr 17 min 52 sec) 
Heartbeat CPU 0 instructions: 129000003 cycles: 239318541 heartbeat IPC: 0.238418 cumulative IPC: 0.357078 (Simulation time: 1 hr 18 min 27 sec) 
Heartbeat CPU 0 instructions: 130000003 cycles: 243440090 heartbeat IPC: 0.242627 cumulative IPC: 0.354985 (Simulation time: 1 hr 19 min 4 sec) 
Heartbeat CPU 0 instructions: 131000000 cycles: 247350046 heartbeat IPC: 0.255757 cumulative IPC: 0.353293 (Simulation time: 1 hr 19 min 36 sec) 
Heartbeat CPU 0 instructions: 132000000 cycles: 251441835 heartbeat IPC: 0.244392 cumulative IPC: 0.351383 (Simulation time: 1 hr 20 min 9 sec) 
Heartbeat CPU 0 instructions: 133000002 cycles: 255423914 heartbeat IPC: 0.251126 cumulative IPC: 0.349701 (Simulation time: 1 hr 20 min 43 sec) 
Heartbeat CPU 0 instructions: 134000000 cycles: 259421195 heartbeat IPC: 0.25017 cumulative IPC: 0.348053 (Simulation time: 1 hr 21 min 19 sec) 
Heartbeat CPU 0 instructions: 135000001 cycles: 263623420 heartbeat IPC: 0.237969 cumulative IPC: 0.346169 (Simulation time: 1 hr 21 min 49 sec) 
Heartbeat CPU 0 instructions: 136000000 cycles: 268098892 heartbeat IPC: 0.22344 cumulative IPC: 0.343972 (Simulation time: 1 hr 22 min 22 sec) 
Heartbeat CPU 0 instructions: 137000000 cycles: 272723059 heartbeat IPC: 0.216255 cumulative IPC: 0.341652 (Simulation time: 1 hr 22 min 55 sec) 
Heartbeat CPU 0 instructions: 138000000 cycles: 276572083 heartbeat IPC: 0.259806 cumulative IPC: 0.340434 (Simulation time: 1 hr 23 min 27 sec) 
Heartbeat CPU 0 instructions: 139000001 cycles: 278855414 heartbeat IPC: 0.437957 cumulative IPC: 0.341288 (Simulation time: 1 hr 23 min 58 sec) 
Heartbeat CPU 0 instructions: 140000000 cycles: 281421171 heartbeat IPC: 0.389748 cumulative IPC: 0.34176 (Simulation time: 1 hr 24 min 25 sec) 
Heartbeat CPU 0 instructions: 141000000 cycles: 283570298 heartbeat IPC: 0.465305 cumulative IPC: 0.34276 (Simulation time: 1 hr 24 min 55 sec) 
Heartbeat CPU 0 instructions: 142000000 cycles: 285931824 heartbeat IPC: 0.423455 cumulative IPC: 0.343471 (Simulation time: 1 hr 25 min 24 sec) 
Heartbeat CPU 0 instructions: 143000000 cycles: 288498280 heartbeat IPC: 0.389642 cumulative IPC: 0.34391 (Simulation time: 1 hr 25 min 52 sec) 
Heartbeat CPU 0 instructions: 144000000 cycles: 291028212 heartbeat IPC: 0.395268 cumulative IPC: 0.344386 (Simulation time: 1 hr 26 min 18 sec) 
Heartbeat CPU 0 instructions: 145000000 cycles: 293439290 heartbeat IPC: 0.414752 cumulative IPC: 0.345002 (Simulation time: 1 hr 26 min 44 sec) 
Heartbeat CPU 0 instructions: 146000001 cycles: 296226120 heartbeat IPC: 0.358831 cumulative IPC: 0.34514 (Simulation time: 1 hr 27 min 8 sec) 
Heartbeat CPU 0 instructions: 147000001 cycles: 298894851 heartbeat IPC: 0.37471 cumulative IPC: 0.345421 (Simulation time: 1 hr 27 min 34 sec) 
Heartbeat CPU 0 instructions: 148000000 cycles: 301569817 heartbeat IPC: 0.373836 cumulative IPC: 0.345689 (Simulation time: 1 hr 27 min 57 sec) 
Heartbeat CPU 0 instructions: 149000002 cycles: 304152477 heartbeat IPC: 0.387198 cumulative IPC: 0.346064 (Simulation time: 1 hr 28 min 19 sec) 
Heartbeat CPU 0 instructions: 150000001 cycles: 307300406 heartbeat IPC: 0.317669 cumulative IPC: 0.345755 (Simulation time: 1 hr 28 min 40 sec) 
Finished CPU 0 instructions: 100000000 cycles: 289222122 cummulative IPC: 0.345755 (Simulation time: 1 hr 28 min 40 sec) 

ChampSim completed all CPUs

Region of Interest Statistics

CPU 0 cummulative IPC: 0.345755 instructions: 100000000 cycles: 289222122
LLC TOTAL     ACCESS:    5177819  HIT:    4883108  MISS:     294711
LLC LOAD      ACCESS:    2110909  HIT:    2001618  MISS:     109291
LLC RFO       ACCESS:      25552  HIT:      25023  MISS:        529
LLC PREFETCH  ACCESS:    2248602  HIT:    2065318  MISS:     183284
LLC WRITEBACK ACCESS:     792756  HIT:     791149  MISS:       1607
OPTgen accesses: 13395
OPTgen hits: 17012
OPTgen hit rate: 127.003


