
*** ChampSim Multicore Out-of-Order Simulator ***

Warmup Instructions: 50000000
Simulation Instructions: 100000000
Configuration: 2
Number of CPUs: 1
LLC sets: 2048
LLC ways: 16
Off-chip DRAM Channels: 1 Width: 64-bit Data Rate: 1600 MT/s

CPU 0 runs /datasets/cs240c-wi22-a00-public/data/Assignment2-gz/zeusmp_600B.trace.gz
CPU 0 L1D next line prefetcher
CPU 0 L2C IP-based stride prefetcher
Initialize Hawkeye state
Heartbeat CPU 0 instructions: 1000000 cycles: 407346 heartbeat IPC: 2.45492 cumulative IPC: 2.45492 (Simulation time: 0 hr 0 min 47 sec) 
Heartbeat CPU 0 instructions: 2000001 cycles: 814284 heartbeat IPC: 2.45738 cumulative IPC: 2.45615 (Simulation time: 0 hr 1 min 41 sec) 
Heartbeat CPU 0 instructions: 3000000 cycles: 1221753 heartbeat IPC: 2.45417 cumulative IPC: 2.45549 (Simulation time: 0 hr 2 min 35 sec) 
Heartbeat CPU 0 instructions: 4000000 cycles: 1629404 heartbeat IPC: 2.45308 cumulative IPC: 2.45489 (Simulation time: 0 hr 3 min 21 sec) 
Heartbeat CPU 0 instructions: 5000001 cycles: 2036967 heartbeat IPC: 2.45361 cumulative IPC: 2.45463 (Simulation time: 0 hr 4 min 11 sec) 
Heartbeat CPU 0 instructions: 6000000 cycles: 2444291 heartbeat IPC: 2.45505 cumulative IPC: 2.4547 (Simulation time: 0 hr 5 min 2 sec) 
Heartbeat CPU 0 instructions: 7000000 cycles: 2851775 heartbeat IPC: 2.45408 cumulative IPC: 2.45461 (Simulation time: 0 hr 5 min 52 sec) 
Heartbeat CPU 0 instructions: 8000000 cycles: 3259377 heartbeat IPC: 2.45337 cumulative IPC: 2.45446 (Simulation time: 0 hr 6 min 46 sec) 
Heartbeat CPU 0 instructions: 9000003 cycles: 3666450 heartbeat IPC: 2.45657 cumulative IPC: 2.45469 (Simulation time: 0 hr 7 min 39 sec) 
Heartbeat CPU 0 instructions: 10000001 cycles: 4073948 heartbeat IPC: 2.45399 cumulative IPC: 2.45462 (Simulation time: 0 hr 8 min 28 sec) 
Heartbeat CPU 0 instructions: 11000000 cycles: 4481314 heartbeat IPC: 2.45479 cumulative IPC: 2.45464 (Simulation time: 0 hr 9 min 18 sec) 
Heartbeat CPU 0 instructions: 12000000 cycles: 4888910 heartbeat IPC: 2.45341 cumulative IPC: 2.45453 (Simulation time: 0 hr 10 min 11 sec) 
Heartbeat CPU 0 instructions: 13000003 cycles: 5296038 heartbeat IPC: 2.45624 cumulative IPC: 2.45467 (Simulation time: 0 hr 11 min 3 sec) 
Heartbeat CPU 0 instructions: 14000001 cycles: 5703620 heartbeat IPC: 2.45349 cumulative IPC: 2.45458 (Simulation time: 0 hr 11 min 50 sec) 
Heartbeat CPU 0 instructions: 15000003 cycles: 6111272 heartbeat IPC: 2.45308 cumulative IPC: 2.45448 (Simulation time: 0 hr 12 min 38 sec) 
Heartbeat CPU 0 instructions: 16000000 cycles: 6519155 heartbeat IPC: 2.45168 cumulative IPC: 2.45431 (Simulation time: 0 hr 13 min 23 sec) 
Heartbeat CPU 0 instructions: 17000002 cycles: 6945425 heartbeat IPC: 2.34594 cumulative IPC: 2.44765 (Simulation time: 0 hr 14 min 11 sec) 
Heartbeat CPU 0 instructions: 18000000 cycles: 7402887 heartbeat IPC: 2.18597 cumulative IPC: 2.43148 (Simulation time: 0 hr 15 min 1 sec) 
Heartbeat CPU 0 instructions: 19000000 cycles: 7812631 heartbeat IPC: 2.44055 cumulative IPC: 2.43196 (Simulation time: 0 hr 15 min 48 sec) 
Heartbeat CPU 0 instructions: 20000000 cycles: 8225105 heartbeat IPC: 2.4244 cumulative IPC: 2.43158 (Simulation time: 0 hr 16 min 31 sec) 
Heartbeat CPU 0 instructions: 21000001 cycles: 8686462 heartbeat IPC: 2.16752 cumulative IPC: 2.41756 (Simulation time: 0 hr 17 min 15 sec) 
Heartbeat CPU 0 instructions: 22000000 cycles: 9108335 heartbeat IPC: 2.37038 cumulative IPC: 2.41537 (Simulation time: 0 hr 17 min 58 sec) 
Heartbeat CPU 0 instructions: 23000000 cycles: 9515149 heartbeat IPC: 2.45813 cumulative IPC: 2.4172 (Simulation time: 0 hr 18 min 40 sec) 
Heartbeat CPU 0 instructions: 24000000 cycles: 9968803 heartbeat IPC: 2.20432 cumulative IPC: 2.40751 (Simulation time: 0 hr 19 min 26 sec) 
Heartbeat CPU 0 instructions: 25000000 cycles: 10408184 heartbeat IPC: 2.27593 cumulative IPC: 2.40196 (Simulation time: 0 hr 20 min 14 sec) 
Heartbeat CPU 0 instructions: 26000000 cycles: 10815139 heartbeat IPC: 2.45727 cumulative IPC: 2.40404 (Simulation time: 0 hr 21 min 0 sec) 
Heartbeat CPU 0 instructions: 27000003 cycles: 11253214 heartbeat IPC: 2.28272 cumulative IPC: 2.39931 (Simulation time: 0 hr 21 min 43 sec) 
Heartbeat CPU 0 instructions: 28000000 cycles: 11711459 heartbeat IPC: 2.18223 cumulative IPC: 2.39082 (Simulation time: 0 hr 22 min 26 sec) 
Heartbeat CPU 0 instructions: 29000000 cycles: 12119007 heartbeat IPC: 2.4537 cumulative IPC: 2.39294 (Simulation time: 0 hr 23 min 9 sec) 
Heartbeat CPU 0 instructions: 30000002 cycles: 12541767 heartbeat IPC: 2.36541 cumulative IPC: 2.39201 (Simulation time: 0 hr 23 min 52 sec) 
Heartbeat CPU 0 instructions: 31000002 cycles: 13008152 heartbeat IPC: 2.14415 cumulative IPC: 2.38312 (Simulation time: 0 hr 24 min 38 sec) 
Heartbeat CPU 0 instructions: 32000000 cycles: 13426551 heartbeat IPC: 2.39006 cumulative IPC: 2.38334 (Simulation time: 0 hr 25 min 18 sec) 
Heartbeat CPU 0 instructions: 33000002 cycles: 13838102 heartbeat IPC: 2.42984 cumulative IPC: 2.38472 (Simulation time: 0 hr 25 min 54 sec) 
Heartbeat CPU 0 instructions: 34000000 cycles: 14301783 heartbeat IPC: 2.15665 cumulative IPC: 2.37733 (Simulation time: 0 hr 26 min 29 sec) 
Heartbeat CPU 0 instructions: 35000001 cycles: 14738012 heartbeat IPC: 2.29238 cumulative IPC: 2.37481 (Simulation time: 0 hr 27 min 9 sec) 
Heartbeat CPU 0 instructions: 36000000 cycles: 15145661 heartbeat IPC: 2.45309 cumulative IPC: 2.37692 (Simulation time: 0 hr 27 min 54 sec) 
Heartbeat CPU 0 instructions: 37000001 cycles: 15596601 heartbeat IPC: 2.21759 cumulative IPC: 2.37231 (Simulation time: 0 hr 28 min 37 sec) 
Heartbeat CPU 0 instructions: 38000001 cycles: 16052828 heartbeat IPC: 2.19189 cumulative IPC: 2.36718 (Simulation time: 0 hr 29 min 26 sec) 
Heartbeat CPU 0 instructions: 39000002 cycles: 16459965 heartbeat IPC: 2.45618 cumulative IPC: 2.36939 (Simulation time: 0 hr 30 min 12 sec) 
Heartbeat CPU 0 instructions: 40000000 cycles: 16894196 heartbeat IPC: 2.30292 cumulative IPC: 2.36768 (Simulation time: 0 hr 30 min 54 sec) 
Heartbeat CPU 0 instructions: 41000002 cycles: 17361932 heartbeat IPC: 2.13796 cumulative IPC: 2.36149 (Simulation time: 0 hr 31 min 36 sec) 
Heartbeat CPU 0 instructions: 42000000 cycles: 17776373 heartbeat IPC: 2.41288 cumulative IPC: 2.36269 (Simulation time: 0 hr 32 min 19 sec) 
Heartbeat CPU 0 instructions: 43000003 cycles: 18194816 heartbeat IPC: 2.38982 cumulative IPC: 2.36331 (Simulation time: 0 hr 32 min 59 sec) 
Heartbeat CPU 0 instructions: 44000000 cycles: 18662030 heartbeat IPC: 2.14034 cumulative IPC: 2.35773 (Simulation time: 0 hr 33 min 44 sec) 
Heartbeat CPU 0 instructions: 45000003 cycles: 19093777 heartbeat IPC: 2.31618 cumulative IPC: 2.35679 (Simulation time: 0 hr 34 min 31 sec) 
Heartbeat CPU 0 instructions: 46000003 cycles: 19502053 heartbeat IPC: 2.44932 cumulative IPC: 2.35873 (Simulation time: 0 hr 35 min 18 sec) 
Heartbeat CPU 0 instructions: 47000001 cycles: 19962546 heartbeat IPC: 2.17158 cumulative IPC: 2.35441 (Simulation time: 0 hr 36 min 5 sec) 
Heartbeat CPU 0 instructions: 48000000 cycles: 20413618 heartbeat IPC: 2.21694 cumulative IPC: 2.35137 (Simulation time: 0 hr 36 min 46 sec) 
Heartbeat CPU 0 instructions: 49000001 cycles: 20820468 heartbeat IPC: 2.45791 cumulative IPC: 2.35345 (Simulation time: 0 hr 37 min 29 sec) 
Heartbeat CPU 0 instructions: 50000000 cycles: 21265975 heartbeat IPC: 2.24463 cumulative IPC: 2.35117 (Simulation time: 0 hr 38 min 11 sec) 

Warmup complete CPU 0 instructions: 50000001 cycles: 21265976 (Simulation time: 0 hr 38 min 11 sec) 

Heartbeat CPU 0 instructions: 51000001 cycles: 22045184 heartbeat IPC: 1.28335 cumulative IPC: 1.28335 (Simulation time: 0 hr 39 min 1 sec) 
Heartbeat CPU 0 instructions: 52000000 cycles: 22810636 heartbeat IPC: 1.30642 cumulative IPC: 1.29478 (Simulation time: 0 hr 39 min 55 sec) 
Heartbeat CPU 0 instructions: 53000001 cycles: 23586683 heartbeat IPC: 1.28858 cumulative IPC: 1.29271 (Simulation time: 0 hr 40 min 47 sec) 
Heartbeat CPU 0 instructions: 54000000 cycles: 24359999 heartbeat IPC: 1.29313 cumulative IPC: 1.29281 (Simulation time: 0 hr 41 min 35 sec) 
Heartbeat CPU 0 instructions: 55000001 cycles: 25129336 heartbeat IPC: 1.29982 cumulative IPC: 1.29421 (Simulation time: 0 hr 42 min 17 sec) 
Heartbeat CPU 0 instructions: 56000000 cycles: 25901069 heartbeat IPC: 1.29578 cumulative IPC: 1.29447 (Simulation time: 0 hr 43 min 5 sec) 
Heartbeat CPU 0 instructions: 57000003 cycles: 26680503 heartbeat IPC: 1.28299 cumulative IPC: 1.29282 (Simulation time: 0 hr 43 min 57 sec) 
Heartbeat CPU 0 instructions: 58000001 cycles: 27446414 heartbeat IPC: 1.30563 cumulative IPC: 1.29441 (Simulation time: 0 hr 44 min 50 sec) 
Heartbeat CPU 0 instructions: 59000000 cycles: 28222788 heartbeat IPC: 1.28804 cumulative IPC: 1.2937 (Simulation time: 0 hr 45 min 42 sec) 
Heartbeat CPU 0 instructions: 60000000 cycles: 28994781 heartbeat IPC: 1.29535 cumulative IPC: 1.29386 (Simulation time: 0 hr 46 min 30 sec) 
Heartbeat CPU 0 instructions: 61000003 cycles: 29764080 heartbeat IPC: 1.29989 cumulative IPC: 1.29441 (Simulation time: 0 hr 47 min 15 sec) 
Heartbeat CPU 0 instructions: 62000001 cycles: 30542703 heartbeat IPC: 1.28432 cumulative IPC: 1.29356 (Simulation time: 0 hr 48 min 6 sec) 
Heartbeat CPU 0 instructions: 63000000 cycles: 31317259 heartbeat IPC: 1.29106 cumulative IPC: 1.29337 (Simulation time: 0 hr 48 min 56 sec) 
Heartbeat CPU 0 instructions: 64000000 cycles: 32087377 heartbeat IPC: 1.2985 cumulative IPC: 1.29373 (Simulation time: 0 hr 49 min 50 sec) 
Heartbeat CPU 0 instructions: 65000001 cycles: 32868998 heartbeat IPC: 1.27939 cumulative IPC: 1.29277 (Simulation time: 0 hr 50 min 41 sec) 
Heartbeat CPU 0 instructions: 66000000 cycles: 33650697 heartbeat IPC: 1.27926 cumulative IPC: 1.29191 (Simulation time: 0 hr 51 min 27 sec) 
Heartbeat CPU 0 instructions: 67000001 cycles: 34432800 heartbeat IPC: 1.27861 cumulative IPC: 1.29112 (Simulation time: 0 hr 52 min 19 sec) 
Heartbeat CPU 0 instructions: 68000000 cycles: 35215254 heartbeat IPC: 1.27803 cumulative IPC: 1.29039 (Simulation time: 0 hr 53 min 9 sec) 
Heartbeat CPU 0 instructions: 69000002 cycles: 35997114 heartbeat IPC: 1.279 cumulative IPC: 1.28979 (Simulation time: 0 hr 54 min 3 sec) 
Heartbeat CPU 0 instructions: 70000000 cycles: 36773254 heartbeat IPC: 1.28842 cumulative IPC: 1.28972 (Simulation time: 0 hr 54 min 49 sec) 
Heartbeat CPU 0 instructions: 71000001 cycles: 37552355 heartbeat IPC: 1.28353 cumulative IPC: 1.28942 (Simulation time: 0 hr 55 min 38 sec) 
Heartbeat CPU 0 instructions: 72000000 cycles: 38332072 heartbeat IPC: 1.28252 cumulative IPC: 1.28911 (Simulation time: 0 hr 56 min 26 sec) 
Heartbeat CPU 0 instructions: 73000003 cycles: 39103186 heartbeat IPC: 1.29683 cumulative IPC: 1.28944 (Simulation time: 0 hr 57 min 14 sec) 
Heartbeat CPU 0 instructions: 74000002 cycles: 39885347 heartbeat IPC: 1.27851 cumulative IPC: 1.28898 (Simulation time: 0 hr 58 min 4 sec) 
Heartbeat CPU 0 instructions: 75000003 cycles: 40664021 heartbeat IPC: 1.28424 cumulative IPC: 1.28879 (Simulation time: 0 hr 58 min 57 sec) 
Heartbeat CPU 0 instructions: 76000000 cycles: 41444439 heartbeat IPC: 1.28136 cumulative IPC: 1.2885 (Simulation time: 0 hr 59 min 40 sec) 
Heartbeat CPU 0 instructions: 77000000 cycles: 42220008 heartbeat IPC: 1.28938 cumulative IPC: 1.28853 (Simulation time: 1 hr 0 min 36 sec) 
Heartbeat CPU 0 instructions: 78000003 cycles: 42998855 heartbeat IPC: 1.28395 cumulative IPC: 1.28837 (Simulation time: 1 hr 1 min 27 sec) 
Heartbeat CPU 0 instructions: 79000000 cycles: 43775395 heartbeat IPC: 1.28776 cumulative IPC: 1.28835 (Simulation time: 1 hr 2 min 18 sec) 
Heartbeat CPU 0 instructions: 80000000 cycles: 44558580 heartbeat IPC: 1.27684 cumulative IPC: 1.28796 (Simulation time: 1 hr 3 min 0 sec) 
Heartbeat CPU 0 instructions: 81000002 cycles: 45337209 heartbeat IPC: 1.28431 cumulative IPC: 1.28784 (Simulation time: 1 hr 3 min 49 sec) 
Heartbeat CPU 0 instructions: 82000002 cycles: 46117464 heartbeat IPC: 1.28163 cumulative IPC: 1.28765 (Simulation time: 1 hr 4 min 46 sec) 
Heartbeat CPU 0 instructions: 83000001 cycles: 46887935 heartbeat IPC: 1.29791 cumulative IPC: 1.28796 (Simulation time: 1 hr 5 min 41 sec) 
Heartbeat CPU 0 instructions: 84000000 cycles: 47670002 heartbeat IPC: 1.27866 cumulative IPC: 1.28768 (Simulation time: 1 hr 6 min 29 sec) 
Heartbeat CPU 0 instructions: 85000002 cycles: 48451213 heartbeat IPC: 1.28007 cumulative IPC: 1.28746 (Simulation time: 1 hr 7 min 21 sec) 
Heartbeat CPU 0 instructions: 86000002 cycles: 49229867 heartbeat IPC: 1.28427 cumulative IPC: 1.28737 (Simulation time: 1 hr 8 min 5 sec) 
Heartbeat CPU 0 instructions: 87000000 cycles: 50013416 heartbeat IPC: 1.27624 cumulative IPC: 1.28707 (Simulation time: 1 hr 8 min 58 sec) 
Heartbeat CPU 0 instructions: 88000000 cycles: 50795384 heartbeat IPC: 1.27882 cumulative IPC: 1.28685 (Simulation time: 1 hr 9 min 54 sec) 
Heartbeat CPU 0 instructions: 89000002 cycles: 51572385 heartbeat IPC: 1.287 cumulative IPC: 1.28686 (Simulation time: 1 hr 10 min 45 sec) 
Heartbeat CPU 0 instructions: 90000002 cycles: 52347803 heartbeat IPC: 1.28963 cumulative IPC: 1.28693 (Simulation time: 1 hr 11 min 33 sec) 
Heartbeat CPU 0 instructions: 91000001 cycles: 53126801 heartbeat IPC: 1.2837 cumulative IPC: 1.28685 (Simulation time: 1 hr 12 min 24 sec) 
Heartbeat CPU 0 instructions: 92000000 cycles: 53916278 heartbeat IPC: 1.26666 cumulative IPC: 1.28636 (Simulation time: 1 hr 13 min 15 sec) 
Heartbeat CPU 0 instructions: 93000000 cycles: 54693009 heartbeat IPC: 1.28745 cumulative IPC: 1.28638 (Simulation time: 1 hr 14 min 3 sec) 
Heartbeat CPU 0 instructions: 94000002 cycles: 55470886 heartbeat IPC: 1.28555 cumulative IPC: 1.28637 (Simulation time: 1 hr 14 min 50 sec) 
Heartbeat CPU 0 instructions: 95000001 cycles: 56254537 heartbeat IPC: 1.27608 cumulative IPC: 1.28613 (Simulation time: 1 hr 15 min 48 sec) 
Heartbeat CPU 0 instructions: 96000000 cycles: 57029495 heartbeat IPC: 1.29039 cumulative IPC: 1.28623 (Simulation time: 1 hr 16 min 35 sec) 
Heartbeat CPU 0 instructions: 97000003 cycles: 57803090 heartbeat IPC: 1.29267 cumulative IPC: 1.28636 (Simulation time: 1 hr 17 min 24 sec) 
Heartbeat CPU 0 instructions: 98000002 cycles: 58581749 heartbeat IPC: 1.28426 cumulative IPC: 1.28632 (Simulation time: 1 hr 18 min 13 sec) 
Heartbeat CPU 0 instructions: 99000000 cycles: 59371387 heartbeat IPC: 1.2664 cumulative IPC: 1.28591 (Simulation time: 1 hr 19 min 3 sec) 
Heartbeat CPU 0 instructions: 100000000 cycles: 60146965 heartbeat IPC: 1.28936 cumulative IPC: 1.28598 (Simulation time: 1 hr 19 min 48 sec) 
Heartbeat CPU 0 instructions: 101000002 cycles: 60921415 heartbeat IPC: 1.29124 cumulative IPC: 1.28608 (Simulation time: 1 hr 20 min 33 sec) 
Heartbeat CPU 0 instructions: 102000002 cycles: 61713762 heartbeat IPC: 1.26207 cumulative IPC: 1.28561 (Simulation time: 1 hr 21 min 17 sec) 
Heartbeat CPU 0 instructions: 103000001 cycles: 62487424 heartbeat IPC: 1.29255 cumulative IPC: 1.28574 (Simulation time: 1 hr 21 min 58 sec) 
Heartbeat CPU 0 instructions: 104000000 cycles: 63277524 heartbeat IPC: 1.26566 cumulative IPC: 1.28536 (Simulation time: 1 hr 22 min 41 sec) 
Heartbeat CPU 0 instructions: 105000001 cycles: 64063125 heartbeat IPC: 1.27291 cumulative IPC: 1.28513 (Simulation time: 1 hr 23 min 13 sec) 
Heartbeat CPU 0 instructions: 106000000 cycles: 64840481 heartbeat IPC: 1.28641 cumulative IPC: 1.28516 (Simulation time: 1 hr 23 min 44 sec) 
Heartbeat CPU 0 instructions: 107000000 cycles: 65621775 heartbeat IPC: 1.27993 cumulative IPC: 1.28506 (Simulation time: 1 hr 24 min 15 sec) 
Heartbeat CPU 0 instructions: 108000000 cycles: 66402956 heartbeat IPC: 1.28011 cumulative IPC: 1.28498 (Simulation time: 1 hr 24 min 43 sec) 
Heartbeat CPU 0 instructions: 109000000 cycles: 67186886 heartbeat IPC: 1.27562 cumulative IPC: 1.28482 (Simulation time: 1 hr 25 min 13 sec) 
Heartbeat CPU 0 instructions: 110000002 cycles: 67972944 heartbeat IPC: 1.27217 cumulative IPC: 1.2846 (Simulation time: 1 hr 25 min 41 sec) 
Heartbeat CPU 0 instructions: 111000000 cycles: 68751722 heartbeat IPC: 1.28406 cumulative IPC: 1.2846 (Simulation time: 1 hr 26 min 8 sec) 
Heartbeat CPU 0 instructions: 112000000 cycles: 69540892 heartbeat IPC: 1.26715 cumulative IPC: 1.28431 (Simulation time: 1 hr 26 min 36 sec) 
Heartbeat CPU 0 instructions: 113000003 cycles: 70326093 heartbeat IPC: 1.27356 cumulative IPC: 1.28414 (Simulation time: 1 hr 27 min 1 sec) 
Heartbeat CPU 0 instructions: 114000000 cycles: 71108450 heartbeat IPC: 1.27819 cumulative IPC: 1.28405 (Simulation time: 1 hr 27 min 25 sec) 
Heartbeat CPU 0 instructions: 115000000 cycles: 71887313 heartbeat IPC: 1.28392 cumulative IPC: 1.28404 (Simulation time: 1 hr 27 min 48 sec) 
Heartbeat CPU 0 instructions: 116000000 cycles: 72668352 heartbeat IPC: 1.28035 cumulative IPC: 1.28399 (Simulation time: 1 hr 28 min 10 sec) 
Heartbeat CPU 0 instructions: 117000000 cycles: 73451749 heartbeat IPC: 1.27649 cumulative IPC: 1.28387 (Simulation time: 1 hr 28 min 30 sec) 
Heartbeat CPU 0 instructions: 118000000 cycles: 74231541 heartbeat IPC: 1.28239 cumulative IPC: 1.28385 (Simulation time: 1 hr 28 min 49 sec) 
Heartbeat CPU 0 instructions: 119000000 cycles: 75006752 heartbeat IPC: 1.28997 cumulative IPC: 1.28394 (Simulation time: 1 hr 29 min 7 sec) 
Heartbeat CPU 0 instructions: 120000000 cycles: 75792714 heartbeat IPC: 1.27233 cumulative IPC: 1.28377 (Simulation time: 1 hr 29 min 27 sec) 
Heartbeat CPU 0 instructions: 121000000 cycles: 76574430 heartbeat IPC: 1.27924 cumulative IPC: 1.28371 (Simulation time: 1 hr 29 min 46 sec) 
Heartbeat CPU 0 instructions: 122000003 cycles: 77352650 heartbeat IPC: 1.28499 cumulative IPC: 1.28373 (Simulation time: 1 hr 30 min 5 sec) 
Heartbeat CPU 0 instructions: 123000001 cycles: 78133295 heartbeat IPC: 1.28099 cumulative IPC: 1.28369 (Simulation time: 1 hr 30 min 23 sec) 
Heartbeat CPU 0 instructions: 124000000 cycles: 78914448 heartbeat IPC: 1.28016 cumulative IPC: 1.28364 (Simulation time: 1 hr 30 min 43 sec) 
Heartbeat CPU 0 instructions: 125000001 cycles: 79693691 heartbeat IPC: 1.2833 cumulative IPC: 1.28364 (Simulation time: 1 hr 31 min 3 sec) 
Heartbeat CPU 0 instructions: 126000003 cycles: 80477299 heartbeat IPC: 1.27615 cumulative IPC: 1.28354 (Simulation time: 1 hr 31 min 23 sec) 
Heartbeat CPU 0 instructions: 127000003 cycles: 81263891 heartbeat IPC: 1.27131 cumulative IPC: 1.28338 (Simulation time: 1 hr 31 min 43 sec) 
Heartbeat CPU 0 instructions: 128000000 cycles: 82033663 heartbeat IPC: 1.29908 cumulative IPC: 1.28358 (Simulation time: 1 hr 32 min 6 sec) 
Heartbeat CPU 0 instructions: 129000002 cycles: 82808919 heartbeat IPC: 1.2899 cumulative IPC: 1.28366 (Simulation time: 1 hr 32 min 28 sec) 
Heartbeat CPU 0 instructions: 130000003 cycles: 83592148 heartbeat IPC: 1.27677 cumulative IPC: 1.28357 (Simulation time: 1 hr 32 min 54 sec) 
Heartbeat CPU 0 instructions: 131000003 cycles: 84376784 heartbeat IPC: 1.27448 cumulative IPC: 1.28346 (Simulation time: 1 hr 33 min 20 sec) 
Heartbeat CPU 0 instructions: 132000000 cycles: 85158521 heartbeat IPC: 1.2792 cumulative IPC: 1.2834 (Simulation time: 1 hr 33 min 41 sec) 
Heartbeat CPU 0 instructions: 133000001 cycles: 85937288 heartbeat IPC: 1.28408 cumulative IPC: 1.28341 (Simulation time: 1 hr 33 min 59 sec) 
Heartbeat CPU 0 instructions: 134000003 cycles: 86723921 heartbeat IPC: 1.27124 cumulative IPC: 1.28327 (Simulation time: 1 hr 34 min 17 sec) 
Heartbeat CPU 0 instructions: 135000000 cycles: 87502484 heartbeat IPC: 1.28441 cumulative IPC: 1.28328 (Simulation time: 1 hr 34 min 35 sec) 
Heartbeat CPU 0 instructions: 136000000 cycles: 88293960 heartbeat IPC: 1.26346 cumulative IPC: 1.28305 (Simulation time: 1 hr 34 min 53 sec) 
Heartbeat CPU 0 instructions: 137000003 cycles: 89068659 heartbeat IPC: 1.29083 cumulative IPC: 1.28314 (Simulation time: 1 hr 35 min 11 sec) 
Heartbeat CPU 0 instructions: 138000000 cycles: 89836220 heartbeat IPC: 1.30282 cumulative IPC: 1.28336 (Simulation time: 1 hr 35 min 28 sec) 
Heartbeat CPU 0 instructions: 139000000 cycles: 90623288 heartbeat IPC: 1.27054 cumulative IPC: 1.28321 (Simulation time: 1 hr 35 min 45 sec) 
Heartbeat CPU 0 instructions: 140000000 cycles: 91412743 heartbeat IPC: 1.2667 cumulative IPC: 1.28302 (Simulation time: 1 hr 36 min 2 sec) 
Heartbeat CPU 0 instructions: 141000000 cycles: 92191156 heartbeat IPC: 1.28467 cumulative IPC: 1.28304 (Simulation time: 1 hr 36 min 17 sec) 
Heartbeat CPU 0 instructions: 142000003 cycles: 92970732 heartbeat IPC: 1.28275 cumulative IPC: 1.28304 (Simulation time: 1 hr 36 min 31 sec) 
Heartbeat CPU 0 instructions: 143000001 cycles: 93758253 heartbeat IPC: 1.2698 cumulative IPC: 1.2829 (Simulation time: 1 hr 36 min 44 sec) 
Heartbeat CPU 0 instructions: 144000000 cycles: 94537667 heartbeat IPC: 1.28301 cumulative IPC: 1.2829 (Simulation time: 1 hr 36 min 56 sec) 
Heartbeat CPU 0 instructions: 145000001 cycles: 95320637 heartbeat IPC: 1.27719 cumulative IPC: 1.28284 (Simulation time: 1 hr 37 min 10 sec) 
Heartbeat CPU 0 instructions: 146000000 cycles: 96107320 heartbeat IPC: 1.27116 cumulative IPC: 1.28271 (Simulation time: 1 hr 37 min 23 sec) 
Heartbeat CPU 0 instructions: 147000000 cycles: 96890598 heartbeat IPC: 1.27669 cumulative IPC: 1.28265 (Simulation time: 1 hr 37 min 36 sec) 
Heartbeat CPU 0 instructions: 148000000 cycles: 97670719 heartbeat IPC: 1.28185 cumulative IPC: 1.28264 (Simulation time: 1 hr 37 min 48 sec) 
Heartbeat CPU 0 instructions: 149000001 cycles: 98444502 heartbeat IPC: 1.29235 cumulative IPC: 1.28274 (Simulation time: 1 hr 38 min 0 sec) 
Heartbeat CPU 0 instructions: 150000000 cycles: 99227950 heartbeat IPC: 1.27641 cumulative IPC: 1.28268 (Simulation time: 1 hr 38 min 11 sec) 
Finished CPU 0 instructions: 100000003 cycles: 77961975 cummulative IPC: 1.28268 (Simulation time: 1 hr 38 min 11 sec) 

ChampSim completed all CPUs

Region of Interest Statistics

CPU 0 cummulative IPC: 1.28268 instructions: 100000003 cycles: 77961975
LLC TOTAL     ACCESS:     381298  HIT:      61632  MISS:     319666
LLC LOAD      ACCESS:      29186  HIT:         63  MISS:      29123
LLC RFO       ACCESS:          0  HIT:          0  MISS:          0
LLC PREFETCH  ACCESS:     288355  HIT:        745  MISS:     287610
LLC WRITEBACK ACCESS:      63757  HIT:      60824  MISS:       2933
OPTgen accesses: 327
OPTgen hits: 38
OPTgen hit rate: 11.6208


