
*** ChampSim Multicore Out-of-Order Simulator ***

Warmup Instructions: 50000000
Simulation Instructions: 100000000
Configuration: 2
Number of CPUs: 1
LLC sets: 2048
LLC ways: 16
Off-chip DRAM Channels: 1 Width: 64-bit Data Rate: 1600 MT/s

CPU 0 runs /datasets/cs240c-wi22-a00-public/data/Assignment2-gz/calculix_3812B.trace.gz
CPU 0 L1D next line prefetcher
CPU 0 L2C IP-based stride prefetcher
Initialize Hawkeye state
Heartbeat CPU 0 instructions: 1000001 cycles: 478689 heartbeat IPC: 2.08904 cumulative IPC: 2.08904 (Simulation time: 0 hr 0 min 35 sec) 
Heartbeat CPU 0 instructions: 2000002 cycles: 956483 heartbeat IPC: 2.09295 cumulative IPC: 2.091 (Simulation time: 0 hr 1 min 8 sec) 
Heartbeat CPU 0 instructions: 3000002 cycles: 1434999 heartbeat IPC: 2.08979 cumulative IPC: 2.0906 (Simulation time: 0 hr 1 min 42 sec) 
Heartbeat CPU 0 instructions: 4000000 cycles: 1907482 heartbeat IPC: 2.11647 cumulative IPC: 2.09701 (Simulation time: 0 hr 2 min 13 sec) 
Heartbeat CPU 0 instructions: 5000000 cycles: 2356307 heartbeat IPC: 2.22804 cumulative IPC: 2.12196 (Simulation time: 0 hr 2 min 44 sec) 
Heartbeat CPU 0 instructions: 6000003 cycles: 2761688 heartbeat IPC: 2.46682 cumulative IPC: 2.17259 (Simulation time: 0 hr 3 min 7 sec) 
Heartbeat CPU 0 instructions: 7000002 cycles: 3154798 heartbeat IPC: 2.54381 cumulative IPC: 2.21884 (Simulation time: 0 hr 3 min 32 sec) 
Heartbeat CPU 0 instructions: 8000000 cycles: 3547939 heartbeat IPC: 2.54361 cumulative IPC: 2.25483 (Simulation time: 0 hr 3 min 58 sec) 
Heartbeat CPU 0 instructions: 9000000 cycles: 3940928 heartbeat IPC: 2.5446 cumulative IPC: 2.28373 (Simulation time: 0 hr 4 min 22 sec) 
Heartbeat CPU 0 instructions: 10000003 cycles: 4334017 heartbeat IPC: 2.54396 cumulative IPC: 2.30733 (Simulation time: 0 hr 4 min 44 sec) 
Heartbeat CPU 0 instructions: 11000000 cycles: 4726964 heartbeat IPC: 2.54486 cumulative IPC: 2.32708 (Simulation time: 0 hr 5 min 8 sec) 
Heartbeat CPU 0 instructions: 12000000 cycles: 5120150 heartbeat IPC: 2.54333 cumulative IPC: 2.34368 (Simulation time: 0 hr 5 min 28 sec) 
Heartbeat CPU 0 instructions: 13000003 cycles: 5513237 heartbeat IPC: 2.54397 cumulative IPC: 2.35796 (Simulation time: 0 hr 5 min 52 sec) 
Heartbeat CPU 0 instructions: 14000001 cycles: 5942143 heartbeat IPC: 2.33151 cumulative IPC: 2.35605 (Simulation time: 0 hr 6 min 22 sec) 
Heartbeat CPU 0 instructions: 15000000 cycles: 6335382 heartbeat IPC: 2.54298 cumulative IPC: 2.36766 (Simulation time: 0 hr 6 min 47 sec) 
Heartbeat CPU 0 instructions: 16000000 cycles: 6728574 heartbeat IPC: 2.54329 cumulative IPC: 2.37792 (Simulation time: 0 hr 7 min 10 sec) 
Heartbeat CPU 0 instructions: 17000002 cycles: 7121750 heartbeat IPC: 2.5434 cumulative IPC: 2.38705 (Simulation time: 0 hr 7 min 33 sec) 
Heartbeat CPU 0 instructions: 18000001 cycles: 7515077 heartbeat IPC: 2.54241 cumulative IPC: 2.39519 (Simulation time: 0 hr 7 min 55 sec) 
Heartbeat CPU 0 instructions: 19000001 cycles: 7908294 heartbeat IPC: 2.54313 cumulative IPC: 2.40254 (Simulation time: 0 hr 8 min 18 sec) 
Heartbeat CPU 0 instructions: 20000000 cycles: 8301268 heartbeat IPC: 2.5447 cumulative IPC: 2.40927 (Simulation time: 0 hr 8 min 39 sec) 
Heartbeat CPU 0 instructions: 21000000 cycles: 8694479 heartbeat IPC: 2.54316 cumulative IPC: 2.41533 (Simulation time: 0 hr 9 min 3 sec) 
Heartbeat CPU 0 instructions: 22000003 cycles: 9087728 heartbeat IPC: 2.54293 cumulative IPC: 2.42085 (Simulation time: 0 hr 9 min 24 sec) 
Heartbeat CPU 0 instructions: 23000002 cycles: 9480995 heartbeat IPC: 2.5428 cumulative IPC: 2.42591 (Simulation time: 0 hr 9 min 50 sec) 
Heartbeat CPU 0 instructions: 24000000 cycles: 9874253 heartbeat IPC: 2.54285 cumulative IPC: 2.43056 (Simulation time: 0 hr 10 min 12 sec) 
Heartbeat CPU 0 instructions: 25000003 cycles: 10262723 heartbeat IPC: 2.57421 cumulative IPC: 2.436 (Simulation time: 0 hr 10 min 36 sec) 
Heartbeat CPU 0 instructions: 26000003 cycles: 10649332 heartbeat IPC: 2.58659 cumulative IPC: 2.44147 (Simulation time: 0 hr 11 min 2 sec) 
Heartbeat CPU 0 instructions: 27000000 cycles: 11035434 heartbeat IPC: 2.58998 cumulative IPC: 2.44666 (Simulation time: 0 hr 11 min 26 sec) 
Heartbeat CPU 0 instructions: 28000000 cycles: 11422756 heartbeat IPC: 2.58183 cumulative IPC: 2.45125 (Simulation time: 0 hr 11 min 53 sec) 
Heartbeat CPU 0 instructions: 29000003 cycles: 11815304 heartbeat IPC: 2.54747 cumulative IPC: 2.45444 (Simulation time: 0 hr 12 min 17 sec) 
Heartbeat CPU 0 instructions: 30000001 cycles: 12202094 heartbeat IPC: 2.58538 cumulative IPC: 2.45859 (Simulation time: 0 hr 12 min 48 sec) 
Heartbeat CPU 0 instructions: 31000001 cycles: 12567509 heartbeat IPC: 2.73661 cumulative IPC: 2.46668 (Simulation time: 0 hr 13 min 19 sec) 
Heartbeat CPU 0 instructions: 32000000 cycles: 13033830 heartbeat IPC: 2.14444 cumulative IPC: 2.45515 (Simulation time: 0 hr 14 min 1 sec) 
Heartbeat CPU 0 instructions: 33000003 cycles: 13513411 heartbeat IPC: 2.08516 cumulative IPC: 2.44202 (Simulation time: 0 hr 14 min 41 sec) 
Heartbeat CPU 0 instructions: 34000000 cycles: 13993161 heartbeat IPC: 2.08441 cumulative IPC: 2.42976 (Simulation time: 0 hr 15 min 21 sec) 
Heartbeat CPU 0 instructions: 35000000 cycles: 14471852 heartbeat IPC: 2.08903 cumulative IPC: 2.41849 (Simulation time: 0 hr 16 min 1 sec) 
Heartbeat CPU 0 instructions: 36000000 cycles: 14948720 heartbeat IPC: 2.09702 cumulative IPC: 2.40823 (Simulation time: 0 hr 16 min 41 sec) 
Heartbeat CPU 0 instructions: 37000003 cycles: 15427171 heartbeat IPC: 2.09008 cumulative IPC: 2.39837 (Simulation time: 0 hr 17 min 21 sec) 
Heartbeat CPU 0 instructions: 38000003 cycles: 15900976 heartbeat IPC: 2.11057 cumulative IPC: 2.38979 (Simulation time: 0 hr 18 min 1 sec) 
Heartbeat CPU 0 instructions: 39000001 cycles: 16324330 heartbeat IPC: 2.36208 cumulative IPC: 2.38907 (Simulation time: 0 hr 18 min 37 sec) 
Heartbeat CPU 0 instructions: 40000000 cycles: 16759421 heartbeat IPC: 2.29837 cumulative IPC: 2.38672 (Simulation time: 0 hr 19 min 13 sec) 
Heartbeat CPU 0 instructions: 41000002 cycles: 17202708 heartbeat IPC: 2.25588 cumulative IPC: 2.38335 (Simulation time: 0 hr 19 min 47 sec) 
Heartbeat CPU 0 instructions: 42000003 cycles: 17578928 heartbeat IPC: 2.65802 cumulative IPC: 2.38922 (Simulation time: 0 hr 20 min 21 sec) 
Heartbeat CPU 0 instructions: 43000000 cycles: 17974092 heartbeat IPC: 2.53059 cumulative IPC: 2.39233 (Simulation time: 0 hr 20 min 54 sec) 
Heartbeat CPU 0 instructions: 44000000 cycles: 18451879 heartbeat IPC: 2.09298 cumulative IPC: 2.38458 (Simulation time: 0 hr 21 min 32 sec) 
Heartbeat CPU 0 instructions: 45000002 cycles: 18927218 heartbeat IPC: 2.10377 cumulative IPC: 2.37753 (Simulation time: 0 hr 22 min 7 sec) 
Heartbeat CPU 0 instructions: 46000002 cycles: 19405122 heartbeat IPC: 2.09247 cumulative IPC: 2.37051 (Simulation time: 0 hr 22 min 43 sec) 
Heartbeat CPU 0 instructions: 47000002 cycles: 19841091 heartbeat IPC: 2.29374 cumulative IPC: 2.36882 (Simulation time: 0 hr 23 min 13 sec) 
Heartbeat CPU 0 instructions: 48000000 cycles: 20235005 heartbeat IPC: 2.53862 cumulative IPC: 2.37213 (Simulation time: 0 hr 23 min 39 sec) 
Heartbeat CPU 0 instructions: 49000001 cycles: 20628498 heartbeat IPC: 2.54134 cumulative IPC: 2.37535 (Simulation time: 0 hr 24 min 7 sec) 
Heartbeat CPU 0 instructions: 50000000 cycles: 21023604 heartbeat IPC: 2.53096 cumulative IPC: 2.37828 (Simulation time: 0 hr 24 min 35 sec) 

Warmup complete CPU 0 instructions: 50000004 cycles: 21023605 (Simulation time: 0 hr 24 min 35 sec) 

Heartbeat CPU 0 instructions: 51000000 cycles: 21606205 heartbeat IPC: 1.71644 cumulative IPC: 1.71644 (Simulation time: 0 hr 25 min 8 sec) 
Heartbeat CPU 0 instructions: 52000000 cycles: 22204479 heartbeat IPC: 1.67147 cumulative IPC: 1.69366 (Simulation time: 0 hr 25 min 40 sec) 
Heartbeat CPU 0 instructions: 53000000 cycles: 22669990 heartbeat IPC: 2.14818 cumulative IPC: 1.82217 (Simulation time: 0 hr 26 min 10 sec) 
Heartbeat CPU 0 instructions: 54000003 cycles: 23109244 heartbeat IPC: 2.27659 cumulative IPC: 1.91788 (Simulation time: 0 hr 26 min 39 sec) 
Heartbeat CPU 0 instructions: 55000001 cycles: 23548776 heartbeat IPC: 2.27514 cumulative IPC: 1.98006 (Simulation time: 0 hr 27 min 10 sec) 
Heartbeat CPU 0 instructions: 56000000 cycles: 23988636 heartbeat IPC: 2.27345 cumulative IPC: 2.02359 (Simulation time: 0 hr 27 min 37 sec) 
Heartbeat CPU 0 instructions: 57000003 cycles: 24429277 heartbeat IPC: 2.26943 cumulative IPC: 2.05539 (Simulation time: 0 hr 28 min 6 sec) 
Heartbeat CPU 0 instructions: 58000002 cycles: 24893533 heartbeat IPC: 2.15398 cumulative IPC: 2.06722 (Simulation time: 0 hr 28 min 36 sec) 
Heartbeat CPU 0 instructions: 59000001 cycles: 25486472 heartbeat IPC: 1.68651 cumulative IPC: 2.01664 (Simulation time: 0 hr 29 min 6 sec) 
Heartbeat CPU 0 instructions: 60000000 cycles: 25922711 heartbeat IPC: 2.29232 cumulative IPC: 2.04119 (Simulation time: 0 hr 29 min 37 sec) 
Heartbeat CPU 0 instructions: 61000003 cycles: 26360394 heartbeat IPC: 2.28477 cumulative IPC: 2.06116 (Simulation time: 0 hr 30 min 6 sec) 
Heartbeat CPU 0 instructions: 62000002 cycles: 26797446 heartbeat IPC: 2.28805 cumulative IPC: 2.07834 (Simulation time: 0 hr 30 min 35 sec) 
Heartbeat CPU 0 instructions: 63000003 cycles: 27235565 heartbeat IPC: 2.28249 cumulative IPC: 2.09274 (Simulation time: 0 hr 31 min 4 sec) 
Heartbeat CPU 0 instructions: 64000000 cycles: 27673072 heartbeat IPC: 2.28567 cumulative IPC: 2.10543 (Simulation time: 0 hr 31 min 35 sec) 
Heartbeat CPU 0 instructions: 65000000 cycles: 28302555 heartbeat IPC: 1.58861 cumulative IPC: 2.06074 (Simulation time: 0 hr 32 min 6 sec) 
Heartbeat CPU 0 instructions: 66000002 cycles: 28864689 heartbeat IPC: 1.77894 cumulative IPC: 2.04053 (Simulation time: 0 hr 32 min 37 sec) 
Heartbeat CPU 0 instructions: 67000002 cycles: 29302603 heartbeat IPC: 2.28355 cumulative IPC: 2.05339 (Simulation time: 0 hr 33 min 8 sec) 
Heartbeat CPU 0 instructions: 68000000 cycles: 29739007 heartbeat IPC: 2.29145 cumulative IPC: 2.06531 (Simulation time: 0 hr 33 min 38 sec) 
Heartbeat CPU 0 instructions: 69000001 cycles: 30289642 heartbeat IPC: 1.81609 cumulative IPC: 2.0505 (Simulation time: 0 hr 34 min 9 sec) 
Heartbeat CPU 0 instructions: 70000000 cycles: 30728171 heartbeat IPC: 2.28035 cumulative IPC: 2.06089 (Simulation time: 0 hr 34 min 39 sec) 
Heartbeat CPU 0 instructions: 71000000 cycles: 31168659 heartbeat IPC: 2.27021 cumulative IPC: 2.06997 (Simulation time: 0 hr 35 min 10 sec) 
Heartbeat CPU 0 instructions: 72000000 cycles: 31649793 heartbeat IPC: 2.07842 cumulative IPC: 2.07036 (Simulation time: 0 hr 35 min 39 sec) 
Heartbeat CPU 0 instructions: 73000001 cycles: 32213719 heartbeat IPC: 1.77328 cumulative IPC: 2.05539 (Simulation time: 0 hr 36 min 9 sec) 
Heartbeat CPU 0 instructions: 74000002 cycles: 32856198 heartbeat IPC: 1.55647 cumulative IPC: 2.0283 (Simulation time: 0 hr 36 min 40 sec) 
Heartbeat CPU 0 instructions: 75000000 cycles: 33406820 heartbeat IPC: 1.81612 cumulative IPC: 2.01886 (Simulation time: 0 hr 37 min 10 sec) 
Heartbeat CPU 0 instructions: 76000000 cycles: 34148736 heartbeat IPC: 1.34786 cumulative IPC: 1.98093 (Simulation time: 0 hr 37 min 46 sec) 
Heartbeat CPU 0 instructions: 77000000 cycles: 34869699 heartbeat IPC: 1.38703 cumulative IPC: 1.95001 (Simulation time: 0 hr 38 min 22 sec) 
Heartbeat CPU 0 instructions: 78000003 cycles: 35588475 heartbeat IPC: 1.39126 cumulative IPC: 1.92243 (Simulation time: 0 hr 38 min 58 sec) 
Heartbeat CPU 0 instructions: 79000000 cycles: 36299376 heartbeat IPC: 1.40666 cumulative IPC: 1.89843 (Simulation time: 0 hr 39 min 34 sec) 
Heartbeat CPU 0 instructions: 80000000 cycles: 36984458 heartbeat IPC: 1.45968 cumulative IPC: 1.8796 (Simulation time: 0 hr 40 min 8 sec) 
Heartbeat CPU 0 instructions: 81000001 cycles: 37648790 heartbeat IPC: 1.50527 cumulative IPC: 1.86464 (Simulation time: 0 hr 40 min 45 sec) 
Heartbeat CPU 0 instructions: 82000002 cycles: 38291748 heartbeat IPC: 1.55531 cumulative IPC: 1.85312 (Simulation time: 0 hr 41 min 20 sec) 
Heartbeat CPU 0 instructions: 83000002 cycles: 39130238 heartbeat IPC: 1.19262 cumulative IPC: 1.82254 (Simulation time: 0 hr 41 min 54 sec) 
Heartbeat CPU 0 instructions: 84000000 cycles: 39718301 heartbeat IPC: 1.70049 cumulative IPC: 1.8187 (Simulation time: 0 hr 42 min 24 sec) 
Heartbeat CPU 0 instructions: 85000000 cycles: 40173394 heartbeat IPC: 2.19735 cumulative IPC: 1.8277 (Simulation time: 0 hr 42 min 53 sec) 
Heartbeat CPU 0 instructions: 86000001 cycles: 40625971 heartbeat IPC: 2.20957 cumulative IPC: 1.83651 (Simulation time: 0 hr 43 min 22 sec) 
Heartbeat CPU 0 instructions: 87000002 cycles: 41081592 heartbeat IPC: 2.19481 cumulative IPC: 1.84465 (Simulation time: 0 hr 43 min 51 sec) 
Heartbeat CPU 0 instructions: 88000000 cycles: 41532640 heartbeat IPC: 2.21705 cumulative IPC: 1.85284 (Simulation time: 0 hr 44 min 18 sec) 
Heartbeat CPU 0 instructions: 89000003 cycles: 41982185 heartbeat IPC: 2.22448 cumulative IPC: 1.86081 (Simulation time: 0 hr 44 min 48 sec) 
Heartbeat CPU 0 instructions: 90000003 cycles: 42432158 heartbeat IPC: 2.22236 cumulative IPC: 1.86841 (Simulation time: 0 hr 45 min 18 sec) 
Heartbeat CPU 0 instructions: 91000002 cycles: 42896922 heartbeat IPC: 2.15163 cumulative IPC: 1.87443 (Simulation time: 0 hr 45 min 47 sec) 
Heartbeat CPU 0 instructions: 92000000 cycles: 43392972 heartbeat IPC: 2.01592 cumulative IPC: 1.87757 (Simulation time: 0 hr 46 min 16 sec) 
Heartbeat CPU 0 instructions: 93000000 cycles: 43838865 heartbeat IPC: 2.24269 cumulative IPC: 1.8847 (Simulation time: 0 hr 46 min 44 sec) 
Heartbeat CPU 0 instructions: 94000003 cycles: 44284005 heartbeat IPC: 2.24649 cumulative IPC: 1.89163 (Simulation time: 0 hr 47 min 13 sec) 
Heartbeat CPU 0 instructions: 95000001 cycles: 44915444 heartbeat IPC: 1.58368 cumulative IPC: 1.88349 (Simulation time: 0 hr 47 min 46 sec) 
Heartbeat CPU 0 instructions: 96000000 cycles: 45512513 heartbeat IPC: 1.67485 cumulative IPC: 1.8784 (Simulation time: 0 hr 48 min 17 sec) 
Heartbeat CPU 0 instructions: 97000000 cycles: 45952203 heartbeat IPC: 2.27433 cumulative IPC: 1.88538 (Simulation time: 0 hr 48 min 45 sec) 
Heartbeat CPU 0 instructions: 98000003 cycles: 46392443 heartbeat IPC: 2.2715 cumulative IPC: 1.89209 (Simulation time: 0 hr 49 min 15 sec) 
Heartbeat CPU 0 instructions: 99000000 cycles: 46832089 heartbeat IPC: 2.27455 cumulative IPC: 1.8986 (Simulation time: 0 hr 49 min 45 sec) 
Heartbeat CPU 0 instructions: 100000000 cycles: 47272288 heartbeat IPC: 2.2717 cumulative IPC: 1.90486 (Simulation time: 0 hr 50 min 18 sec) 
Heartbeat CPU 0 instructions: 101000003 cycles: 47711872 heartbeat IPC: 2.27488 cumulative IPC: 1.91095 (Simulation time: 0 hr 50 min 48 sec) 
Heartbeat CPU 0 instructions: 102000002 cycles: 48261637 heartbeat IPC: 1.81896 cumulative IPC: 1.9091 (Simulation time: 0 hr 51 min 20 sec) 
Heartbeat CPU 0 instructions: 103000000 cycles: 48697766 heartbeat IPC: 2.2929 cumulative IPC: 1.91514 (Simulation time: 0 hr 51 min 49 sec) 
Heartbeat CPU 0 instructions: 104000000 cycles: 49134793 heartbeat IPC: 2.28819 cumulative IPC: 1.92094 (Simulation time: 0 hr 52 min 18 sec) 
Heartbeat CPU 0 instructions: 105000000 cycles: 49572088 heartbeat IPC: 2.28679 cumulative IPC: 1.92655 (Simulation time: 0 hr 52 min 49 sec) 
Heartbeat CPU 0 instructions: 106000003 cycles: 50009241 heartbeat IPC: 2.28754 cumulative IPC: 1.93199 (Simulation time: 0 hr 53 min 18 sec) 
Heartbeat CPU 0 instructions: 107000003 cycles: 50447518 heartbeat IPC: 2.28166 cumulative IPC: 1.9372 (Simulation time: 0 hr 53 min 49 sec) 
Heartbeat CPU 0 instructions: 108000000 cycles: 50960666 heartbeat IPC: 1.94875 cumulative IPC: 1.9374 (Simulation time: 0 hr 54 min 19 sec) 
Heartbeat CPU 0 instructions: 109000002 cycles: 51608352 heartbeat IPC: 1.54396 cumulative IPC: 1.92907 (Simulation time: 0 hr 54 min 51 sec) 
Heartbeat CPU 0 instructions: 110000003 cycles: 52043083 heartbeat IPC: 2.30028 cumulative IPC: 1.93427 (Simulation time: 0 hr 55 min 21 sec) 
Heartbeat CPU 0 instructions: 111000001 cycles: 52478836 heartbeat IPC: 2.29487 cumulative IPC: 1.93926 (Simulation time: 0 hr 55 min 51 sec) 
Heartbeat CPU 0 instructions: 112000000 cycles: 52965613 heartbeat IPC: 2.05433 cumulative IPC: 1.94102 (Simulation time: 0 hr 56 min 21 sec) 
Heartbeat CPU 0 instructions: 113000003 cycles: 53440591 heartbeat IPC: 2.10537 cumulative IPC: 1.94343 (Simulation time: 0 hr 56 min 52 sec) 
Heartbeat CPU 0 instructions: 114000003 cycles: 53879118 heartbeat IPC: 2.28036 cumulative IPC: 1.94792 (Simulation time: 0 hr 57 min 21 sec) 
Heartbeat CPU 0 instructions: 115000002 cycles: 54315577 heartbeat IPC: 2.29116 cumulative IPC: 1.95242 (Simulation time: 0 hr 57 min 50 sec) 
Heartbeat CPU 0 instructions: 116000000 cycles: 54821609 heartbeat IPC: 1.97616 cumulative IPC: 1.95278 (Simulation time: 0 hr 58 min 20 sec) 
Heartbeat CPU 0 instructions: 117000000 cycles: 55380060 heartbeat IPC: 1.79067 cumulative IPC: 1.95014 (Simulation time: 0 hr 58 min 50 sec) 
Heartbeat CPU 0 instructions: 118000001 cycles: 56005274 heartbeat IPC: 1.59945 cumulative IPC: 1.94388 (Simulation time: 0 hr 59 min 21 sec) 
Heartbeat CPU 0 instructions: 119000003 cycles: 56754760 heartbeat IPC: 1.33425 cumulative IPC: 1.93109 (Simulation time: 0 hr 59 min 59 sec) 
Heartbeat CPU 0 instructions: 120000000 cycles: 57471743 heartbeat IPC: 1.39473 cumulative IPC: 1.92054 (Simulation time: 1 hr 0 min 36 sec) 
Heartbeat CPU 0 instructions: 121000001 cycles: 58186728 heartbeat IPC: 1.39863 cumulative IPC: 1.9105 (Simulation time: 1 hr 1 min 12 sec) 
Heartbeat CPU 0 instructions: 122000002 cycles: 58892547 heartbeat IPC: 1.4168 cumulative IPC: 1.90129 (Simulation time: 1 hr 1 min 48 sec) 
Heartbeat CPU 0 instructions: 123000002 cycles: 59574993 heartbeat IPC: 1.46532 cumulative IPC: 1.89358 (Simulation time: 1 hr 2 min 24 sec) 
Heartbeat CPU 0 instructions: 124000000 cycles: 60238496 heartbeat IPC: 1.50715 cumulative IPC: 1.88704 (Simulation time: 1 hr 3 min 1 sec) 
Heartbeat CPU 0 instructions: 125000002 cycles: 60886654 heartbeat IPC: 1.54284 cumulative IPC: 1.88144 (Simulation time: 1 hr 3 min 37 sec) 
Heartbeat CPU 0 instructions: 126000001 cycles: 61817375 heartbeat IPC: 1.07443 cumulative IPC: 1.86303 (Simulation time: 1 hr 4 min 15 sec) 
Heartbeat CPU 0 instructions: 127000003 cycles: 62397076 heartbeat IPC: 1.72503 cumulative IPC: 1.8611 (Simulation time: 1 hr 4 min 46 sec) 
Heartbeat CPU 0 instructions: 128000000 cycles: 62853693 heartbeat IPC: 2.19001 cumulative IPC: 1.86469 (Simulation time: 1 hr 5 min 16 sec) 
Heartbeat CPU 0 instructions: 129000002 cycles: 63303390 heartbeat IPC: 2.22372 cumulative IPC: 1.86851 (Simulation time: 1 hr 5 min 46 sec) 
Heartbeat CPU 0 instructions: 130000001 cycles: 63752017 heartbeat IPC: 2.22902 cumulative IPC: 1.87229 (Simulation time: 1 hr 6 min 15 sec) 
Heartbeat CPU 0 instructions: 131000000 cycles: 64200468 heartbeat IPC: 2.2299 cumulative IPC: 1.876 (Simulation time: 1 hr 6 min 43 sec) 
Heartbeat CPU 0 instructions: 132000000 cycles: 64654061 heartbeat IPC: 2.20462 cumulative IPC: 1.87942 (Simulation time: 1 hr 7 min 12 sec) 
Heartbeat CPU 0 instructions: 133000000 cycles: 65109596 heartbeat IPC: 2.19522 cumulative IPC: 1.88268 (Simulation time: 1 hr 7 min 42 sec) 
Heartbeat CPU 0 instructions: 134000000 cycles: 65638039 heartbeat IPC: 1.89235 cumulative IPC: 1.8828 (Simulation time: 1 hr 8 min 10 sec) 
Heartbeat CPU 0 instructions: 135000003 cycles: 66132983 heartbeat IPC: 2.02044 cumulative IPC: 1.88431 (Simulation time: 1 hr 8 min 39 sec) 
Heartbeat CPU 0 instructions: 136000000 cycles: 66580815 heartbeat IPC: 2.23297 cumulative IPC: 1.88774 (Simulation time: 1 hr 9 min 8 sec) 
Heartbeat CPU 0 instructions: 137000002 cycles: 67032509 heartbeat IPC: 2.21389 cumulative IPC: 1.89094 (Simulation time: 1 hr 9 min 38 sec) 
Heartbeat CPU 0 instructions: 138000002 cycles: 67485487 heartbeat IPC: 2.20761 cumulative IPC: 1.89403 (Simulation time: 1 hr 10 min 7 sec) 
Heartbeat CPU 0 instructions: 139000000 cycles: 67941998 heartbeat IPC: 2.19052 cumulative IPC: 1.89691 (Simulation time: 1 hr 10 min 36 sec) 
Heartbeat CPU 0 instructions: 140000000 cycles: 68393693 heartbeat IPC: 2.21388 cumulative IPC: 1.89993 (Simulation time: 1 hr 11 min 8 sec) 
Heartbeat CPU 0 instructions: 141000000 cycles: 68846637 heartbeat IPC: 2.20778 cumulative IPC: 1.90285 (Simulation time: 1 hr 11 min 38 sec) 
Heartbeat CPU 0 instructions: 142000003 cycles: 69362104 heartbeat IPC: 1.93999 cumulative IPC: 1.90324 (Simulation time: 1 hr 12 min 8 sec) 
Heartbeat CPU 0 instructions: 143000002 cycles: 69805768 heartbeat IPC: 2.25396 cumulative IPC: 1.90643 (Simulation time: 1 hr 12 min 39 sec) 
Heartbeat CPU 0 instructions: 144000000 cycles: 70256863 heartbeat IPC: 2.21682 cumulative IPC: 1.90928 (Simulation time: 1 hr 13 min 9 sec) 
Heartbeat CPU 0 instructions: 145000001 cycles: 70913857 heartbeat IPC: 1.52209 cumulative IPC: 1.90418 (Simulation time: 1 hr 13 min 43 sec) 
Heartbeat CPU 0 instructions: 146000003 cycles: 71516697 heartbeat IPC: 1.65882 cumulative IPC: 1.90125 (Simulation time: 1 hr 14 min 15 sec) 
Heartbeat CPU 0 instructions: 147000002 cycles: 71955208 heartbeat IPC: 2.28044 cumulative IPC: 1.90451 (Simulation time: 1 hr 14 min 45 sec) 
Heartbeat CPU 0 instructions: 148000000 cycles: 72392462 heartbeat IPC: 2.287 cumulative IPC: 1.90777 (Simulation time: 1 hr 15 min 15 sec) 
Heartbeat CPU 0 instructions: 149000002 cycles: 72832009 heartbeat IPC: 2.27507 cumulative IPC: 1.91089 (Simulation time: 1 hr 15 min 45 sec) 
Heartbeat CPU 0 instructions: 150000003 cycles: 73270545 heartbeat IPC: 2.28032 cumulative IPC: 1.91399 (Simulation time: 1 hr 16 min 17 sec) 
Finished CPU 0 instructions: 100000003 cycles: 52246941 cummulative IPC: 1.91399 (Simulation time: 1 hr 16 min 17 sec) 

ChampSim completed all CPUs

Region of Interest Statistics

CPU 0 cummulative IPC: 1.91399 instructions: 100000003 cycles: 52246941
LLC TOTAL     ACCESS:    1256063  HIT:    1178474  MISS:      77589
LLC LOAD      ACCESS:     149455  HIT:     140722  MISS:       8733
LLC RFO       ACCESS:      37525  HIT:      18657  MISS:      18868
LLC PREFETCH  ACCESS:     776740  HIT:     727119  MISS:      49621
LLC WRITEBACK ACCESS:     292343  HIT:     291976  MISS:        367
OPTgen accesses: 1706
OPTgen hits: 3588
OPTgen hit rate: 210.317


