
*** ChampSim Multicore Out-of-Order Simulator ***

Warmup Instructions: 50000000
Simulation Instructions: 100000000
Configuration: 2
Number of CPUs: 1
LLC sets: 2048
LLC ways: 16
Off-chip DRAM Channels: 1 Width: 64-bit Data Rate: 1600 MT/s

CPU 0 runs /datasets/cs240c-wi22-a00-public/data/Assignment2-gz/wrf_1650B.trace.gz
CPU 0 L1D next line prefetcher
CPU 0 L2C IP-based stride prefetcher
Initialize Hawkeye state
Heartbeat CPU 0 instructions: 1000000 cycles: 514299 heartbeat IPC: 1.94439 cumulative IPC: 1.94439 (Simulation time: 0 hr 0 min 37 sec) 
Heartbeat CPU 0 instructions: 2000000 cycles: 1028473 heartbeat IPC: 1.94487 cumulative IPC: 1.94463 (Simulation time: 0 hr 1 min 13 sec) 
Heartbeat CPU 0 instructions: 3000001 cycles: 1546184 heartbeat IPC: 1.93158 cumulative IPC: 1.94026 (Simulation time: 0 hr 1 min 50 sec) 
Heartbeat CPU 0 instructions: 4000000 cycles: 2063940 heartbeat IPC: 1.93141 cumulative IPC: 1.93804 (Simulation time: 0 hr 2 min 28 sec) 
Heartbeat CPU 0 instructions: 5000001 cycles: 2581687 heartbeat IPC: 1.93145 cumulative IPC: 1.93672 (Simulation time: 0 hr 3 min 1 sec) 
Heartbeat CPU 0 instructions: 6000003 cycles: 3099505 heartbeat IPC: 1.93118 cumulative IPC: 1.93579 (Simulation time: 0 hr 3 min 33 sec) 
Heartbeat CPU 0 instructions: 7000000 cycles: 3617214 heartbeat IPC: 1.93158 cumulative IPC: 1.93519 (Simulation time: 0 hr 4 min 10 sec) 
Heartbeat CPU 0 instructions: 8000000 cycles: 4135023 heartbeat IPC: 1.93121 cumulative IPC: 1.93469 (Simulation time: 0 hr 4 min 45 sec) 
Heartbeat CPU 0 instructions: 9000001 cycles: 4649336 heartbeat IPC: 1.94434 cumulative IPC: 1.93576 (Simulation time: 0 hr 5 min 20 sec) 
Heartbeat CPU 0 instructions: 10000001 cycles: 5163453 heartbeat IPC: 1.94508 cumulative IPC: 1.93669 (Simulation time: 0 hr 5 min 55 sec) 
Heartbeat CPU 0 instructions: 11000001 cycles: 5677587 heartbeat IPC: 1.94502 cumulative IPC: 1.93744 (Simulation time: 0 hr 6 min 28 sec) 
Heartbeat CPU 0 instructions: 12000000 cycles: 6193737 heartbeat IPC: 1.93742 cumulative IPC: 1.93744 (Simulation time: 0 hr 7 min 8 sec) 
Heartbeat CPU 0 instructions: 13000002 cycles: 6711432 heartbeat IPC: 1.93164 cumulative IPC: 1.93699 (Simulation time: 0 hr 7 min 44 sec) 
Heartbeat CPU 0 instructions: 14000002 cycles: 7229229 heartbeat IPC: 1.93126 cumulative IPC: 1.93658 (Simulation time: 0 hr 8 min 18 sec) 
Heartbeat CPU 0 instructions: 15000001 cycles: 7746913 heartbeat IPC: 1.93168 cumulative IPC: 1.93626 (Simulation time: 0 hr 8 min 53 sec) 
Heartbeat CPU 0 instructions: 16000000 cycles: 8264628 heartbeat IPC: 1.93156 cumulative IPC: 1.93596 (Simulation time: 0 hr 9 min 26 sec) 
Heartbeat CPU 0 instructions: 17000000 cycles: 8782346 heartbeat IPC: 1.93155 cumulative IPC: 1.9357 (Simulation time: 0 hr 10 min 2 sec) 
Heartbeat CPU 0 instructions: 18000001 cycles: 9298211 heartbeat IPC: 1.93849 cumulative IPC: 1.93586 (Simulation time: 0 hr 10 min 34 sec) 
Heartbeat CPU 0 instructions: 19000003 cycles: 9812269 heartbeat IPC: 1.94531 cumulative IPC: 1.93635 (Simulation time: 0 hr 11 min 6 sec) 
Heartbeat CPU 0 instructions: 20000000 cycles: 10326480 heartbeat IPC: 1.94472 cumulative IPC: 1.93677 (Simulation time: 0 hr 11 min 40 sec) 
Heartbeat CPU 0 instructions: 21000000 cycles: 10841175 heartbeat IPC: 1.9429 cumulative IPC: 1.93706 (Simulation time: 0 hr 12 min 16 sec) 
Heartbeat CPU 0 instructions: 22000000 cycles: 11358990 heartbeat IPC: 1.93119 cumulative IPC: 1.93679 (Simulation time: 0 hr 12 min 55 sec) 
Heartbeat CPU 0 instructions: 23000003 cycles: 11876757 heartbeat IPC: 1.93138 cumulative IPC: 1.93656 (Simulation time: 0 hr 13 min 34 sec) 
Heartbeat CPU 0 instructions: 24000000 cycles: 12394524 heartbeat IPC: 1.93136 cumulative IPC: 1.93634 (Simulation time: 0 hr 14 min 12 sec) 
Heartbeat CPU 0 instructions: 25000000 cycles: 12912214 heartbeat IPC: 1.93166 cumulative IPC: 1.93615 (Simulation time: 0 hr 14 min 53 sec) 
Heartbeat CPU 0 instructions: 26000001 cycles: 13429933 heartbeat IPC: 1.93155 cumulative IPC: 1.93597 (Simulation time: 0 hr 15 min 35 sec) 
Heartbeat CPU 0 instructions: 27000002 cycles: 13947348 heartbeat IPC: 1.93269 cumulative IPC: 1.93585 (Simulation time: 0 hr 16 min 11 sec) 
Heartbeat CPU 0 instructions: 28000000 cycles: 14461488 heartbeat IPC: 1.94499 cumulative IPC: 1.93618 (Simulation time: 0 hr 16 min 47 sec) 
Heartbeat CPU 0 instructions: 29000003 cycles: 14975725 heartbeat IPC: 1.94463 cumulative IPC: 1.93647 (Simulation time: 0 hr 17 min 26 sec) 
Heartbeat CPU 0 instructions: 30000002 cycles: 15489912 heartbeat IPC: 1.94482 cumulative IPC: 1.93674 (Simulation time: 0 hr 18 min 2 sec) 
Heartbeat CPU 0 instructions: 31000001 cycles: 16006549 heartbeat IPC: 1.93559 cumulative IPC: 1.93671 (Simulation time: 0 hr 18 min 40 sec) 
Heartbeat CPU 0 instructions: 32000000 cycles: 16524170 heartbeat IPC: 1.93191 cumulative IPC: 1.93656 (Simulation time: 0 hr 19 min 17 sec) 
Heartbeat CPU 0 instructions: 33000001 cycles: 17041842 heartbeat IPC: 1.93173 cumulative IPC: 1.93641 (Simulation time: 0 hr 19 min 57 sec) 
Heartbeat CPU 0 instructions: 34000002 cycles: 17559440 heartbeat IPC: 1.932 cumulative IPC: 1.93628 (Simulation time: 0 hr 20 min 35 sec) 
Heartbeat CPU 0 instructions: 35000001 cycles: 18077270 heartbeat IPC: 1.93113 cumulative IPC: 1.93613 (Simulation time: 0 hr 21 min 13 sec) 
Heartbeat CPU 0 instructions: 36000000 cycles: 18594991 heartbeat IPC: 1.93154 cumulative IPC: 1.93601 (Simulation time: 0 hr 21 min 54 sec) 
Heartbeat CPU 0 instructions: 37000003 cycles: 19110667 heartbeat IPC: 1.93921 cumulative IPC: 1.93609 (Simulation time: 0 hr 22 min 31 sec) 
Heartbeat CPU 0 instructions: 38000000 cycles: 19624818 heartbeat IPC: 1.94495 cumulative IPC: 1.93632 (Simulation time: 0 hr 23 min 12 sec) 
Heartbeat CPU 0 instructions: 39000001 cycles: 20138999 heartbeat IPC: 1.94484 cumulative IPC: 1.93654 (Simulation time: 0 hr 23 min 55 sec) 
Heartbeat CPU 0 instructions: 40000000 cycles: 20654040 heartbeat IPC: 1.94159 cumulative IPC: 1.93667 (Simulation time: 0 hr 24 min 34 sec) 
Heartbeat CPU 0 instructions: 41000000 cycles: 21171690 heartbeat IPC: 1.93181 cumulative IPC: 1.93655 (Simulation time: 0 hr 25 min 29 sec) 
Heartbeat CPU 0 instructions: 42000003 cycles: 21689691 heartbeat IPC: 1.9305 cumulative IPC: 1.9364 (Simulation time: 0 hr 26 min 18 sec) 
Heartbeat CPU 0 instructions: 43000001 cycles: 22207425 heartbeat IPC: 1.93149 cumulative IPC: 1.93629 (Simulation time: 0 hr 27 min 5 sec) 
Heartbeat CPU 0 instructions: 44000000 cycles: 22725175 heartbeat IPC: 1.93143 cumulative IPC: 1.93618 (Simulation time: 0 hr 27 min 47 sec) 
Heartbeat CPU 0 instructions: 45000000 cycles: 23242894 heartbeat IPC: 1.93155 cumulative IPC: 1.93608 (Simulation time: 0 hr 28 min 39 sec) 
Heartbeat CPU 0 instructions: 46000003 cycles: 23740907 heartbeat IPC: 2.00799 cumulative IPC: 1.93758 (Simulation time: 0 hr 29 min 37 sec) 
Heartbeat CPU 0 instructions: 47000002 cycles: 24391818 heartbeat IPC: 1.53631 cumulative IPC: 1.92688 (Simulation time: 0 hr 30 min 39 sec) 
Heartbeat CPU 0 instructions: 48000000 cycles: 25044152 heartbeat IPC: 1.53295 cumulative IPC: 1.91662 (Simulation time: 0 hr 31 min 45 sec) 
Heartbeat CPU 0 instructions: 49000001 cycles: 25692678 heartbeat IPC: 1.54196 cumulative IPC: 1.90716 (Simulation time: 0 hr 32 min 52 sec) 
Heartbeat CPU 0 instructions: 50000000 cycles: 26341314 heartbeat IPC: 1.5417 cumulative IPC: 1.89816 (Simulation time: 0 hr 33 min 52 sec) 

Warmup complete CPU 0 instructions: 50000001 cycles: 26341317 (Simulation time: 0 hr 33 min 52 sec) 

Heartbeat CPU 0 instructions: 51000000 cycles: 28181549 heartbeat IPC: 0.543409 cumulative IPC: 0.543409 (Simulation time: 0 hr 35 min 2 sec) 
Heartbeat CPU 0 instructions: 52000000 cycles: 29967850 heartbeat IPC: 0.559816 cumulative IPC: 0.551491 (Simulation time: 0 hr 36 min 13 sec) 
Heartbeat CPU 0 instructions: 53000002 cycles: 31008740 heartbeat IPC: 0.960718 cumulative IPC: 0.642753 (Simulation time: 0 hr 37 min 9 sec) 
Heartbeat CPU 0 instructions: 54000001 cycles: 31923280 heartbeat IPC: 1.09344 cumulative IPC: 0.716594 (Simulation time: 0 hr 38 min 6 sec) 
Heartbeat CPU 0 instructions: 55000000 cycles: 32822734 heartbeat IPC: 1.11178 cumulative IPC: 0.771436 (Simulation time: 0 hr 39 min 6 sec) 
Heartbeat CPU 0 instructions: 56000000 cycles: 33695746 heartbeat IPC: 1.14546 cumulative IPC: 0.815835 (Simulation time: 0 hr 40 min 1 sec) 
Heartbeat CPU 0 instructions: 57000001 cycles: 34579303 heartbeat IPC: 1.13179 cumulative IPC: 0.849722 (Simulation time: 0 hr 41 min 0 sec) 
Heartbeat CPU 0 instructions: 58000002 cycles: 35466132 heartbeat IPC: 1.12761 cumulative IPC: 0.87673 (Simulation time: 0 hr 41 min 58 sec) 
Heartbeat CPU 0 instructions: 59000003 cycles: 36354419 heartbeat IPC: 1.12576 cumulative IPC: 0.898823 (Simulation time: 0 hr 42 min 56 sec) 
Heartbeat CPU 0 instructions: 60000000 cycles: 37238100 heartbeat IPC: 1.13163 cumulative IPC: 0.917702 (Simulation time: 0 hr 43 min 55 sec) 
Heartbeat CPU 0 instructions: 61000003 cycles: 38533278 heartbeat IPC: 0.772097 cumulative IPC: 0.902234 (Simulation time: 0 hr 44 min 53 sec) 
Heartbeat CPU 0 instructions: 62000002 cycles: 40021303 heartbeat IPC: 0.672031 cumulative IPC: 0.877194 (Simulation time: 0 hr 45 min 49 sec) 
Heartbeat CPU 0 instructions: 63000002 cycles: 41508256 heartbeat IPC: 0.672516 cumulative IPC: 0.857128 (Simulation time: 0 hr 46 min 34 sec) 
Heartbeat CPU 0 instructions: 64000000 cycles: 42994076 heartbeat IPC: 0.673028 cumulative IPC: 0.840701 (Simulation time: 0 hr 47 min 23 sec) 
Heartbeat CPU 0 instructions: 65000001 cycles: 44481892 heartbeat IPC: 0.672127 cumulative IPC: 0.826876 (Simulation time: 0 hr 48 min 7 sec) 
Heartbeat CPU 0 instructions: 66000000 cycles: 45967958 heartbeat IPC: 0.672917 cumulative IPC: 0.815218 (Simulation time: 0 hr 48 min 50 sec) 
Heartbeat CPU 0 instructions: 67000001 cycles: 47456618 heartbeat IPC: 0.671746 cumulative IPC: 0.805103 (Simulation time: 0 hr 49 min 31 sec) 
Heartbeat CPU 0 instructions: 68000000 cycles: 48942434 heartbeat IPC: 0.67303 cumulative IPC: 0.796421 (Simulation time: 0 hr 50 min 12 sec) 
Heartbeat CPU 0 instructions: 69000002 cycles: 50427736 heartbeat IPC: 0.673265 cumulative IPC: 0.788826 (Simulation time: 0 hr 50 min 54 sec) 
Heartbeat CPU 0 instructions: 70000000 cycles: 51914152 heartbeat IPC: 0.672758 cumulative IPC: 0.78208 (Simulation time: 0 hr 51 min 36 sec) 
Heartbeat CPU 0 instructions: 71000001 cycles: 53401125 heartbeat IPC: 0.672508 cumulative IPC: 0.776059 (Simulation time: 0 hr 52 min 18 sec) 
Heartbeat CPU 0 instructions: 72000000 cycles: 54888750 heartbeat IPC: 0.672212 cumulative IPC: 0.770647 (Simulation time: 0 hr 53 min 0 sec) 
Heartbeat CPU 0 instructions: 73000000 cycles: 56374615 heartbeat IPC: 0.673009 cumulative IPC: 0.765817 (Simulation time: 0 hr 53 min 43 sec) 
Heartbeat CPU 0 instructions: 74000003 cycles: 57860466 heartbeat IPC: 0.673017 cumulative IPC: 0.761442 (Simulation time: 0 hr 54 min 23 sec) 
Heartbeat CPU 0 instructions: 75000003 cycles: 59347225 heartbeat IPC: 0.672604 cumulative IPC: 0.75744 (Simulation time: 0 hr 55 min 5 sec) 
Heartbeat CPU 0 instructions: 76000000 cycles: 60833319 heartbeat IPC: 0.672903 cumulative IPC: 0.753798 (Simulation time: 0 hr 55 min 44 sec) 
Heartbeat CPU 0 instructions: 77000002 cycles: 62321842 heartbeat IPC: 0.671808 cumulative IPC: 0.750406 (Simulation time: 0 hr 56 min 25 sec) 
Heartbeat CPU 0 instructions: 78000001 cycles: 63808425 heartbeat IPC: 0.672683 cumulative IPC: 0.747322 (Simulation time: 0 hr 57 min 6 sec) 
Heartbeat CPU 0 instructions: 79000001 cycles: 65296751 heartbeat IPC: 0.671896 cumulative IPC: 0.74444 (Simulation time: 0 hr 57 min 47 sec) 
Heartbeat CPU 0 instructions: 80000000 cycles: 66782303 heartbeat IPC: 0.67315 cumulative IPC: 0.741822 (Simulation time: 0 hr 58 min 27 sec) 
Heartbeat CPU 0 instructions: 81000000 cycles: 68269471 heartbeat IPC: 0.672419 cumulative IPC: 0.73936 (Simulation time: 0 hr 59 min 7 sec) 
Heartbeat CPU 0 instructions: 82000003 cycles: 69755075 heartbeat IPC: 0.673129 cumulative IPC: 0.737094 (Simulation time: 0 hr 59 min 50 sec) 
Heartbeat CPU 0 instructions: 83000003 cycles: 71244698 heartbeat IPC: 0.671311 cumulative IPC: 0.734911 (Simulation time: 1 hr 0 min 33 sec) 
Heartbeat CPU 0 instructions: 84000000 cycles: 72730598 heartbeat IPC: 0.672991 cumulative IPC: 0.732928 (Simulation time: 1 hr 1 min 12 sec) 
Heartbeat CPU 0 instructions: 85000002 cycles: 74216851 heartbeat IPC: 0.672834 cumulative IPC: 0.731062 (Simulation time: 1 hr 1 min 52 sec) 
Heartbeat CPU 0 instructions: 86000001 cycles: 75702644 heartbeat IPC: 0.673041 cumulative IPC: 0.729316 (Simulation time: 1 hr 2 min 32 sec) 
Heartbeat CPU 0 instructions: 87000001 cycles: 77188653 heartbeat IPC: 0.672943 cumulative IPC: 0.727668 (Simulation time: 1 hr 3 min 11 sec) 
Heartbeat CPU 0 instructions: 88000000 cycles: 78697500 heartbeat IPC: 0.662757 cumulative IPC: 0.725798 (Simulation time: 1 hr 3 min 53 sec) 
Heartbeat CPU 0 instructions: 89000003 cycles: 80197502 heartbeat IPC: 0.666668 cumulative IPC: 0.724151 (Simulation time: 1 hr 4 min 38 sec) 
Heartbeat CPU 0 instructions: 90000003 cycles: 81698715 heartbeat IPC: 0.666128 cumulative IPC: 0.722577 (Simulation time: 1 hr 5 min 25 sec) 
Heartbeat CPU 0 instructions: 91000001 cycles: 83208324 heartbeat IPC: 0.662422 cumulative IPC: 0.72098 (Simulation time: 1 hr 6 min 9 sec) 
Heartbeat CPU 0 instructions: 92000000 cycles: 84717235 heartbeat IPC: 0.662729 cumulative IPC: 0.719475 (Simulation time: 1 hr 6 min 54 sec) 
Heartbeat CPU 0 instructions: 93000001 cycles: 86226421 heartbeat IPC: 0.66261 cumulative IPC: 0.718042 (Simulation time: 1 hr 7 min 40 sec) 
Heartbeat CPU 0 instructions: 94000001 cycles: 87734061 heartbeat IPC: 0.663288 cumulative IPC: 0.716697 (Simulation time: 1 hr 8 min 22 sec) 
Heartbeat CPU 0 instructions: 95000001 cycles: 89241891 heartbeat IPC: 0.663205 cumulative IPC: 0.715415 (Simulation time: 1 hr 9 min 7 sec) 
Heartbeat CPU 0 instructions: 96000000 cycles: 90751831 heartbeat IPC: 0.662277 cumulative IPC: 0.714169 (Simulation time: 1 hr 9 min 50 sec) 
Heartbeat CPU 0 instructions: 97000000 cycles: 92267308 heartbeat IPC: 0.659858 cumulative IPC: 0.712921 (Simulation time: 1 hr 10 min 34 sec) 
Heartbeat CPU 0 instructions: 98000000 cycles: 93780899 heartbeat IPC: 0.66068 cumulative IPC: 0.711748 (Simulation time: 1 hr 11 min 17 sec) 
Heartbeat CPU 0 instructions: 99000000 cycles: 95292999 heartbeat IPC: 0.661332 cumulative IPC: 0.710643 (Simulation time: 1 hr 12 min 2 sec) 
Heartbeat CPU 0 instructions: 100000000 cycles: 96807719 heartbeat IPC: 0.660188 cumulative IPC: 0.709558 (Simulation time: 1 hr 12 min 45 sec) 
Heartbeat CPU 0 instructions: 101000002 cycles: 98325279 heartbeat IPC: 0.658954 cumulative IPC: 0.708491 (Simulation time: 1 hr 13 min 29 sec) 
Heartbeat CPU 0 instructions: 102000002 cycles: 99838638 heartbeat IPC: 0.660782 cumulative IPC: 0.707509 (Simulation time: 1 hr 14 min 15 sec) 
Heartbeat CPU 0 instructions: 103000002 cycles: 101352130 heartbeat IPC: 0.660724 cumulative IPC: 0.706565 (Simulation time: 1 hr 14 min 57 sec) 
Heartbeat CPU 0 instructions: 104000000 cycles: 102868302 heartbeat IPC: 0.659554 cumulative IPC: 0.705633 (Simulation time: 1 hr 15 min 43 sec) 
Heartbeat CPU 0 instructions: 105000001 cycles: 104382993 heartbeat IPC: 0.660201 cumulative IPC: 0.704752 (Simulation time: 1 hr 16 min 28 sec) 
Heartbeat CPU 0 instructions: 106000001 cycles: 105899284 heartbeat IPC: 0.659504 cumulative IPC: 0.703889 (Simulation time: 1 hr 17 min 11 sec) 
Heartbeat CPU 0 instructions: 107000000 cycles: 107410300 heartbeat IPC: 0.661806 cumulative IPC: 0.703105 (Simulation time: 1 hr 17 min 53 sec) 
Heartbeat CPU 0 instructions: 108000000 cycles: 108923869 heartbeat IPC: 0.66069 cumulative IPC: 0.702328 (Simulation time: 1 hr 18 min 35 sec) 
Heartbeat CPU 0 instructions: 109000000 cycles: 110438717 heartbeat IPC: 0.660132 cumulative IPC: 0.701567 (Simulation time: 1 hr 19 min 19 sec) 
Heartbeat CPU 0 instructions: 110000001 cycles: 111954576 heartbeat IPC: 0.659693 cumulative IPC: 0.700826 (Simulation time: 1 hr 20 min 1 sec) 
Heartbeat CPU 0 instructions: 111000003 cycles: 113466964 heartbeat IPC: 0.661207 cumulative IPC: 0.700138 (Simulation time: 1 hr 20 min 44 sec) 
Heartbeat CPU 0 instructions: 112000000 cycles: 114981181 heartbeat IPC: 0.660405 cumulative IPC: 0.69946 (Simulation time: 1 hr 21 min 27 sec) 
Heartbeat CPU 0 instructions: 113000003 cycles: 116493547 heartbeat IPC: 0.661218 cumulative IPC: 0.698818 (Simulation time: 1 hr 22 min 7 sec) 
Heartbeat CPU 0 instructions: 114000002 cycles: 118007027 heartbeat IPC: 0.660728 cumulative IPC: 0.698189 (Simulation time: 1 hr 22 min 50 sec) 
Heartbeat CPU 0 instructions: 115000002 cycles: 119517591 heartbeat IPC: 0.662004 cumulative IPC: 0.697603 (Simulation time: 1 hr 23 min 30 sec) 
Heartbeat CPU 0 instructions: 116000000 cycles: 121027908 heartbeat IPC: 0.662111 cumulative IPC: 0.697036 (Simulation time: 1 hr 24 min 6 sec) 
Heartbeat CPU 0 instructions: 117000000 cycles: 122541117 heartbeat IPC: 0.660847 cumulative IPC: 0.696467 (Simulation time: 1 hr 24 min 47 sec) 
Heartbeat CPU 0 instructions: 118000003 cycles: 124054698 heartbeat IPC: 0.660687 cumulative IPC: 0.695913 (Simulation time: 1 hr 25 min 23 sec) 
Heartbeat CPU 0 instructions: 119000001 cycles: 125567903 heartbeat IPC: 0.660848 cumulative IPC: 0.695378 (Simulation time: 1 hr 26 min 2 sec) 
Heartbeat CPU 0 instructions: 120000000 cycles: 127083044 heartbeat IPC: 0.660004 cumulative IPC: 0.694846 (Simulation time: 1 hr 26 min 38 sec) 
Heartbeat CPU 0 instructions: 121000001 cycles: 128596678 heartbeat IPC: 0.660662 cumulative IPC: 0.69434 (Simulation time: 1 hr 27 min 11 sec) 
Heartbeat CPU 0 instructions: 122000000 cycles: 130111418 heartbeat IPC: 0.660179 cumulative IPC: 0.693841 (Simulation time: 1 hr 27 min 47 sec) 
Heartbeat CPU 0 instructions: 123000000 cycles: 131623774 heartbeat IPC: 0.66122 cumulative IPC: 0.693373 (Simulation time: 1 hr 28 min 17 sec) 
Heartbeat CPU 0 instructions: 124000000 cycles: 133138468 heartbeat IPC: 0.660199 cumulative IPC: 0.692902 (Simulation time: 1 hr 28 min 45 sec) 
Heartbeat CPU 0 instructions: 125000002 cycles: 134651076 heartbeat IPC: 0.661111 cumulative IPC: 0.692458 (Simulation time: 1 hr 29 min 13 sec) 
Heartbeat CPU 0 instructions: 126000003 cycles: 136165882 heartbeat IPC: 0.660151 cumulative IPC: 0.692013 (Simulation time: 1 hr 29 min 39 sec) 
Heartbeat CPU 0 instructions: 127000002 cycles: 137677796 heartbeat IPC: 0.661413 cumulative IPC: 0.691597 (Simulation time: 1 hr 30 min 5 sec) 
Heartbeat CPU 0 instructions: 128000000 cycles: 139464785 heartbeat IPC: 0.559599 cumulative IPC: 0.689512 (Simulation time: 1 hr 30 min 32 sec) 
Heartbeat CPU 0 instructions: 129000001 cycles: 141857606 heartbeat IPC: 0.417917 cumulative IPC: 0.683886 (Simulation time: 1 hr 31 min 13 sec) 
Heartbeat CPU 0 instructions: 130000002 cycles: 143573155 heartbeat IPC: 0.582904 cumulative IPC: 0.682409 (Simulation time: 1 hr 31 min 47 sec) 
Heartbeat CPU 0 instructions: 131000002 cycles: 145198862 heartbeat IPC: 0.615117 cumulative IPC: 0.681488 (Simulation time: 1 hr 32 min 15 sec) 
Heartbeat CPU 0 instructions: 132000000 cycles: 148306084 heartbeat IPC: 0.32183 cumulative IPC: 0.672325 (Simulation time: 1 hr 32 min 47 sec) 
Heartbeat CPU 0 instructions: 133000000 cycles: 151631336 heartbeat IPC: 0.300729 cumulative IPC: 0.662463 (Simulation time: 1 hr 33 min 28 sec) 
Heartbeat CPU 0 instructions: 134000000 cycles: 155061789 heartbeat IPC: 0.291507 cumulative IPC: 0.652577 (Simulation time: 1 hr 34 min 9 sec) 
Heartbeat CPU 0 instructions: 135000001 cycles: 158430286 heartbeat IPC: 0.296869 cumulative IPC: 0.643506 (Simulation time: 1 hr 34 min 42 sec) 
Heartbeat CPU 0 instructions: 136000000 cycles: 159560472 heartbeat IPC: 0.884809 cumulative IPC: 0.645553 (Simulation time: 1 hr 35 min 2 sec) 
Heartbeat CPU 0 instructions: 137000001 cycles: 160635403 heartbeat IPC: 0.930293 cumulative IPC: 0.647832 (Simulation time: 1 hr 35 min 23 sec) 
Heartbeat CPU 0 instructions: 138000000 cycles: 161663785 heartbeat IPC: 0.9724 cumulative IPC: 0.650299 (Simulation time: 1 hr 35 min 44 sec) 
Heartbeat CPU 0 instructions: 139000000 cycles: 162628505 heartbeat IPC: 1.03657 cumulative IPC: 0.653033 (Simulation time: 1 hr 36 min 3 sec) 
Heartbeat CPU 0 instructions: 140000000 cycles: 163556379 heartbeat IPC: 1.07773 cumulative IPC: 0.655905 (Simulation time: 1 hr 36 min 21 sec) 
Heartbeat CPU 0 instructions: 141000002 cycles: 164464272 heartbeat IPC: 1.10145 cumulative IPC: 0.658833 (Simulation time: 1 hr 36 min 39 sec) 
Heartbeat CPU 0 instructions: 142000001 cycles: 165368815 heartbeat IPC: 1.10553 cumulative IPC: 0.66174 (Simulation time: 1 hr 36 min 57 sec) 
Heartbeat CPU 0 instructions: 143000000 cycles: 166256936 heartbeat IPC: 1.12597 cumulative IPC: 0.664686 (Simulation time: 1 hr 37 min 14 sec) 
Heartbeat CPU 0 instructions: 144000000 cycles: 167178548 heartbeat IPC: 1.08506 cumulative IPC: 0.667437 (Simulation time: 1 hr 37 min 32 sec) 
Heartbeat CPU 0 instructions: 145000003 cycles: 168112726 heartbeat IPC: 1.07046 cumulative IPC: 0.670093 (Simulation time: 1 hr 37 min 48 sec) 
Heartbeat CPU 0 instructions: 146000000 cycles: 169071935 heartbeat IPC: 1.04252 cumulative IPC: 0.672596 (Simulation time: 1 hr 38 min 3 sec) 
Heartbeat CPU 0 instructions: 147000002 cycles: 170049767 heartbeat IPC: 1.02267 cumulative IPC: 0.674978 (Simulation time: 1 hr 38 min 18 sec) 
Heartbeat CPU 0 instructions: 148000000 cycles: 170964740 heartbeat IPC: 1.09293 cumulative IPC: 0.677622 (Simulation time: 1 hr 38 min 32 sec) 
Heartbeat CPU 0 instructions: 149000001 cycles: 171851311 heartbeat IPC: 1.12794 cumulative IPC: 0.680366 (Simulation time: 1 hr 38 min 46 sec) 
Heartbeat CPU 0 instructions: 150000001 cycles: 172730866 heartbeat IPC: 1.13694 cumulative IPC: 0.683109 (Simulation time: 1 hr 39 min 1 sec) 
Finished CPU 0 instructions: 100000000 cycles: 146389549 cummulative IPC: 0.683109 (Simulation time: 1 hr 39 min 1 sec) 

ChampSim completed all CPUs

Region of Interest Statistics

CPU 0 cummulative IPC: 0.683109 instructions: 100000000 cycles: 146389549
LLC TOTAL     ACCESS:    2158838  HIT:     299552  MISS:    1859286
LLC LOAD      ACCESS:     101029  HIT:      16017  MISS:      85012
LLC RFO       ACCESS:     516070  HIT:       2706  MISS:     513364
LLC PREFETCH  ACCESS:     929749  HIT:      62257  MISS:     867492
LLC WRITEBACK ACCESS:     611990  HIT:     218572  MISS:     393418
OPTgen accesses: 3267
OPTgen hits: 558
OPTgen hit rate: 17.0799


