
*** ChampSim Multicore Out-of-Order Simulator ***

Warmup Instructions: 50000000
Simulation Instructions: 100000000
Configuration: 2
Number of CPUs: 1
LLC sets: 2048
LLC ways: 16
Off-chip DRAM Channels: 1 Width: 64-bit Data Rate: 1600 MT/s

CPU 0 runs /datasets/cs240c-wi22-a00-public/data/Assignment2-gz/libquantum_1735B.trace.gz
CPU 0 L1D next line prefetcher
CPU 0 L2C IP-based stride prefetcher
Initialize Hawkeye state
Heartbeat CPU 0 instructions: 1000001 cycles: 333341 heartbeat IPC: 2.99993 cumulative IPC: 2.99993 (Simulation time: 0 hr 0 min 24 sec) 
Heartbeat CPU 0 instructions: 2000000 cycles: 666674 heartbeat IPC: 3 cumulative IPC: 2.99997 (Simulation time: 0 hr 0 min 46 sec) 
Heartbeat CPU 0 instructions: 3000000 cycles: 989045 heartbeat IPC: 3.10202 cumulative IPC: 3.03323 (Simulation time: 0 hr 1 min 5 sec) 
Heartbeat CPU 0 instructions: 4000000 cycles: 1290770 heartbeat IPC: 3.31428 cumulative IPC: 3.09893 (Simulation time: 0 hr 1 min 27 sec) 
Heartbeat CPU 0 instructions: 5000001 cycles: 1592495 heartbeat IPC: 3.31428 cumulative IPC: 3.13973 (Simulation time: 0 hr 1 min 46 sec) 
Heartbeat CPU 0 instructions: 6000001 cycles: 1894219 heartbeat IPC: 3.31429 cumulative IPC: 3.16753 (Simulation time: 0 hr 2 min 7 sec) 
Heartbeat CPU 0 instructions: 7000002 cycles: 2195942 heartbeat IPC: 3.3143 cumulative IPC: 3.1877 (Simulation time: 0 hr 2 min 31 sec) 
Heartbeat CPU 0 instructions: 8000000 cycles: 2501897 heartbeat IPC: 3.26845 cumulative IPC: 3.19757 (Simulation time: 0 hr 2 min 52 sec) 
Heartbeat CPU 0 instructions: 9000000 cycles: 2835230 heartbeat IPC: 3 cumulative IPC: 3.17435 (Simulation time: 0 hr 3 min 10 sec) 
Heartbeat CPU 0 instructions: 10000002 cycles: 3168564 heartbeat IPC: 3 cumulative IPC: 3.156 (Simulation time: 0 hr 3 min 30 sec) 
Heartbeat CPU 0 instructions: 11000001 cycles: 3501897 heartbeat IPC: 3 cumulative IPC: 3.14116 (Simulation time: 0 hr 3 min 51 sec) 
Heartbeat CPU 0 instructions: 12000000 cycles: 3835230 heartbeat IPC: 3 cumulative IPC: 3.12889 (Simulation time: 0 hr 4 min 14 sec) 
Heartbeat CPU 0 instructions: 13000000 cycles: 4159530 heartbeat IPC: 3.08356 cumulative IPC: 3.12535 (Simulation time: 0 hr 4 min 34 sec) 
Heartbeat CPU 0 instructions: 14000002 cycles: 4471102 heartbeat IPC: 3.20954 cumulative IPC: 3.13122 (Simulation time: 0 hr 4 min 57 sec) 
Heartbeat CPU 0 instructions: 15000000 cycles: 4782674 heartbeat IPC: 3.20952 cumulative IPC: 3.13632 (Simulation time: 0 hr 5 min 15 sec) 
Heartbeat CPU 0 instructions: 16000000 cycles: 5094247 heartbeat IPC: 3.20952 cumulative IPC: 3.1408 (Simulation time: 0 hr 5 min 35 sec) 
Heartbeat CPU 0 instructions: 17000000 cycles: 5405820 heartbeat IPC: 3.20952 cumulative IPC: 3.14476 (Simulation time: 0 hr 5 min 54 sec) 
Heartbeat CPU 0 instructions: 18000001 cycles: 5725379 heartbeat IPC: 3.12932 cumulative IPC: 3.1439 (Simulation time: 0 hr 6 min 14 sec) 
Heartbeat CPU 0 instructions: 19000000 cycles: 6058712 heartbeat IPC: 3 cumulative IPC: 3.13598 (Simulation time: 0 hr 6 min 34 sec) 
Heartbeat CPU 0 instructions: 20000000 cycles: 6392046 heartbeat IPC: 2.99999 cumulative IPC: 3.12889 (Simulation time: 0 hr 6 min 55 sec) 
Heartbeat CPU 0 instructions: 21000001 cycles: 6725379 heartbeat IPC: 3.00001 cumulative IPC: 3.1225 (Simulation time: 0 hr 7 min 14 sec) 
Heartbeat CPU 0 instructions: 22000000 cycles: 7058712 heartbeat IPC: 3 cumulative IPC: 3.11672 (Simulation time: 0 hr 7 min 33 sec) 
Heartbeat CPU 0 instructions: 23000001 cycles: 7377935 heartbeat IPC: 3.13261 cumulative IPC: 3.1174 (Simulation time: 0 hr 7 min 54 sec) 
Heartbeat CPU 0 instructions: 24000000 cycles: 7689508 heartbeat IPC: 3.20952 cumulative IPC: 3.12114 (Simulation time: 0 hr 8 min 12 sec) 
Heartbeat CPU 0 instructions: 25000002 cycles: 8001081 heartbeat IPC: 3.20953 cumulative IPC: 3.12458 (Simulation time: 0 hr 8 min 31 sec) 
Heartbeat CPU 0 instructions: 26000000 cycles: 8312653 heartbeat IPC: 3.20952 cumulative IPC: 3.12776 (Simulation time: 0 hr 8 min 50 sec) 
Heartbeat CPU 0 instructions: 27000003 cycles: 8624226 heartbeat IPC: 3.20953 cumulative IPC: 3.13072 (Simulation time: 0 hr 9 min 11 sec) 
Heartbeat CPU 0 instructions: 28000000 cycles: 8948866 heartbeat IPC: 3.08033 cumulative IPC: 3.12889 (Simulation time: 0 hr 9 min 32 sec) 
Heartbeat CPU 0 instructions: 29000000 cycles: 9282199 heartbeat IPC: 3 cumulative IPC: 3.12426 (Simulation time: 0 hr 9 min 52 sec) 
Heartbeat CPU 0 instructions: 30000001 cycles: 9615533 heartbeat IPC: 3 cumulative IPC: 3.11995 (Simulation time: 0 hr 10 min 12 sec) 
Heartbeat CPU 0 instructions: 31000000 cycles: 9948866 heartbeat IPC: 3 cumulative IPC: 3.11593 (Simulation time: 0 hr 10 min 31 sec) 
Heartbeat CPU 0 instructions: 32000000 cycles: 10282200 heartbeat IPC: 2.99999 cumulative IPC: 3.11217 (Simulation time: 0 hr 10 min 51 sec) 
Heartbeat CPU 0 instructions: 33000003 cycles: 10587669 heartbeat IPC: 3.27366 cumulative IPC: 3.11683 (Simulation time: 0 hr 11 min 12 sec) 
Heartbeat CPU 0 instructions: 34000002 cycles: 10889391 heartbeat IPC: 3.31431 cumulative IPC: 3.12231 (Simulation time: 0 hr 11 min 33 sec) 
Heartbeat CPU 0 instructions: 35000002 cycles: 11191114 heartbeat IPC: 3.3143 cumulative IPC: 3.12748 (Simulation time: 0 hr 11 min 52 sec) 
Heartbeat CPU 0 instructions: 36000000 cycles: 11492840 heartbeat IPC: 3.31426 cumulative IPC: 3.13239 (Simulation time: 0 hr 12 min 13 sec) 
Heartbeat CPU 0 instructions: 37000002 cycles: 11794564 heartbeat IPC: 3.31429 cumulative IPC: 3.13704 (Simulation time: 0 hr 12 min 36 sec) 
Heartbeat CPU 0 instructions: 38000003 cycles: 12117424 heartbeat IPC: 3.09732 cumulative IPC: 3.13598 (Simulation time: 0 hr 12 min 59 sec) 
Heartbeat CPU 0 instructions: 39000002 cycles: 12450757 heartbeat IPC: 3 cumulative IPC: 3.13234 (Simulation time: 0 hr 13 min 23 sec) 
Heartbeat CPU 0 instructions: 40000000 cycles: 12784090 heartbeat IPC: 3 cumulative IPC: 3.12889 (Simulation time: 0 hr 13 min 46 sec) 
Heartbeat CPU 0 instructions: 41000000 cycles: 13117423 heartbeat IPC: 3 cumulative IPC: 3.12561 (Simulation time: 0 hr 14 min 8 sec) 
Heartbeat CPU 0 instructions: 42000001 cycles: 13450757 heartbeat IPC: 3 cumulative IPC: 3.1225 (Simulation time: 0 hr 14 min 32 sec) 
Heartbeat CPU 0 instructions: 43000003 cycles: 13754059 heartbeat IPC: 3.29705 cumulative IPC: 3.12635 (Simulation time: 0 hr 14 min 56 sec) 
Heartbeat CPU 0 instructions: 44000000 cycles: 14055784 heartbeat IPC: 3.31427 cumulative IPC: 3.13038 (Simulation time: 0 hr 15 min 18 sec) 
Heartbeat CPU 0 instructions: 45000000 cycles: 14357508 heartbeat IPC: 3.31429 cumulative IPC: 3.13425 (Simulation time: 0 hr 15 min 40 sec) 
Heartbeat CPU 0 instructions: 46000002 cycles: 14659231 heartbeat IPC: 3.3143 cumulative IPC: 3.13795 (Simulation time: 0 hr 16 min 4 sec) 
Heartbeat CPU 0 instructions: 47000002 cycles: 14960955 heartbeat IPC: 3.31429 cumulative IPC: 3.14151 (Simulation time: 0 hr 16 min 26 sec) 
Heartbeat CPU 0 instructions: 48000000 cycles: 15285989 heartbeat IPC: 3.0766 cumulative IPC: 3.14013 (Simulation time: 0 hr 16 min 48 sec) 
Heartbeat CPU 0 instructions: 49000002 cycles: 15619323 heartbeat IPC: 3 cumulative IPC: 3.13714 (Simulation time: 0 hr 17 min 10 sec) 
Heartbeat CPU 0 instructions: 50000001 cycles: 15952656 heartbeat IPC: 3 cumulative IPC: 3.13427 (Simulation time: 0 hr 17 min 35 sec) 

Warmup complete CPU 0 instructions: 50000001 cycles: 15952656 (Simulation time: 0 hr 17 min 35 sec) 

Heartbeat CPU 0 instructions: 51000000 cycles: 17472253 heartbeat IPC: 0.658069 cumulative IPC: 0.658069 (Simulation time: 0 hr 18 min 13 sec) 
Heartbeat CPU 0 instructions: 52000000 cycles: 18991927 heartbeat IPC: 0.658036 cumulative IPC: 0.658052 (Simulation time: 0 hr 18 min 51 sec) 
Heartbeat CPU 0 instructions: 53000002 cycles: 20511631 heartbeat IPC: 0.658024 cumulative IPC: 0.658043 (Simulation time: 0 hr 19 min 32 sec) 
Heartbeat CPU 0 instructions: 54000001 cycles: 22030771 heartbeat IPC: 0.658267 cumulative IPC: 0.658099 (Simulation time: 0 hr 20 min 10 sec) 
Heartbeat CPU 0 instructions: 55000000 cycles: 23550423 heartbeat IPC: 0.658045 cumulative IPC: 0.658088 (Simulation time: 0 hr 20 min 52 sec) 
Heartbeat CPU 0 instructions: 56000000 cycles: 25069892 heartbeat IPC: 0.658125 cumulative IPC: 0.658094 (Simulation time: 0 hr 21 min 30 sec) 
Heartbeat CPU 0 instructions: 57000000 cycles: 26589485 heartbeat IPC: 0.658071 cumulative IPC: 0.658091 (Simulation time: 0 hr 22 min 8 sec) 
Heartbeat CPU 0 instructions: 58000002 cycles: 28108956 heartbeat IPC: 0.658125 cumulative IPC: 0.658095 (Simulation time: 0 hr 22 min 47 sec) 
Heartbeat CPU 0 instructions: 59000001 cycles: 29480245 heartbeat IPC: 0.72924 cumulative IPC: 0.665307 (Simulation time: 0 hr 23 min 25 sec) 
Heartbeat CPU 0 instructions: 60000000 cycles: 30591953 heartbeat IPC: 0.899516 cumulative IPC: 0.683093 (Simulation time: 0 hr 24 min 6 sec) 
Heartbeat CPU 0 instructions: 61000003 cycles: 32068283 heartbeat IPC: 0.677357 cumulative IPC: 0.682567 (Simulation time: 0 hr 24 min 45 sec) 
Heartbeat CPU 0 instructions: 62000002 cycles: 33587755 heartbeat IPC: 0.658123 cumulative IPC: 0.680461 (Simulation time: 0 hr 25 min 24 sec) 
Heartbeat CPU 0 instructions: 63000001 cycles: 35107299 heartbeat IPC: 0.658091 cumulative IPC: 0.678687 (Simulation time: 0 hr 26 min 1 sec) 
Heartbeat CPU 0 instructions: 64000000 cycles: 36626763 heartbeat IPC: 0.658126 cumulative IPC: 0.677176 (Simulation time: 0 hr 26 min 38 sec) 
Heartbeat CPU 0 instructions: 65000001 cycles: 38146251 heartbeat IPC: 0.658117 cumulative IPC: 0.675871 (Simulation time: 0 hr 27 min 13 sec) 
Heartbeat CPU 0 instructions: 66000000 cycles: 39665814 heartbeat IPC: 0.658083 cumulative IPC: 0.674731 (Simulation time: 0 hr 27 min 49 sec) 
Heartbeat CPU 0 instructions: 67000001 cycles: 41162878 heartbeat IPC: 0.667975 cumulative IPC: 0.67433 (Simulation time: 0 hr 28 min 27 sec) 
Heartbeat CPU 0 instructions: 68000000 cycles: 42655001 heartbeat IPC: 0.670185 cumulative IPC: 0.674098 (Simulation time: 0 hr 29 min 6 sec) 
Heartbeat CPU 0 instructions: 69000002 cycles: 44147148 heartbeat IPC: 0.670177 cumulative IPC: 0.673891 (Simulation time: 0 hr 29 min 45 sec) 
Heartbeat CPU 0 instructions: 70000001 cycles: 45639369 heartbeat IPC: 0.670141 cumulative IPC: 0.673702 (Simulation time: 0 hr 30 min 23 sec) 
Heartbeat CPU 0 instructions: 71000003 cycles: 47190002 heartbeat IPC: 0.644899 cumulative IPC: 0.672272 (Simulation time: 0 hr 30 min 58 sec) 
Heartbeat CPU 0 instructions: 72000000 cycles: 49468453 heartbeat IPC: 0.438893 cumulative IPC: 0.656407 (Simulation time: 0 hr 31 min 32 sec) 
Heartbeat CPU 0 instructions: 73000000 cycles: 51768527 heartbeat IPC: 0.434769 cumulative IPC: 0.642173 (Simulation time: 0 hr 32 min 6 sec) 
Heartbeat CPU 0 instructions: 74000000 cycles: 54055064 heartbeat IPC: 0.437343 cumulative IPC: 0.629881 (Simulation time: 0 hr 32 min 39 sec) 
Heartbeat CPU 0 instructions: 75000000 cycles: 56350344 heartbeat IPC: 0.435677 cumulative IPC: 0.618847 (Simulation time: 0 hr 33 min 13 sec) 
Heartbeat CPU 0 instructions: 76000000 cycles: 58660431 heartbeat IPC: 0.432884 cumulative IPC: 0.608788 (Simulation time: 0 hr 33 min 46 sec) 
Heartbeat CPU 0 instructions: 77000001 cycles: 60293144 heartbeat IPC: 0.612478 cumulative IPC: 0.608924 (Simulation time: 0 hr 34 min 26 sec) 
Heartbeat CPU 0 instructions: 78000000 cycles: 61791035 heartbeat IPC: 0.667605 cumulative IPC: 0.610842 (Simulation time: 0 hr 35 min 4 sec) 
Heartbeat CPU 0 instructions: 79000001 cycles: 62773264 heartbeat IPC: 1.01809 cumulative IPC: 0.619385 (Simulation time: 0 hr 35 min 38 sec) 
Heartbeat CPU 0 instructions: 80000000 cycles: 64209957 heartbeat IPC: 0.696042 cumulative IPC: 0.621668 (Simulation time: 0 hr 36 min 14 sec) 
Heartbeat CPU 0 instructions: 81000002 cycles: 65810444 heartbeat IPC: 0.624811 cumulative IPC: 0.621768 (Simulation time: 0 hr 36 min 48 sec) 
Heartbeat CPU 0 instructions: 82000003 cycles: 68066170 heartbeat IPC: 0.443317 cumulative IPC: 0.614044 (Simulation time: 0 hr 37 min 19 sec) 
Heartbeat CPU 0 instructions: 83000000 cycles: 70355308 heartbeat IPC: 0.436844 cumulative IPC: 0.606588 (Simulation time: 0 hr 37 min 51 sec) 
Heartbeat CPU 0 instructions: 84000000 cycles: 72638743 heartbeat IPC: 0.437937 cumulative IPC: 0.599794 (Simulation time: 0 hr 38 min 24 sec) 
Heartbeat CPU 0 instructions: 85000002 cycles: 74940614 heartbeat IPC: 0.43443 cumulative IPC: 0.593341 (Simulation time: 0 hr 38 min 57 sec) 
Heartbeat CPU 0 instructions: 86000002 cycles: 77241786 heartbeat IPC: 0.434561 cumulative IPC: 0.58738 (Simulation time: 0 hr 39 min 30 sec) 
Heartbeat CPU 0 instructions: 87000002 cycles: 78893437 heartbeat IPC: 0.605455 cumulative IPC: 0.587854 (Simulation time: 0 hr 40 min 10 sec) 
Heartbeat CPU 0 instructions: 88000000 cycles: 80466531 heartbeat IPC: 0.635689 cumulative IPC: 0.589021 (Simulation time: 0 hr 40 min 52 sec) 
Heartbeat CPU 0 instructions: 89000000 cycles: 82039699 heartbeat IPC: 0.63566 cumulative IPC: 0.590131 (Simulation time: 0 hr 41 min 33 sec) 
Heartbeat CPU 0 instructions: 90000000 cycles: 83976361 heartbeat IPC: 0.516352 cumulative IPC: 0.58803 (Simulation time: 0 hr 42 min 12 sec) 
Heartbeat CPU 0 instructions: 91000001 cycles: 86915056 heartbeat IPC: 0.340287 cumulative IPC: 0.577771 (Simulation time: 0 hr 42 min 47 sec) 
Heartbeat CPU 0 instructions: 92000000 cycles: 89830319 heartbeat IPC: 0.343022 cumulative IPC: 0.568507 (Simulation time: 0 hr 43 min 22 sec) 
Heartbeat CPU 0 instructions: 93000001 cycles: 92765796 heartbeat IPC: 0.34066 cumulative IPC: 0.5598 (Simulation time: 0 hr 43 min 56 sec) 
Heartbeat CPU 0 instructions: 94000001 cycles: 95481790 heartbeat IPC: 0.368189 cumulative IPC: 0.553256 (Simulation time: 0 hr 44 min 32 sec) 
Heartbeat CPU 0 instructions: 95000000 cycles: 97058476 heartbeat IPC: 0.634241 cumulative IPC: 0.554831 (Simulation time: 0 hr 45 min 14 sec) 
Heartbeat CPU 0 instructions: 96000000 cycles: 98598222 heartbeat IPC: 0.649458 cumulative IPC: 0.556594 (Simulation time: 0 hr 45 min 55 sec) 
Heartbeat CPU 0 instructions: 97000002 cycles: 100165271 heartbeat IPC: 0.638143 cumulative IPC: 0.558111 (Simulation time: 0 hr 46 min 37 sec) 
Heartbeat CPU 0 instructions: 98000001 cycles: 102353162 heartbeat IPC: 0.457061 cumulative IPC: 0.555552 (Simulation time: 0 hr 47 min 15 sec) 
Heartbeat CPU 0 instructions: 99000003 cycles: 105251360 heartbeat IPC: 0.345043 cumulative IPC: 0.54872 (Simulation time: 0 hr 47 min 54 sec) 
Heartbeat CPU 0 instructions: 100000000 cycles: 108136871 heartbeat IPC: 0.346558 cumulative IPC: 0.542392 (Simulation time: 0 hr 48 min 30 sec) 
Heartbeat CPU 0 instructions: 101000000 cycles: 111039527 heartbeat IPC: 0.344512 cumulative IPC: 0.536352 (Simulation time: 0 hr 49 min 9 sec) 
Heartbeat CPU 0 instructions: 102000000 cycles: 113114132 heartbeat IPC: 0.482019 cumulative IPC: 0.535192 (Simulation time: 0 hr 49 min 46 sec) 
Heartbeat CPU 0 instructions: 103000002 cycles: 114258316 heartbeat IPC: 0.873987 cumulative IPC: 0.539135 (Simulation time: 0 hr 50 min 21 sec) 
Heartbeat CPU 0 instructions: 104000000 cycles: 115729252 heartbeat IPC: 0.679838 cumulative IPC: 0.541209 (Simulation time: 0 hr 50 min 58 sec) 
Heartbeat CPU 0 instructions: 105000000 cycles: 117200133 heartbeat IPC: 0.679865 cumulative IPC: 0.543223 (Simulation time: 0 hr 51 min 35 sec) 
Heartbeat CPU 0 instructions: 106000003 cycles: 118671092 heartbeat IPC: 0.679831 cumulative IPC: 0.54518 (Simulation time: 0 hr 52 min 12 sec) 
Heartbeat CPU 0 instructions: 107000000 cycles: 120860734 heartbeat IPC: 0.456694 cumulative IPC: 0.543333 (Simulation time: 0 hr 52 min 44 sec) 
Heartbeat CPU 0 instructions: 108000000 cycles: 123438278 heartbeat IPC: 0.387966 cumulative IPC: 0.539607 (Simulation time: 0 hr 53 min 16 sec) 
Heartbeat CPU 0 instructions: 109000002 cycles: 126021520 heartbeat IPC: 0.387111 cumulative IPC: 0.536028 (Simulation time: 0 hr 53 min 49 sec) 
Heartbeat CPU 0 instructions: 110000002 cycles: 128603996 heartbeat IPC: 0.387225 cumulative IPC: 0.532617 (Simulation time: 0 hr 54 min 20 sec) 
Heartbeat CPU 0 instructions: 111000001 cycles: 131202955 heartbeat IPC: 0.384769 cumulative IPC: 0.529283 (Simulation time: 0 hr 54 min 54 sec) 
Heartbeat CPU 0 instructions: 112000000 cycles: 133144528 heartbeat IPC: 0.515046 cumulative IPC: 0.529047 (Simulation time: 0 hr 55 min 29 sec) 
Heartbeat CPU 0 instructions: 113000002 cycles: 134645355 heartbeat IPC: 0.666301 cumulative IPC: 0.530782 (Simulation time: 0 hr 56 min 6 sec) 
Heartbeat CPU 0 instructions: 114000001 cycles: 136117442 heartbeat IPC: 0.679307 cumulative IPC: 0.532602 (Simulation time: 0 hr 56 min 45 sec) 
Heartbeat CPU 0 instructions: 115000000 cycles: 137576665 heartbeat IPC: 0.685296 cumulative IPC: 0.534434 (Simulation time: 0 hr 57 min 21 sec) 
Heartbeat CPU 0 instructions: 116000000 cycles: 139074569 heartbeat IPC: 0.667599 cumulative IPC: 0.536054 (Simulation time: 0 hr 57 min 56 sec) 
Heartbeat CPU 0 instructions: 117000000 cycles: 141682700 heartbeat IPC: 0.383416 cumulative IPC: 0.532888 (Simulation time: 0 hr 58 min 27 sec) 
Heartbeat CPU 0 instructions: 118000001 cycles: 144451315 heartbeat IPC: 0.361192 cumulative IPC: 0.529188 (Simulation time: 0 hr 58 min 59 sec) 
Heartbeat CPU 0 instructions: 119000001 cycles: 147222665 heartbeat IPC: 0.360835 cumulative IPC: 0.525634 (Simulation time: 0 hr 59 min 31 sec) 
Heartbeat CPU 0 instructions: 120000000 cycles: 149998961 heartbeat IPC: 0.360192 cumulative IPC: 0.522208 (Simulation time: 1 hr 0 min 3 sec) 
Heartbeat CPU 0 instructions: 121000000 cycles: 152738434 heartbeat IPC: 0.365034 cumulative IPC: 0.51906 (Simulation time: 1 hr 0 min 33 sec) 
Heartbeat CPU 0 instructions: 122000000 cycles: 153826773 heartbeat IPC: 0.918831 cumulative IPC: 0.522215 (Simulation time: 1 hr 1 min 6 sec) 
Heartbeat CPU 0 instructions: 123000001 cycles: 155282552 heartbeat IPC: 0.686918 cumulative IPC: 0.523936 (Simulation time: 1 hr 1 min 43 sec) 
Heartbeat CPU 0 instructions: 124000000 cycles: 156748635 heartbeat IPC: 0.682089 cumulative IPC: 0.525583 (Simulation time: 1 hr 2 min 20 sec) 
Heartbeat CPU 0 instructions: 125000002 cycles: 158215068 heartbeat IPC: 0.681928 cumulative IPC: 0.527195 (Simulation time: 1 hr 2 min 57 sec) 
Heartbeat CPU 0 instructions: 126000001 cycles: 159755475 heartbeat IPC: 0.649178 cumulative IPC: 0.528501 (Simulation time: 1 hr 3 min 33 sec) 
Heartbeat CPU 0 instructions: 127000000 cycles: 162036726 heartbeat IPC: 0.438356 cumulative IPC: 0.527094 (Simulation time: 1 hr 4 min 6 sec) 
Heartbeat CPU 0 instructions: 128000000 cycles: 164335104 heartbeat IPC: 0.435089 cumulative IPC: 0.525669 (Simulation time: 1 hr 4 min 40 sec) 
Heartbeat CPU 0 instructions: 129000002 cycles: 166627175 heartbeat IPC: 0.436288 cumulative IPC: 0.524309 (Simulation time: 1 hr 5 min 17 sec) 
Heartbeat CPU 0 instructions: 130000003 cycles: 168925890 heartbeat IPC: 0.435026 cumulative IPC: 0.522967 (Simulation time: 1 hr 5 min 50 sec) 
Heartbeat CPU 0 instructions: 131000001 cycles: 171234916 heartbeat IPC: 0.433082 cumulative IPC: 0.521631 (Simulation time: 1 hr 6 min 24 sec) 
Heartbeat CPU 0 instructions: 132000000 cycles: 172811989 heartbeat IPC: 0.634085 cumulative IPC: 0.522761 (Simulation time: 1 hr 7 min 1 sec) 
Heartbeat CPU 0 instructions: 133000001 cycles: 174270378 heartbeat IPC: 0.685689 cumulative IPC: 0.524262 (Simulation time: 1 hr 7 min 39 sec) 
Heartbeat CPU 0 instructions: 134000000 cycles: 175685851 heartbeat IPC: 0.706477 cumulative IPC: 0.525877 (Simulation time: 1 hr 8 min 17 sec) 
Heartbeat CPU 0 instructions: 135000001 cycles: 177155100 heartbeat IPC: 0.68062 cumulative IPC: 0.527287 (Simulation time: 1 hr 8 min 52 sec) 
Heartbeat CPU 0 instructions: 136000000 cycles: 178739086 heartbeat IPC: 0.631318 cumulative IPC: 0.5283 (Simulation time: 1 hr 9 min 28 sec) 
Heartbeat CPU 0 instructions: 137000001 cycles: 181023461 heartbeat IPC: 0.437757 cumulative IPC: 0.527047 (Simulation time: 1 hr 9 min 59 sec) 
Heartbeat CPU 0 instructions: 138000001 cycles: 183332184 heartbeat IPC: 0.43314 cumulative IPC: 0.525751 (Simulation time: 1 hr 10 min 32 sec) 
Heartbeat CPU 0 instructions: 139000000 cycles: 185629854 heartbeat IPC: 0.435223 cumulative IPC: 0.524525 (Simulation time: 1 hr 11 min 4 sec) 
Heartbeat CPU 0 instructions: 140000000 cycles: 187942311 heartbeat IPC: 0.43244 cumulative IPC: 0.523287 (Simulation time: 1 hr 11 min 37 sec) 
Heartbeat CPU 0 instructions: 141000000 cycles: 190178667 heartbeat IPC: 0.447156 cumulative IPC: 0.52231 (Simulation time: 1 hr 12 min 9 sec) 
Heartbeat CPU 0 instructions: 142000002 cycles: 191116841 heartbeat IPC: 1.0659 cumulative IPC: 0.525222 (Simulation time: 1 hr 12 min 44 sec) 
Heartbeat CPU 0 instructions: 143000001 cycles: 192555871 heartbeat IPC: 0.694912 cumulative IPC: 0.526604 (Simulation time: 1 hr 13 min 21 sec) 
Heartbeat CPU 0 instructions: 144000000 cycles: 193984195 heartbeat IPC: 0.700121 cumulative IPC: 0.527996 (Simulation time: 1 hr 13 min 59 sec) 
Heartbeat CPU 0 instructions: 145000003 cycles: 195412675 heartbeat IPC: 0.700047 cumulative IPC: 0.529366 (Simulation time: 1 hr 14 min 36 sec) 
Heartbeat CPU 0 instructions: 146000002 cycles: 196841007 heartbeat IPC: 0.700117 cumulative IPC: 0.530714 (Simulation time: 1 hr 15 min 14 sec) 
Heartbeat CPU 0 instructions: 147000001 cycles: 198269411 heartbeat IPC: 0.700081 cumulative IPC: 0.532041 (Simulation time: 1 hr 15 min 53 sec) 
Heartbeat CPU 0 instructions: 148000000 cycles: 199697515 heartbeat IPC: 0.700228 cumulative IPC: 0.533348 (Simulation time: 1 hr 16 min 31 sec) 
Heartbeat CPU 0 instructions: 149000001 cycles: 201125863 heartbeat IPC: 0.70011 cumulative IPC: 0.534635 (Simulation time: 1 hr 17 min 11 sec) 
Heartbeat CPU 0 instructions: 150000000 cycles: 202554286 heartbeat IPC: 0.700072 cumulative IPC: 0.535901 (Simulation time: 1 hr 17 min 47 sec) 
Finished CPU 0 instructions: 100000002 cycles: 186601631 cummulative IPC: 0.535901 (Simulation time: 1 hr 17 min 47 sec) 

ChampSim completed all CPUs

Region of Interest Statistics

CPU 0 cummulative IPC: 0.535901 instructions: 100000002 cycles: 186601631
LLC TOTAL     ACCESS:    3739906  HIT:     145418  MISS:    3594488
LLC LOAD      ACCESS:     680332  HIT:      36766  MISS:     643566
LLC RFO       ACCESS:         20  HIT:         20  MISS:          0
LLC PREFETCH  ACCESS:    2115807  HIT:      91433  MISS:    2024374
LLC WRITEBACK ACCESS:     943747  HIT:      17199  MISS:     926548
OPTgen accesses: 4326
OPTgen hits: 249
OPTgen hit rate: 5.75589


