
*** ChampSim Multicore Out-of-Order Simulator ***

Warmup Instructions: 50000000
Simulation Instructions: 100000000
Configuration: 2
Number of CPUs: 1
LLC sets: 2048
LLC ways: 16
Off-chip DRAM Channels: 1 Width: 64-bit Data Rate: 1600 MT/s

CPU 0 runs /datasets/cs240c-wi22-a00-public/data/Assignment2-gz/wrf_1212B.trace.gz
CPU 0 L1D next line prefetcher
CPU 0 L2C IP-based stride prefetcher
Initialize Hawkeye state
Heartbeat CPU 0 instructions: 1000001 cycles: 598660 heartbeat IPC: 1.6704 cumulative IPC: 1.6704 (Simulation time: 0 hr 0 min 41 sec) 
Heartbeat CPU 0 instructions: 2000000 cycles: 1197118 heartbeat IPC: 1.67096 cumulative IPC: 1.67068 (Simulation time: 0 hr 1 min 24 sec) 
Heartbeat CPU 0 instructions: 3000001 cycles: 1795976 heartbeat IPC: 1.66985 cumulative IPC: 1.6704 (Simulation time: 0 hr 2 min 2 sec) 
Heartbeat CPU 0 instructions: 4000000 cycles: 2394087 heartbeat IPC: 1.67193 cumulative IPC: 1.67078 (Simulation time: 0 hr 2 min 39 sec) 
Heartbeat CPU 0 instructions: 5000000 cycles: 2993053 heartbeat IPC: 1.66954 cumulative IPC: 1.67054 (Simulation time: 0 hr 3 min 20 sec) 
Heartbeat CPU 0 instructions: 6000001 cycles: 3592667 heartbeat IPC: 1.66774 cumulative IPC: 1.67007 (Simulation time: 0 hr 4 min 0 sec) 
Heartbeat CPU 0 instructions: 7000001 cycles: 4190665 heartbeat IPC: 1.67225 cumulative IPC: 1.67038 (Simulation time: 0 hr 4 min 40 sec) 
Heartbeat CPU 0 instructions: 8000000 cycles: 4788873 heartbeat IPC: 1.67166 cumulative IPC: 1.67054 (Simulation time: 0 hr 5 min 17 sec) 
Heartbeat CPU 0 instructions: 9000002 cycles: 5387792 heartbeat IPC: 1.66968 cumulative IPC: 1.67044 (Simulation time: 0 hr 5 min 58 sec) 
Heartbeat CPU 0 instructions: 10000001 cycles: 5987357 heartbeat IPC: 1.66787 cumulative IPC: 1.67019 (Simulation time: 0 hr 6 min 37 sec) 
Heartbeat CPU 0 instructions: 11000003 cycles: 6585304 heartbeat IPC: 1.67239 cumulative IPC: 1.67039 (Simulation time: 0 hr 7 min 15 sec) 
Heartbeat CPU 0 instructions: 12000000 cycles: 7184891 heartbeat IPC: 1.66781 cumulative IPC: 1.67017 (Simulation time: 0 hr 7 min 55 sec) 
Heartbeat CPU 0 instructions: 13000000 cycles: 7782944 heartbeat IPC: 1.67209 cumulative IPC: 1.67032 (Simulation time: 0 hr 8 min 34 sec) 
Heartbeat CPU 0 instructions: 14000002 cycles: 8381675 heartbeat IPC: 1.6702 cumulative IPC: 1.67031 (Simulation time: 0 hr 9 min 15 sec) 
Heartbeat CPU 0 instructions: 15000003 cycles: 8981003 heartbeat IPC: 1.66854 cumulative IPC: 1.67019 (Simulation time: 0 hr 10 min 0 sec) 
Heartbeat CPU 0 instructions: 16000000 cycles: 9579443 heartbeat IPC: 1.67101 cumulative IPC: 1.67024 (Simulation time: 0 hr 10 min 41 sec) 
Heartbeat CPU 0 instructions: 17000000 cycles: 10177930 heartbeat IPC: 1.67088 cumulative IPC: 1.67028 (Simulation time: 0 hr 11 min 24 sec) 
Heartbeat CPU 0 instructions: 18000000 cycles: 10777771 heartbeat IPC: 1.66711 cumulative IPC: 1.6701 (Simulation time: 0 hr 12 min 5 sec) 
Heartbeat CPU 0 instructions: 19000003 cycles: 11376778 heartbeat IPC: 1.66943 cumulative IPC: 1.67007 (Simulation time: 0 hr 12 min 49 sec) 
Heartbeat CPU 0 instructions: 20000000 cycles: 11974273 heartbeat IPC: 1.67365 cumulative IPC: 1.67025 (Simulation time: 0 hr 13 min 35 sec) 
Heartbeat CPU 0 instructions: 21000001 cycles: 12573597 heartbeat IPC: 1.66855 cumulative IPC: 1.67017 (Simulation time: 0 hr 14 min 19 sec) 
Heartbeat CPU 0 instructions: 22000001 cycles: 13172417 heartbeat IPC: 1.66995 cumulative IPC: 1.67016 (Simulation time: 0 hr 15 min 3 sec) 
Heartbeat CPU 0 instructions: 23000000 cycles: 13770961 heartbeat IPC: 1.67072 cumulative IPC: 1.67018 (Simulation time: 0 hr 15 min 46 sec) 
Heartbeat CPU 0 instructions: 24000000 cycles: 14370486 heartbeat IPC: 1.66799 cumulative IPC: 1.67009 (Simulation time: 0 hr 16 min 30 sec) 
Heartbeat CPU 0 instructions: 25000002 cycles: 14968207 heartbeat IPC: 1.67302 cumulative IPC: 1.67021 (Simulation time: 0 hr 17 min 16 sec) 
Heartbeat CPU 0 instructions: 26000000 cycles: 15566336 heartbeat IPC: 1.67188 cumulative IPC: 1.67027 (Simulation time: 0 hr 18 min 3 sec) 
Heartbeat CPU 0 instructions: 27000000 cycles: 16165864 heartbeat IPC: 1.66798 cumulative IPC: 1.67019 (Simulation time: 0 hr 18 min 48 sec) 
Heartbeat CPU 0 instructions: 28000000 cycles: 16764717 heartbeat IPC: 1.66986 cumulative IPC: 1.67017 (Simulation time: 0 hr 19 min 31 sec) 
Heartbeat CPU 0 instructions: 29000000 cycles: 17361460 heartbeat IPC: 1.67576 cumulative IPC: 1.67037 (Simulation time: 0 hr 20 min 14 sec) 
Heartbeat CPU 0 instructions: 30000003 cycles: 17961441 heartbeat IPC: 1.66672 cumulative IPC: 1.67024 (Simulation time: 0 hr 20 min 54 sec) 
Heartbeat CPU 0 instructions: 31000000 cycles: 18559292 heartbeat IPC: 1.67265 cumulative IPC: 1.67032 (Simulation time: 0 hr 21 min 35 sec) 
Heartbeat CPU 0 instructions: 32000000 cycles: 19157615 heartbeat IPC: 1.67134 cumulative IPC: 1.67035 (Simulation time: 0 hr 22 min 15 sec) 
Heartbeat CPU 0 instructions: 33000003 cycles: 19755964 heartbeat IPC: 1.67127 cumulative IPC: 1.67038 (Simulation time: 0 hr 22 min 54 sec) 
Heartbeat CPU 0 instructions: 34000000 cycles: 20353987 heartbeat IPC: 1.67217 cumulative IPC: 1.67043 (Simulation time: 0 hr 23 min 36 sec) 
Heartbeat CPU 0 instructions: 35000002 cycles: 20953782 heartbeat IPC: 1.66724 cumulative IPC: 1.67034 (Simulation time: 0 hr 24 min 18 sec) 
Heartbeat CPU 0 instructions: 36000000 cycles: 21552561 heartbeat IPC: 1.67006 cumulative IPC: 1.67034 (Simulation time: 0 hr 24 min 58 sec) 
Heartbeat CPU 0 instructions: 37000003 cycles: 22150479 heartbeat IPC: 1.67248 cumulative IPC: 1.67039 (Simulation time: 0 hr 25 min 38 sec) 
Heartbeat CPU 0 instructions: 38000003 cycles: 22749137 heartbeat IPC: 1.6704 cumulative IPC: 1.67039 (Simulation time: 0 hr 26 min 18 sec) 
Heartbeat CPU 0 instructions: 39000001 cycles: 23347351 heartbeat IPC: 1.67164 cumulative IPC: 1.67043 (Simulation time: 0 hr 26 min 59 sec) 
Heartbeat CPU 0 instructions: 40000000 cycles: 23945331 heartbeat IPC: 1.6723 cumulative IPC: 1.67047 (Simulation time: 0 hr 27 min 41 sec) 
Heartbeat CPU 0 instructions: 41000001 cycles: 24544122 heartbeat IPC: 1.67003 cumulative IPC: 1.67046 (Simulation time: 0 hr 28 min 28 sec) 
Heartbeat CPU 0 instructions: 42000002 cycles: 25143016 heartbeat IPC: 1.66975 cumulative IPC: 1.67044 (Simulation time: 0 hr 29 min 8 sec) 
Heartbeat CPU 0 instructions: 43000001 cycles: 25739484 heartbeat IPC: 1.67653 cumulative IPC: 1.67059 (Simulation time: 0 hr 29 min 50 sec) 
Heartbeat CPU 0 instructions: 44000000 cycles: 26338468 heartbeat IPC: 1.66949 cumulative IPC: 1.67056 (Simulation time: 0 hr 30 min 29 sec) 
Heartbeat CPU 0 instructions: 45000000 cycles: 26936932 heartbeat IPC: 1.67094 cumulative IPC: 1.67057 (Simulation time: 0 hr 31 min 8 sec) 
Heartbeat CPU 0 instructions: 46000000 cycles: 27536415 heartbeat IPC: 1.6681 cumulative IPC: 1.67052 (Simulation time: 0 hr 31 min 48 sec) 
Heartbeat CPU 0 instructions: 47000000 cycles: 28133477 heartbeat IPC: 1.67487 cumulative IPC: 1.67061 (Simulation time: 0 hr 32 min 28 sec) 
Heartbeat CPU 0 instructions: 48000000 cycles: 28732153 heartbeat IPC: 1.67035 cumulative IPC: 1.6706 (Simulation time: 0 hr 33 min 8 sec) 
Heartbeat CPU 0 instructions: 49000002 cycles: 29331647 heartbeat IPC: 1.66808 cumulative IPC: 1.67055 (Simulation time: 0 hr 33 min 47 sec) 
Heartbeat CPU 0 instructions: 50000002 cycles: 29930509 heartbeat IPC: 1.66983 cumulative IPC: 1.67054 (Simulation time: 0 hr 34 min 26 sec) 

Warmup complete CPU 0 instructions: 50000002 cycles: 29930509 (Simulation time: 0 hr 34 min 26 sec) 

Heartbeat CPU 0 instructions: 51000002 cycles: 31729883 heartbeat IPC: 0.555749 cumulative IPC: 0.555749 (Simulation time: 0 hr 35 min 17 sec) 
Heartbeat CPU 0 instructions: 52000000 cycles: 33452734 heartbeat IPC: 0.580432 cumulative IPC: 0.567822 (Simulation time: 0 hr 36 min 4 sec) 
Heartbeat CPU 0 instructions: 53000002 cycles: 35219605 heartbeat IPC: 0.565973 cumulative IPC: 0.567205 (Simulation time: 0 hr 36 min 54 sec) 
Heartbeat CPU 0 instructions: 54000001 cycles: 37000562 heartbeat IPC: 0.561495 cumulative IPC: 0.565766 (Simulation time: 0 hr 37 min 43 sec) 
Heartbeat CPU 0 instructions: 55000000 cycles: 38780432 heartbeat IPC: 0.561838 cumulative IPC: 0.564976 (Simulation time: 0 hr 38 min 33 sec) 
Heartbeat CPU 0 instructions: 56000000 cycles: 40553227 heartbeat IPC: 0.564081 cumulative IPC: 0.564827 (Simulation time: 0 hr 39 min 20 sec) 
Heartbeat CPU 0 instructions: 57000001 cycles: 42278223 heartbeat IPC: 0.579712 cumulative IPC: 0.566906 (Simulation time: 0 hr 40 min 9 sec) 
Heartbeat CPU 0 instructions: 58000001 cycles: 44059152 heartbeat IPC: 0.561505 cumulative IPC: 0.566226 (Simulation time: 0 hr 41 min 0 sec) 
Heartbeat CPU 0 instructions: 59000000 cycles: 45840738 heartbeat IPC: 0.561297 cumulative IPC: 0.565674 (Simulation time: 0 hr 41 min 50 sec) 
Heartbeat CPU 0 instructions: 60000000 cycles: 47623988 heartbeat IPC: 0.560774 cumulative IPC: 0.56518 (Simulation time: 0 hr 42 min 41 sec) 
Heartbeat CPU 0 instructions: 61000001 cycles: 49363285 heartbeat IPC: 0.574946 cumulative IPC: 0.566054 (Simulation time: 0 hr 43 min 30 sec) 
Heartbeat CPU 0 instructions: 62000001 cycles: 51106487 heartbeat IPC: 0.573657 cumulative IPC: 0.56668 (Simulation time: 0 hr 44 min 16 sec) 
Heartbeat CPU 0 instructions: 63000002 cycles: 52891659 heartbeat IPC: 0.560171 cumulative IPC: 0.566174 (Simulation time: 0 hr 45 min 7 sec) 
Heartbeat CPU 0 instructions: 64000000 cycles: 54674370 heartbeat IPC: 0.560942 cumulative IPC: 0.565797 (Simulation time: 0 hr 45 min 58 sec) 
Heartbeat CPU 0 instructions: 65000000 cycles: 56461966 heartbeat IPC: 0.559411 cumulative IPC: 0.565367 (Simulation time: 0 hr 46 min 47 sec) 
Heartbeat CPU 0 instructions: 66000001 cycles: 58174498 heartbeat IPC: 0.583931 cumulative IPC: 0.566492 (Simulation time: 0 hr 47 min 33 sec) 
Heartbeat CPU 0 instructions: 67000002 cycles: 59930850 heartbeat IPC: 0.569363 cumulative IPC: 0.56666 (Simulation time: 0 hr 48 min 24 sec) 
Heartbeat CPU 0 instructions: 68000000 cycles: 61715773 heartbeat IPC: 0.560247 cumulative IPC: 0.5663 (Simulation time: 0 hr 49 min 14 sec) 
Heartbeat CPU 0 instructions: 69000001 cycles: 63498026 heartbeat IPC: 0.561088 cumulative IPC: 0.566023 (Simulation time: 0 hr 50 min 2 sec) 
Heartbeat CPU 0 instructions: 70000000 cycles: 65266824 heartbeat IPC: 0.565355 cumulative IPC: 0.56599 (Simulation time: 0 hr 50 min 51 sec) 
Heartbeat CPU 0 instructions: 71000001 cycles: 66982161 heartbeat IPC: 0.582976 cumulative IPC: 0.566776 (Simulation time: 0 hr 51 min 39 sec) 
Heartbeat CPU 0 instructions: 72000000 cycles: 68759025 heartbeat IPC: 0.562789 cumulative IPC: 0.566594 (Simulation time: 0 hr 52 min 28 sec) 
Heartbeat CPU 0 instructions: 73000001 cycles: 70546223 heartbeat IPC: 0.559536 cumulative IPC: 0.566283 (Simulation time: 0 hr 53 min 17 sec) 
Heartbeat CPU 0 instructions: 74000000 cycles: 72326180 heartbeat IPC: 0.561811 cumulative IPC: 0.566095 (Simulation time: 0 hr 54 min 8 sec) 
Heartbeat CPU 0 instructions: 75000002 cycles: 74080547 heartbeat IPC: 0.570007 cumulative IPC: 0.566251 (Simulation time: 0 hr 54 min 55 sec) 
Heartbeat CPU 0 instructions: 76000000 cycles: 75815050 heartbeat IPC: 0.576533 cumulative IPC: 0.56664 (Simulation time: 0 hr 55 min 44 sec) 
Heartbeat CPU 0 instructions: 77000003 cycles: 77592886 heartbeat IPC: 0.562483 cumulative IPC: 0.566485 (Simulation time: 0 hr 56 min 33 sec) 
Heartbeat CPU 0 instructions: 78000000 cycles: 79374170 heartbeat IPC: 0.561391 cumulative IPC: 0.566301 (Simulation time: 0 hr 57 min 25 sec) 
Heartbeat CPU 0 instructions: 79000000 cycles: 81171025 heartbeat IPC: 0.556528 cumulative IPC: 0.565958 (Simulation time: 0 hr 58 min 12 sec) 
Heartbeat CPU 0 instructions: 80000000 cycles: 82889970 heartbeat IPC: 0.581752 cumulative IPC: 0.566471 (Simulation time: 0 hr 58 min 58 sec) 
Heartbeat CPU 0 instructions: 81000003 cycles: 84654685 heartbeat IPC: 0.566665 cumulative IPC: 0.566477 (Simulation time: 0 hr 59 min 47 sec) 
Heartbeat CPU 0 instructions: 82000002 cycles: 86441472 heartbeat IPC: 0.559663 cumulative IPC: 0.566262 (Simulation time: 1 hr 0 min 37 sec) 
Heartbeat CPU 0 instructions: 83000001 cycles: 88224805 heartbeat IPC: 0.560747 cumulative IPC: 0.566093 (Simulation time: 1 hr 1 min 26 sec) 
Heartbeat CPU 0 instructions: 84000000 cycles: 89998947 heartbeat IPC: 0.563652 cumulative IPC: 0.566021 (Simulation time: 1 hr 2 min 13 sec) 
Heartbeat CPU 0 instructions: 85000000 cycles: 91716380 heartbeat IPC: 0.582264 cumulative IPC: 0.566473 (Simulation time: 1 hr 3 min 2 sec) 
Heartbeat CPU 0 instructions: 86000001 cycles: 93501269 heartbeat IPC: 0.560259 cumulative IPC: 0.566298 (Simulation time: 1 hr 3 min 50 sec) 
Heartbeat CPU 0 instructions: 87000000 cycles: 95283366 heartbeat IPC: 0.561136 cumulative IPC: 0.566157 (Simulation time: 1 hr 4 min 38 sec) 
Heartbeat CPU 0 instructions: 88000000 cycles: 97059958 heartbeat IPC: 0.562875 cumulative IPC: 0.56607 (Simulation time: 1 hr 5 min 26 sec) 
Heartbeat CPU 0 instructions: 89000000 cycles: 98809616 heartbeat IPC: 0.57154 cumulative IPC: 0.566209 (Simulation time: 1 hr 6 min 12 sec) 
Heartbeat CPU 0 instructions: 90000000 cycles: 100565495 heartbeat IPC: 0.569515 cumulative IPC: 0.566292 (Simulation time: 1 hr 7 min 0 sec) 
Heartbeat CPU 0 instructions: 91000001 cycles: 102345008 heartbeat IPC: 0.561952 cumulative IPC: 0.566185 (Simulation time: 1 hr 7 min 49 sec) 
Heartbeat CPU 0 instructions: 92000000 cycles: 104128008 heartbeat IPC: 0.560852 cumulative IPC: 0.566057 (Simulation time: 1 hr 8 min 38 sec) 
Heartbeat CPU 0 instructions: 93000003 cycles: 105910093 heartbeat IPC: 0.561142 cumulative IPC: 0.565942 (Simulation time: 1 hr 9 min 26 sec) 
Heartbeat CPU 0 instructions: 94000001 cycles: 107636599 heartbeat IPC: 0.579203 cumulative IPC: 0.566236 (Simulation time: 1 hr 10 min 11 sec) 
Heartbeat CPU 0 instructions: 95000001 cycles: 109417623 heartbeat IPC: 0.561475 cumulative IPC: 0.56613 (Simulation time: 1 hr 11 min 1 sec) 
Heartbeat CPU 0 instructions: 96000000 cycles: 111196921 heartbeat IPC: 0.562019 cumulative IPC: 0.56604 (Simulation time: 1 hr 11 min 50 sec) 
Heartbeat CPU 0 instructions: 97000000 cycles: 112975772 heartbeat IPC: 0.562161 cumulative IPC: 0.565956 (Simulation time: 1 hr 12 min 38 sec) 
Heartbeat CPU 0 instructions: 98000000 cycles: 114735665 heartbeat IPC: 0.568216 cumulative IPC: 0.566003 (Simulation time: 1 hr 13 min 27 sec) 
Heartbeat CPU 0 instructions: 99000000 cycles: 116489554 heartbeat IPC: 0.570162 cumulative IPC: 0.566088 (Simulation time: 1 hr 14 min 16 sec) 
Heartbeat CPU 0 instructions: 100000000 cycles: 118267351 heartbeat IPC: 0.562494 cumulative IPC: 0.566015 (Simulation time: 1 hr 15 min 6 sec) 
Heartbeat CPU 0 instructions: 101000000 cycles: 120045295 heartbeat IPC: 0.562447 cumulative IPC: 0.565945 (Simulation time: 1 hr 15 min 56 sec) 
Heartbeat CPU 0 instructions: 102000003 cycles: 121833014 heartbeat IPC: 0.559374 cumulative IPC: 0.565817 (Simulation time: 1 hr 16 min 43 sec) 
Heartbeat CPU 0 instructions: 103000001 cycles: 123564194 heartbeat IPC: 0.57764 cumulative IPC: 0.566036 (Simulation time: 1 hr 17 min 27 sec) 
Heartbeat CPU 0 instructions: 104000000 cycles: 125348921 heartbeat IPC: 0.560309 cumulative IPC: 0.565929 (Simulation time: 1 hr 18 min 14 sec) 
Heartbeat CPU 0 instructions: 105000002 cycles: 127129558 heartbeat IPC: 0.561598 cumulative IPC: 0.565849 (Simulation time: 1 hr 19 min 1 sec) 
Heartbeat CPU 0 instructions: 106000001 cycles: 128906853 heartbeat IPC: 0.562652 cumulative IPC: 0.565792 (Simulation time: 1 hr 19 min 47 sec) 
Heartbeat CPU 0 instructions: 107000003 cycles: 130666284 heartbeat IPC: 0.568367 cumulative IPC: 0.565837 (Simulation time: 1 hr 20 min 33 sec) 
Heartbeat CPU 0 instructions: 108000000 cycles: 132431431 heartbeat IPC: 0.566523 cumulative IPC: 0.565849 (Simulation time: 1 hr 21 min 18 sec) 
Heartbeat CPU 0 instructions: 109000002 cycles: 134215459 heartbeat IPC: 0.56053 cumulative IPC: 0.565758 (Simulation time: 1 hr 22 min 1 sec) 
Heartbeat CPU 0 instructions: 110000003 cycles: 135994249 heartbeat IPC: 0.56218 cumulative IPC: 0.565698 (Simulation time: 1 hr 22 min 44 sec) 
Heartbeat CPU 0 instructions: 111000000 cycles: 137781478 heartbeat IPC: 0.559524 cumulative IPC: 0.565595 (Simulation time: 1 hr 23 min 26 sec) 
Heartbeat CPU 0 instructions: 112000000 cycles: 139522443 heartbeat IPC: 0.574394 cumulative IPC: 0.565735 (Simulation time: 1 hr 24 min 10 sec) 
Heartbeat CPU 0 instructions: 113000000 cycles: 141301594 heartbeat IPC: 0.562066 cumulative IPC: 0.565676 (Simulation time: 1 hr 24 min 48 sec) 
Heartbeat CPU 0 instructions: 114000000 cycles: 143081150 heartbeat IPC: 0.561938 cumulative IPC: 0.565618 (Simulation time: 1 hr 25 min 35 sec) 
Heartbeat CPU 0 instructions: 115000003 cycles: 144861758 heartbeat IPC: 0.561608 cumulative IPC: 0.565556 (Simulation time: 1 hr 26 min 14 sec) 
Heartbeat CPU 0 instructions: 116000000 cycles: 146618824 heartbeat IPC: 0.569129 cumulative IPC: 0.565609 (Simulation time: 1 hr 26 min 54 sec) 
Heartbeat CPU 0 instructions: 117000000 cycles: 148394394 heartbeat IPC: 0.563199 cumulative IPC: 0.565573 (Simulation time: 1 hr 27 min 30 sec) 
Heartbeat CPU 0 instructions: 118000002 cycles: 150173730 heartbeat IPC: 0.562009 cumulative IPC: 0.56552 (Simulation time: 1 hr 28 min 6 sec) 
Heartbeat CPU 0 instructions: 119000002 cycles: 151957310 heartbeat IPC: 0.56067 cumulative IPC: 0.56545 (Simulation time: 1 hr 28 min 42 sec) 
Heartbeat CPU 0 instructions: 120000000 cycles: 153732933 heartbeat IPC: 0.563181 cumulative IPC: 0.565417 (Simulation time: 1 hr 29 min 11 sec) 
Heartbeat CPU 0 instructions: 121000003 cycles: 155488015 heartbeat IPC: 0.569776 cumulative IPC: 0.565478 (Simulation time: 1 hr 29 min 39 sec) 
Heartbeat CPU 0 instructions: 122000000 cycles: 157267839 heartbeat IPC: 0.561852 cumulative IPC: 0.565427 (Simulation time: 1 hr 30 min 6 sec) 
Heartbeat CPU 0 instructions: 123000000 cycles: 159047995 heartbeat IPC: 0.561749 cumulative IPC: 0.565377 (Simulation time: 1 hr 30 min 36 sec) 
Heartbeat CPU 0 instructions: 124000000 cycles: 160827351 heartbeat IPC: 0.562001 cumulative IPC: 0.565331 (Simulation time: 1 hr 31 min 7 sec) 
Heartbeat CPU 0 instructions: 125000000 cycles: 162590345 heartbeat IPC: 0.567217 cumulative IPC: 0.565356 (Simulation time: 1 hr 31 min 36 sec) 
Heartbeat CPU 0 instructions: 126000003 cycles: 164370917 heartbeat IPC: 0.561619 cumulative IPC: 0.565306 (Simulation time: 1 hr 32 min 5 sec) 
Heartbeat CPU 0 instructions: 127000000 cycles: 166152879 heartbeat IPC: 0.561177 cumulative IPC: 0.565252 (Simulation time: 1 hr 32 min 34 sec) 
Heartbeat CPU 0 instructions: 128000000 cycles: 167931356 heartbeat IPC: 0.562279 cumulative IPC: 0.565214 (Simulation time: 1 hr 33 min 1 sec) 
Heartbeat CPU 0 instructions: 129000002 cycles: 169698038 heartbeat IPC: 0.566034 cumulative IPC: 0.565224 (Simulation time: 1 hr 33 min 27 sec) 
Heartbeat CPU 0 instructions: 130000000 cycles: 171472714 heartbeat IPC: 0.563482 cumulative IPC: 0.565202 (Simulation time: 1 hr 33 min 53 sec) 
Heartbeat CPU 0 instructions: 131000002 cycles: 173251456 heartbeat IPC: 0.562196 cumulative IPC: 0.565165 (Simulation time: 1 hr 34 min 19 sec) 
Heartbeat CPU 0 instructions: 132000000 cycles: 175035733 heartbeat IPC: 0.56045 cumulative IPC: 0.565107 (Simulation time: 1 hr 34 min 43 sec) 
Heartbeat CPU 0 instructions: 133000000 cycles: 176817678 heartbeat IPC: 0.561185 cumulative IPC: 0.56506 (Simulation time: 1 hr 35 min 7 sec) 
Heartbeat CPU 0 instructions: 134000000 cycles: 178579544 heartbeat IPC: 0.56758 cumulative IPC: 0.565089 (Simulation time: 1 hr 35 min 33 sec) 
Heartbeat CPU 0 instructions: 135000000 cycles: 180361314 heartbeat IPC: 0.56124 cumulative IPC: 0.565044 (Simulation time: 1 hr 35 min 56 sec) 
Heartbeat CPU 0 instructions: 136000000 cycles: 182141766 heartbeat IPC: 0.561655 cumulative IPC: 0.565004 (Simulation time: 1 hr 36 min 19 sec) 
Heartbeat CPU 0 instructions: 137000000 cycles: 183924860 heartbeat IPC: 0.560823 cumulative IPC: 0.564956 (Simulation time: 1 hr 36 min 41 sec) 
Heartbeat CPU 0 instructions: 138000000 cycles: 185697203 heartbeat IPC: 0.564225 cumulative IPC: 0.564947 (Simulation time: 1 hr 37 min 2 sec) 
Heartbeat CPU 0 instructions: 139000001 cycles: 187476440 heartbeat IPC: 0.562039 cumulative IPC: 0.564915 (Simulation time: 1 hr 37 min 22 sec) 
Heartbeat CPU 0 instructions: 140000000 cycles: 189254783 heartbeat IPC: 0.562321 cumulative IPC: 0.564886 (Simulation time: 1 hr 37 min 42 sec) 
Heartbeat CPU 0 instructions: 141000001 cycles: 191032749 heartbeat IPC: 0.562441 cumulative IPC: 0.564859 (Simulation time: 1 hr 38 min 3 sec) 
Heartbeat CPU 0 instructions: 142000000 cycles: 192810359 heartbeat IPC: 0.562553 cumulative IPC: 0.564834 (Simulation time: 1 hr 38 min 22 sec) 
Heartbeat CPU 0 instructions: 143000001 cycles: 194591127 heartbeat IPC: 0.561556 cumulative IPC: 0.564798 (Simulation time: 1 hr 38 min 40 sec) 
Heartbeat CPU 0 instructions: 144000000 cycles: 196370876 heartbeat IPC: 0.561876 cumulative IPC: 0.564767 (Simulation time: 1 hr 39 min 0 sec) 
Heartbeat CPU 0 instructions: 145000000 cycles: 198151586 heartbeat IPC: 0.561574 cumulative IPC: 0.564733 (Simulation time: 1 hr 39 min 17 sec) 
Heartbeat CPU 0 instructions: 146000000 cycles: 199940044 heartbeat IPC: 0.559141 cumulative IPC: 0.564674 (Simulation time: 1 hr 39 min 33 sec) 
Heartbeat CPU 0 instructions: 147000003 cycles: 201715047 heartbeat IPC: 0.563381 cumulative IPC: 0.564661 (Simulation time: 1 hr 39 min 48 sec) 
Heartbeat CPU 0 instructions: 148000000 cycles: 203496269 heartbeat IPC: 0.561411 cumulative IPC: 0.564627 (Simulation time: 1 hr 40 min 2 sec) 
Heartbeat CPU 0 instructions: 149000002 cycles: 205275349 heartbeat IPC: 0.562089 cumulative IPC: 0.564602 (Simulation time: 1 hr 40 min 16 sec) 
Heartbeat CPU 0 instructions: 150000002 cycles: 207072980 heartbeat IPC: 0.556288 cumulative IPC: 0.564517 (Simulation time: 1 hr 40 min 28 sec) 
Finished CPU 0 instructions: 100000000 cycles: 177142471 cummulative IPC: 0.564517 (Simulation time: 1 hr 40 min 28 sec) 

ChampSim completed all CPUs

Region of Interest Statistics

CPU 0 cummulative IPC: 0.564517 instructions: 100000000 cycles: 177142471
LLC TOTAL     ACCESS:     134478  HIT:      47832  MISS:      86646
LLC LOAD      ACCESS:      14873  HIT:       3899  MISS:      10974
LLC RFO       ACCESS:       1070  HIT:        160  MISS:        910
LLC PREFETCH  ACCESS:      79288  HIT:       8797  MISS:      70491
LLC WRITEBACK ACCESS:      39247  HIT:      34976  MISS:       4271
OPTgen accesses: 123
OPTgen hits: 42
OPTgen hit rate: 34.1463


