
*** ChampSim Multicore Out-of-Order Simulator ***

Warmup Instructions: 50000000
Simulation Instructions: 100000000
Configuration: 2
Number of CPUs: 1
LLC sets: 2048
LLC ways: 16
Off-chip DRAM Channels: 1 Width: 64-bit Data Rate: 1600 MT/s

CPU 0 runs /datasets/cs240c-wi22-a00-public/data/Assignment2-gz/sphinx3_883B.trace.gz
CPU 0 L1D next line prefetcher
CPU 0 L2C IP-based stride prefetcher
Initialize Hawkeye state
Heartbeat CPU 0 instructions: 1000003 cycles: 414365 heartbeat IPC: 2.41334 cumulative IPC: 2.41334 (Simulation time: 0 hr 0 min 37 sec) 
Heartbeat CPU 0 instructions: 2000000 cycles: 823889 heartbeat IPC: 2.44185 cumulative IPC: 2.42751 (Simulation time: 0 hr 1 min 14 sec) 
Heartbeat CPU 0 instructions: 3000003 cycles: 1298694 heartbeat IPC: 2.10613 cumulative IPC: 2.31002 (Simulation time: 0 hr 1 min 44 sec) 
Heartbeat CPU 0 instructions: 4000000 cycles: 1637584 heartbeat IPC: 2.9508 cumulative IPC: 2.44262 (Simulation time: 0 hr 2 min 14 sec) 
Heartbeat CPU 0 instructions: 5000000 cycles: 1992256 heartbeat IPC: 2.81951 cumulative IPC: 2.50972 (Simulation time: 0 hr 2 min 48 sec) 
Heartbeat CPU 0 instructions: 6000003 cycles: 2406767 heartbeat IPC: 2.41249 cumulative IPC: 2.49297 (Simulation time: 0 hr 3 min 24 sec) 
Heartbeat CPU 0 instructions: 7000002 cycles: 2815647 heartbeat IPC: 2.4457 cumulative IPC: 2.48611 (Simulation time: 0 hr 4 min 2 sec) 
Heartbeat CPU 0 instructions: 8000000 cycles: 3291484 heartbeat IPC: 2.10156 cumulative IPC: 2.43051 (Simulation time: 0 hr 4 min 33 sec) 
Heartbeat CPU 0 instructions: 9000001 cycles: 3630480 heartbeat IPC: 2.94989 cumulative IPC: 2.47901 (Simulation time: 0 hr 5 min 4 sec) 
Heartbeat CPU 0 instructions: 10000000 cycles: 3984554 heartbeat IPC: 2.82427 cumulative IPC: 2.50969 (Simulation time: 0 hr 5 min 33 sec) 
Heartbeat CPU 0 instructions: 11000000 cycles: 4398941 heartbeat IPC: 2.4132 cumulative IPC: 2.5006 (Simulation time: 0 hr 6 min 4 sec) 
Heartbeat CPU 0 instructions: 12000000 cycles: 4811775 heartbeat IPC: 2.42228 cumulative IPC: 2.49388 (Simulation time: 0 hr 6 min 39 sec) 
Heartbeat CPU 0 instructions: 13000001 cycles: 5277073 heartbeat IPC: 2.14916 cumulative IPC: 2.46349 (Simulation time: 0 hr 7 min 9 sec) 
Heartbeat CPU 0 instructions: 14000001 cycles: 5630900 heartbeat IPC: 2.82624 cumulative IPC: 2.48628 (Simulation time: 0 hr 7 min 39 sec) 
Heartbeat CPU 0 instructions: 15000000 cycles: 5977525 heartbeat IPC: 2.88496 cumulative IPC: 2.5094 (Simulation time: 0 hr 8 min 9 sec) 
Heartbeat CPU 0 instructions: 16000000 cycles: 6391040 heartbeat IPC: 2.41829 cumulative IPC: 2.5035 (Simulation time: 0 hr 8 min 38 sec) 
Heartbeat CPU 0 instructions: 17000000 cycles: 6803062 heartbeat IPC: 2.42705 cumulative IPC: 2.49887 (Simulation time: 0 hr 9 min 10 sec) 
Heartbeat CPU 0 instructions: 18000000 cycles: 7219385 heartbeat IPC: 2.40198 cumulative IPC: 2.49329 (Simulation time: 0 hr 9 min 43 sec) 
Heartbeat CPU 0 instructions: 19000003 cycles: 7633943 heartbeat IPC: 2.41221 cumulative IPC: 2.48888 (Simulation time: 0 hr 10 min 15 sec) 
Heartbeat CPU 0 instructions: 20000000 cycles: 7972895 heartbeat IPC: 2.95026 cumulative IPC: 2.5085 (Simulation time: 0 hr 10 min 45 sec) 
Heartbeat CPU 0 instructions: 21000000 cycles: 8382535 heartbeat IPC: 2.44117 cumulative IPC: 2.50521 (Simulation time: 0 hr 11 min 18 sec) 
Heartbeat CPU 0 instructions: 22000003 cycles: 8796035 heartbeat IPC: 2.41839 cumulative IPC: 2.50113 (Simulation time: 0 hr 11 min 52 sec) 
Heartbeat CPU 0 instructions: 23000003 cycles: 9206229 heartbeat IPC: 2.43787 cumulative IPC: 2.49831 (Simulation time: 0 hr 12 min 32 sec) 
Heartbeat CPU 0 instructions: 24000000 cycles: 9656923 heartbeat IPC: 2.21879 cumulative IPC: 2.48526 (Simulation time: 0 hr 13 min 8 sec) 
Heartbeat CPU 0 instructions: 25000000 cycles: 9995962 heartbeat IPC: 2.94951 cumulative IPC: 2.50101 (Simulation time: 0 hr 13 min 41 sec) 
Heartbeat CPU 0 instructions: 26000001 cycles: 10373152 heartbeat IPC: 2.65119 cumulative IPC: 2.50647 (Simulation time: 0 hr 14 min 17 sec) 
Heartbeat CPU 0 instructions: 27000001 cycles: 10788201 heartbeat IPC: 2.40935 cumulative IPC: 2.50273 (Simulation time: 0 hr 14 min 57 sec) 
Heartbeat CPU 0 instructions: 28000000 cycles: 11202995 heartbeat IPC: 2.41083 cumulative IPC: 2.49933 (Simulation time: 0 hr 15 min 38 sec) 
Heartbeat CPU 0 instructions: 29000003 cycles: 11666374 heartbeat IPC: 2.15807 cumulative IPC: 2.48578 (Simulation time: 0 hr 16 min 13 sec) 
Heartbeat CPU 0 instructions: 30000000 cycles: 12005299 heartbeat IPC: 2.9505 cumulative IPC: 2.4989 (Simulation time: 0 hr 16 min 48 sec) 
Heartbeat CPU 0 instructions: 31000003 cycles: 12368620 heartbeat IPC: 2.7524 cumulative IPC: 2.50634 (Simulation time: 0 hr 17 min 24 sec) 
Heartbeat CPU 0 instructions: 32000000 cycles: 12783703 heartbeat IPC: 2.40915 cumulative IPC: 2.50319 (Simulation time: 0 hr 18 min 0 sec) 
Heartbeat CPU 0 instructions: 33000001 cycles: 13193254 heartbeat IPC: 2.4417 cumulative IPC: 2.50128 (Simulation time: 0 hr 18 min 38 sec) 
Heartbeat CPU 0 instructions: 34000000 cycles: 13667473 heartbeat IPC: 2.10873 cumulative IPC: 2.48766 (Simulation time: 0 hr 19 min 12 sec) 
Heartbeat CPU 0 instructions: 35000000 cycles: 14006438 heartbeat IPC: 2.95016 cumulative IPC: 2.49885 (Simulation time: 0 hr 19 min 45 sec) 
Heartbeat CPU 0 instructions: 36000000 cycles: 14364745 heartbeat IPC: 2.7909 cumulative IPC: 2.50614 (Simulation time: 0 hr 20 min 18 sec) 
Heartbeat CPU 0 instructions: 37000001 cycles: 14780737 heartbeat IPC: 2.40389 cumulative IPC: 2.50326 (Simulation time: 0 hr 20 min 58 sec) 
Heartbeat CPU 0 instructions: 38000000 cycles: 15190358 heartbeat IPC: 2.44128 cumulative IPC: 2.50159 (Simulation time: 0 hr 21 min 33 sec) 
Heartbeat CPU 0 instructions: 39000002 cycles: 15665403 heartbeat IPC: 2.10507 cumulative IPC: 2.48956 (Simulation time: 0 hr 22 min 7 sec) 
Heartbeat CPU 0 instructions: 40000000 cycles: 16004381 heartbeat IPC: 2.95004 cumulative IPC: 2.49932 (Simulation time: 0 hr 22 min 38 sec) 
Heartbeat CPU 0 instructions: 41000003 cycles: 16361704 heartbeat IPC: 2.7986 cumulative IPC: 2.50585 (Simulation time: 0 hr 23 min 12 sec) 
Heartbeat CPU 0 instructions: 42000000 cycles: 16777834 heartbeat IPC: 2.40309 cumulative IPC: 2.5033 (Simulation time: 0 hr 23 min 48 sec) 
Heartbeat CPU 0 instructions: 43000001 cycles: 17189257 heartbeat IPC: 2.43059 cumulative IPC: 2.50156 (Simulation time: 0 hr 24 min 24 sec) 
Heartbeat CPU 0 instructions: 44000000 cycles: 17659922 heartbeat IPC: 2.12465 cumulative IPC: 2.49152 (Simulation time: 0 hr 24 min 57 sec) 
Heartbeat CPU 0 instructions: 45000001 cycles: 17998914 heartbeat IPC: 2.94993 cumulative IPC: 2.50015 (Simulation time: 0 hr 25 min 30 sec) 
Heartbeat CPU 0 instructions: 46000001 cycles: 18359252 heartbeat IPC: 2.77517 cumulative IPC: 2.50555 (Simulation time: 0 hr 26 min 5 sec) 
Heartbeat CPU 0 instructions: 47000003 cycles: 18773851 heartbeat IPC: 2.41197 cumulative IPC: 2.50348 (Simulation time: 0 hr 26 min 40 sec) 
Heartbeat CPU 0 instructions: 48000000 cycles: 19189695 heartbeat IPC: 2.40474 cumulative IPC: 2.50134 (Simulation time: 0 hr 27 min 14 sec) 
Heartbeat CPU 0 instructions: 49000001 cycles: 19647756 heartbeat IPC: 2.18312 cumulative IPC: 2.49392 (Simulation time: 0 hr 27 min 46 sec) 
Heartbeat CPU 0 instructions: 50000003 cycles: 19986711 heartbeat IPC: 2.95025 cumulative IPC: 2.50166 (Simulation time: 0 hr 28 min 18 sec) 

Warmup complete CPU 0 instructions: 50000003 cycles: 19986711 (Simulation time: 0 hr 28 min 18 sec) 

Heartbeat CPU 0 instructions: 51000003 cycles: 21098590 heartbeat IPC: 0.899378 cumulative IPC: 0.899378 (Simulation time: 0 hr 28 min 56 sec) 
Heartbeat CPU 0 instructions: 52000000 cycles: 22708012 heartbeat IPC: 0.621339 cumulative IPC: 0.734941 (Simulation time: 0 hr 29 min 39 sec) 
Heartbeat CPU 0 instructions: 53000000 cycles: 24486201 heartbeat IPC: 0.56237 cumulative IPC: 0.666742 (Simulation time: 0 hr 30 min 22 sec) 
Heartbeat CPU 0 instructions: 54000003 cycles: 25763640 heartbeat IPC: 0.782819 cumulative IPC: 0.692409 (Simulation time: 0 hr 31 min 0 sec) 
Heartbeat CPU 0 instructions: 55000003 cycles: 26686580 heartbeat IPC: 1.08349 cumulative IPC: 0.746283 (Simulation time: 0 hr 31 min 38 sec) 
Heartbeat CPU 0 instructions: 56000000 cycles: 27578848 heartbeat IPC: 1.12074 cumulative IPC: 0.790291 (Simulation time: 0 hr 32 min 14 sec) 
Heartbeat CPU 0 instructions: 57000002 cycles: 28757190 heartbeat IPC: 0.848652 cumulative IPC: 0.798132 (Simulation time: 0 hr 32 min 55 sec) 
Heartbeat CPU 0 instructions: 58000001 cycles: 29794971 heartbeat IPC: 0.963593 cumulative IPC: 0.815639 (Simulation time: 0 hr 33 min 30 sec) 
Heartbeat CPU 0 instructions: 59000003 cycles: 30689466 heartbeat IPC: 1.11795 cumulative IPC: 0.840905 (Simulation time: 0 hr 34 min 7 sec) 
Heartbeat CPU 0 instructions: 60000000 cycles: 31602477 heartbeat IPC: 1.09527 cumulative IPC: 0.860899 (Simulation time: 0 hr 34 min 47 sec) 
Heartbeat CPU 0 instructions: 61000001 cycles: 32777406 heartbeat IPC: 0.851116 cumulative IPC: 0.86 (Simulation time: 0 hr 35 min 24 sec) 
Heartbeat CPU 0 instructions: 62000001 cycles: 33659149 heartbeat IPC: 1.13412 cumulative IPC: 0.877678 (Simulation time: 0 hr 36 min 2 sec) 
Heartbeat CPU 0 instructions: 63000003 cycles: 34554317 heartbeat IPC: 1.11711 cumulative IPC: 0.892391 (Simulation time: 0 hr 36 min 40 sec) 
Heartbeat CPU 0 instructions: 64000000 cycles: 35803566 heartbeat IPC: 0.800479 cumulative IPC: 0.885132 (Simulation time: 0 hr 37 min 21 sec) 
Heartbeat CPU 0 instructions: 65000003 cycles: 36705872 heartbeat IPC: 1.10827 cumulative IPC: 0.897174 (Simulation time: 0 hr 37 min 59 sec) 
Heartbeat CPU 0 instructions: 66000000 cycles: 37553133 heartbeat IPC: 1.18027 cumulative IPC: 0.910828 (Simulation time: 0 hr 38 min 39 sec) 
Heartbeat CPU 0 instructions: 67000000 cycles: 38790116 heartbeat IPC: 0.808419 cumulative IPC: 0.904091 (Simulation time: 0 hr 39 min 22 sec) 
Heartbeat CPU 0 instructions: 68000000 cycles: 40506528 heartbeat IPC: 0.582611 cumulative IPC: 0.877201 (Simulation time: 0 hr 40 min 2 sec) 
Heartbeat CPU 0 instructions: 69000003 cycles: 41369217 heartbeat IPC: 1.15917 cumulative IPC: 0.888577 (Simulation time: 0 hr 40 min 39 sec) 
Heartbeat CPU 0 instructions: 70000000 cycles: 42157762 heartbeat IPC: 1.26815 cumulative IPC: 0.902077 (Simulation time: 0 hr 41 min 15 sec) 
Heartbeat CPU 0 instructions: 71000000 cycles: 43293857 heartbeat IPC: 0.880208 cumulative IPC: 0.901011 (Simulation time: 0 hr 41 min 53 sec) 
Heartbeat CPU 0 instructions: 72000000 cycles: 44801366 heartbeat IPC: 0.663346 cumulative IPC: 0.886573 (Simulation time: 0 hr 42 min 30 sec) 
Heartbeat CPU 0 instructions: 73000000 cycles: 45645189 heartbeat IPC: 1.18508 cumulative IPC: 0.89639 (Simulation time: 0 hr 43 min 6 sec) 
Heartbeat CPU 0 instructions: 74000000 cycles: 46435822 heartbeat IPC: 1.26481 cumulative IPC: 0.907403 (Simulation time: 0 hr 43 min 43 sec) 
Heartbeat CPU 0 instructions: 75000000 cycles: 47634087 heartbeat IPC: 0.83454 cumulative IPC: 0.904245 (Simulation time: 0 hr 44 min 20 sec) 
Heartbeat CPU 0 instructions: 76000000 cycles: 48958260 heartbeat IPC: 0.755188 cumulative IPC: 0.897432 (Simulation time: 0 hr 44 min 58 sec) 
Heartbeat CPU 0 instructions: 77000003 cycles: 49815748 heartbeat IPC: 1.1662 cumulative IPC: 0.905158 (Simulation time: 0 hr 45 min 34 sec) 
Heartbeat CPU 0 instructions: 78000000 cycles: 50601684 heartbeat IPC: 1.27236 cumulative IPC: 0.914585 (Simulation time: 0 hr 46 min 8 sec) 
Heartbeat CPU 0 instructions: 79000001 cycles: 51968406 heartbeat IPC: 0.731678 cumulative IPC: 0.906769 (Simulation time: 0 hr 46 min 48 sec) 
Heartbeat CPU 0 instructions: 80000000 cycles: 53162857 heartbeat IPC: 0.837204 cumulative IPC: 0.904264 (Simulation time: 0 hr 47 min 23 sec) 
Heartbeat CPU 0 instructions: 81000000 cycles: 53991383 heartbeat IPC: 1.20696 cumulative IPC: 0.911639 (Simulation time: 0 hr 47 min 59 sec) 
Heartbeat CPU 0 instructions: 82000000 cycles: 54773025 heartbeat IPC: 1.27936 cumulative IPC: 0.919902 (Simulation time: 0 hr 48 min 33 sec) 
Heartbeat CPU 0 instructions: 83000000 cycles: 56247517 heartbeat IPC: 0.6782 cumulative IPC: 0.910073 (Simulation time: 0 hr 49 min 11 sec) 
Heartbeat CPU 0 instructions: 84000000 cycles: 57171341 heartbeat IPC: 1.08246 cumulative IPC: 0.914356 (Simulation time: 0 hr 49 min 48 sec) 
Heartbeat CPU 0 instructions: 85000001 cycles: 57953734 heartbeat IPC: 1.27813 cumulative IPC: 0.921853 (Simulation time: 0 hr 50 min 23 sec) 
Heartbeat CPU 0 instructions: 86000001 cycles: 58961785 heartbeat IPC: 0.992013 cumulative IPC: 0.923667 (Simulation time: 0 hr 50 min 58 sec) 
Heartbeat CPU 0 instructions: 87000000 cycles: 60181882 heartbeat IPC: 0.819606 cumulative IPC: 0.920509 (Simulation time: 0 hr 51 min 36 sec) 
Heartbeat CPU 0 instructions: 88000000 cycles: 61000020 heartbeat IPC: 1.22229 cumulative IPC: 0.926528 (Simulation time: 0 hr 52 min 11 sec) 
Heartbeat CPU 0 instructions: 89000001 cycles: 61762106 heartbeat IPC: 1.31219 cumulative IPC: 0.933564 (Simulation time: 0 hr 52 min 46 sec) 
Heartbeat CPU 0 instructions: 90000000 cycles: 63090492 heartbeat IPC: 0.752792 cumulative IPC: 0.927993 (Simulation time: 0 hr 53 min 23 sec) 
Heartbeat CPU 0 instructions: 91000003 cycles: 64341226 heartbeat IPC: 0.799533 cumulative IPC: 0.92437 (Simulation time: 0 hr 54 min 1 sec) 
Heartbeat CPU 0 instructions: 92000000 cycles: 65308051 heartbeat IPC: 1.03431 cumulative IPC: 0.926716 (Simulation time: 0 hr 54 min 35 sec) 
Heartbeat CPU 0 instructions: 93000000 cycles: 66095380 heartbeat IPC: 1.27012 cumulative IPC: 0.932579 (Simulation time: 0 hr 55 min 9 sec) 
Heartbeat CPU 0 instructions: 94000002 cycles: 66874258 heartbeat IPC: 1.2839 cumulative IPC: 0.938415 (Simulation time: 0 hr 55 min 46 sec) 
Heartbeat CPU 0 instructions: 95000001 cycles: 68323780 heartbeat IPC: 0.689882 cumulative IPC: 0.930963 (Simulation time: 0 hr 56 min 25 sec) 
Heartbeat CPU 0 instructions: 96000000 cycles: 69158348 heartbeat IPC: 1.19822 cumulative IPC: 0.935499 (Simulation time: 0 hr 57 min 0 sec) 
Heartbeat CPU 0 instructions: 97000002 cycles: 69924478 heartbeat IPC: 1.30526 cumulative IPC: 0.941171 (Simulation time: 0 hr 57 min 34 sec) 
Heartbeat CPU 0 instructions: 98000003 cycles: 71119068 heartbeat IPC: 0.837108 cumulative IPC: 0.93874 (Simulation time: 0 hr 58 min 11 sec) 
Heartbeat CPU 0 instructions: 99000000 cycles: 72215653 heartbeat IPC: 0.911919 cumulative IPC: 0.938177 (Simulation time: 0 hr 58 min 46 sec) 
Heartbeat CPU 0 instructions: 100000000 cycles: 72994693 heartbeat IPC: 1.28363 cumulative IPC: 0.943254 (Simulation time: 0 hr 59 min 20 sec) 
Heartbeat CPU 0 instructions: 101000002 cycles: 73761800 heartbeat IPC: 1.3036 cumulative IPC: 0.948394 (Simulation time: 0 hr 59 min 55 sec) 
Heartbeat CPU 0 instructions: 102000003 cycles: 75315403 heartbeat IPC: 0.643666 cumulative IPC: 0.939838 (Simulation time: 1 hr 0 min 33 sec) 
Heartbeat CPU 0 instructions: 103000001 cycles: 76273866 heartbeat IPC: 1.04333 cumulative IPC: 0.9416 (Simulation time: 1 hr 1 min 7 sec) 
Heartbeat CPU 0 instructions: 104000000 cycles: 77050287 heartbeat IPC: 1.28796 cumulative IPC: 0.946313 (Simulation time: 1 hr 1 min 42 sec) 
Heartbeat CPU 0 instructions: 105000002 cycles: 78125730 heartbeat IPC: 0.929851 cumulative IPC: 0.946008 (Simulation time: 1 hr 2 min 18 sec) 
Heartbeat CPU 0 instructions: 106000003 cycles: 79698879 heartbeat IPC: 0.635668 cumulative IPC: 0.937832 (Simulation time: 1 hr 2 min 57 sec) 
Heartbeat CPU 0 instructions: 107000001 cycles: 80572488 heartbeat IPC: 1.14467 cumulative IPC: 0.940815 (Simulation time: 1 hr 3 min 30 sec) 
Heartbeat CPU 0 instructions: 108000000 cycles: 81358412 heartbeat IPC: 1.27239 cumulative IPC: 0.945061 (Simulation time: 1 hr 4 min 5 sec) 
Heartbeat CPU 0 instructions: 109000001 cycles: 82528434 heartbeat IPC: 0.854686 cumulative IPC: 0.94337 (Simulation time: 1 hr 4 min 44 sec) 
Heartbeat CPU 0 instructions: 110000000 cycles: 83986983 heartbeat IPC: 0.685612 cumulative IPC: 0.937496 (Simulation time: 1 hr 5 min 23 sec) 
Heartbeat CPU 0 instructions: 111000003 cycles: 84837033 heartbeat IPC: 1.1764 cumulative IPC: 0.940628 (Simulation time: 1 hr 5 min 59 sec) 
Heartbeat CPU 0 instructions: 112000000 cycles: 85621509 heartbeat IPC: 1.27473 cumulative IPC: 0.944621 (Simulation time: 1 hr 6 min 33 sec) 
Heartbeat CPU 0 instructions: 113000002 cycles: 86880364 heartbeat IPC: 0.794374 cumulative IPC: 0.941793 (Simulation time: 1 hr 7 min 11 sec) 
Heartbeat CPU 0 instructions: 114000001 cycles: 88161878 heartbeat IPC: 0.780326 cumulative IPC: 0.938758 (Simulation time: 1 hr 7 min 49 sec) 
Heartbeat CPU 0 instructions: 115000002 cycles: 88985490 heartbeat IPC: 1.21417 cumulative IPC: 0.942046 (Simulation time: 1 hr 8 min 25 sec) 
Heartbeat CPU 0 instructions: 116000000 cycles: 89753108 heartbeat IPC: 1.30273 cumulative IPC: 0.946014 (Simulation time: 1 hr 8 min 58 sec) 
Heartbeat CPU 0 instructions: 117000002 cycles: 91233356 heartbeat IPC: 0.675564 cumulative IPC: 0.940395 (Simulation time: 1 hr 9 min 36 sec) 
Heartbeat CPU 0 instructions: 118000000 cycles: 92250060 heartbeat IPC: 0.983568 cumulative IPC: 0.941003 (Simulation time: 1 hr 10 min 11 sec) 
Heartbeat CPU 0 instructions: 119000001 cycles: 93012141 heartbeat IPC: 1.3122 cumulative IPC: 0.944876 (Simulation time: 1 hr 10 min 47 sec) 
Heartbeat CPU 0 instructions: 120000000 cycles: 93934123 heartbeat IPC: 1.08462 cumulative IPC: 0.946619 (Simulation time: 1 hr 11 min 23 sec) 
Heartbeat CPU 0 instructions: 121000000 cycles: 95496448 heartbeat IPC: 0.640072 cumulative IPC: 0.940276 (Simulation time: 1 hr 12 min 3 sec) 
Heartbeat CPU 0 instructions: 122000002 cycles: 96364939 heartbeat IPC: 1.15142 cumulative IPC: 0.942677 (Simulation time: 1 hr 12 min 38 sec) 
Heartbeat CPU 0 instructions: 123000001 cycles: 97142134 heartbeat IPC: 1.28668 cumulative IPC: 0.946142 (Simulation time: 1 hr 13 min 13 sec) 
Heartbeat CPU 0 instructions: 124000000 cycles: 98283686 heartbeat IPC: 0.876 cumulative IPC: 0.94512 (Simulation time: 1 hr 13 min 51 sec) 
Heartbeat CPU 0 instructions: 125000003 cycles: 99709770 heartbeat IPC: 0.701223 cumulative IPC: 0.940757 (Simulation time: 1 hr 14 min 30 sec) 
Heartbeat CPU 0 instructions: 126000001 cycles: 100558380 heartbeat IPC: 1.1784 cumulative IPC: 0.94326 (Simulation time: 1 hr 15 min 4 sec) 
Heartbeat CPU 0 instructions: 127000000 cycles: 101341784 heartbeat IPC: 1.27648 cumulative IPC: 0.946468 (Simulation time: 1 hr 15 min 39 sec) 
Heartbeat CPU 0 instructions: 128000000 cycles: 102694052 heartbeat IPC: 0.739498 cumulative IPC: 0.943084 (Simulation time: 1 hr 16 min 18 sec) 
Heartbeat CPU 0 instructions: 129000002 cycles: 104116547 heartbeat IPC: 0.702992 cumulative IPC: 0.939025 (Simulation time: 1 hr 16 min 54 sec) 
Heartbeat CPU 0 instructions: 130000002 cycles: 104971867 heartbeat IPC: 1.16915 cumulative IPC: 0.941341 (Simulation time: 1 hr 17 min 30 sec) 
Heartbeat CPU 0 instructions: 131000001 cycles: 105726759 heartbeat IPC: 1.32469 cumulative IPC: 0.944716 (Simulation time: 1 hr 18 min 3 sec) 
Heartbeat CPU 0 instructions: 132000000 cycles: 107031533 heartbeat IPC: 0.766415 cumulative IPC: 0.942043 (Simulation time: 1 hr 18 min 38 sec) 
Heartbeat CPU 0 instructions: 133000001 cycles: 108469298 heartbeat IPC: 0.695525 cumulative IPC: 0.938038 (Simulation time: 1 hr 19 min 14 sec) 
Heartbeat CPU 0 instructions: 134000002 cycles: 109323059 heartbeat IPC: 1.17129 cumulative IPC: 0.940267 (Simulation time: 1 hr 19 min 49 sec) 
Heartbeat CPU 0 instructions: 135000001 cycles: 110131472 heartbeat IPC: 1.23699 cumulative IPC: 0.942928 (Simulation time: 1 hr 20 min 22 sec) 
Heartbeat CPU 0 instructions: 136000000 cycles: 111379785 heartbeat IPC: 0.80108 cumulative IPC: 0.94099 (Simulation time: 1 hr 20 min 56 sec) 
Heartbeat CPU 0 instructions: 137000001 cycles: 112740642 heartbeat IPC: 0.734832 cumulative IPC: 0.937966 (Simulation time: 1 hr 21 min 30 sec) 
Heartbeat CPU 0 instructions: 138000002 cycles: 113609293 heartbeat IPC: 1.15121 cumulative IPC: 0.939944 (Simulation time: 1 hr 22 min 1 sec) 
Heartbeat CPU 0 instructions: 139000001 cycles: 114431084 heartbeat IPC: 1.21685 cumulative IPC: 0.942354 (Simulation time: 1 hr 22 min 31 sec) 
Heartbeat CPU 0 instructions: 140000000 cycles: 115784734 heartbeat IPC: 0.738743 cumulative IPC: 0.939477 (Simulation time: 1 hr 23 min 4 sec) 
Heartbeat CPU 0 instructions: 141000000 cycles: 117361488 heartbeat IPC: 0.634214 cumulative IPC: 0.934534 (Simulation time: 1 hr 23 min 39 sec) 
Heartbeat CPU 0 instructions: 142000002 cycles: 118495777 heartbeat IPC: 0.881611 cumulative IPC: 0.933924 (Simulation time: 1 hr 24 min 11 sec) 
Heartbeat CPU 0 instructions: 143000003 cycles: 119366605 heartbeat IPC: 1.14833 cumulative IPC: 0.935803 (Simulation time: 1 hr 24 min 41 sec) 
Heartbeat CPU 0 instructions: 144000000 cycles: 120152312 heartbeat IPC: 1.27274 cumulative IPC: 0.938446 (Simulation time: 1 hr 25 min 8 sec) 
Heartbeat CPU 0 instructions: 145000000 cycles: 121283536 heartbeat IPC: 0.883998 cumulative IPC: 0.937838 (Simulation time: 1 hr 25 min 36 sec) 
Heartbeat CPU 0 instructions: 146000001 cycles: 122756782 heartbeat IPC: 0.678774 cumulative IPC: 0.934124 (Simulation time: 1 hr 26 min 10 sec) 
Heartbeat CPU 0 instructions: 147000002 cycles: 123617514 heartbeat IPC: 1.1618 cumulative IPC: 0.936015 (Simulation time: 1 hr 26 min 38 sec) 
Heartbeat CPU 0 instructions: 148000000 cycles: 124421347 heartbeat IPC: 1.24404 cumulative IPC: 0.938386 (Simulation time: 1 hr 27 min 3 sec) 
Heartbeat CPU 0 instructions: 149000001 cycles: 125631882 heartbeat IPC: 0.826082 cumulative IPC: 0.937099 (Simulation time: 1 hr 27 min 33 sec) 
Heartbeat CPU 0 instructions: 150000000 cycles: 127045672 heartbeat IPC: 0.707318 cumulative IPC: 0.934065 (Simulation time: 1 hr 28 min 1 sec) 
Finished CPU 0 instructions: 100000001 cycles: 107058962 cummulative IPC: 0.934065 (Simulation time: 1 hr 28 min 1 sec) 

ChampSim completed all CPUs

Region of Interest Statistics

CPU 0 cummulative IPC: 0.934065 instructions: 100000001 cycles: 107058962
LLC TOTAL     ACCESS:    1706192  HIT:     745549  MISS:     960643
LLC LOAD      ACCESS:     272375  HIT:     193408  MISS:      78967
LLC RFO       ACCESS:     107813  HIT:      89164  MISS:      18649
LLC PREFETCH  ACCESS:    1186421  HIT:     323872  MISS:     862549
LLC WRITEBACK ACCESS:     139583  HIT:     139105  MISS:        478
OPTgen accesses: 2815
OPTgen hits: 2368
OPTgen hit rate: 84.1208


