
*** ChampSim Multicore Out-of-Order Simulator ***

Warmup Instructions: 50000000
Simulation Instructions: 100000000
Configuration: 2
Number of CPUs: 1
LLC sets: 2048
LLC ways: 16
Off-chip DRAM Channels: 1 Width: 64-bit Data Rate: 1600 MT/s

CPU 0 runs /datasets/cs240c-wi22-a00-public/data/Assignment2-gz/gcc_56B.trace.gz
CPU 0 L1D next line prefetcher
CPU 0 L2C IP-based stride prefetcher
Initialize Hawkeye state
Heartbeat CPU 0 instructions: 1000003 cycles: 954151 heartbeat IPC: 1.04806 cumulative IPC: 1.04806 (Simulation time: 0 hr 0 min 39 sec) 
Heartbeat CPU 0 instructions: 2000001 cycles: 1898349 heartbeat IPC: 1.0591 cumulative IPC: 1.05355 (Simulation time: 0 hr 1 min 22 sec) 
Heartbeat CPU 0 instructions: 3000001 cycles: 2885593 heartbeat IPC: 1.01292 cumulative IPC: 1.03965 (Simulation time: 0 hr 2 min 1 sec) 
Heartbeat CPU 0 instructions: 4000000 cycles: 3848221 heartbeat IPC: 1.03882 cumulative IPC: 1.03944 (Simulation time: 0 hr 2 min 47 sec) 
Heartbeat CPU 0 instructions: 5000002 cycles: 4737701 heartbeat IPC: 1.12425 cumulative IPC: 1.05536 (Simulation time: 0 hr 3 min 28 sec) 
Heartbeat CPU 0 instructions: 6000000 cycles: 5685656 heartbeat IPC: 1.0549 cumulative IPC: 1.05529 (Simulation time: 0 hr 4 min 10 sec) 
Heartbeat CPU 0 instructions: 7000000 cycles: 6649891 heartbeat IPC: 1.03709 cumulative IPC: 1.05265 (Simulation time: 0 hr 4 min 51 sec) 
Heartbeat CPU 0 instructions: 8000000 cycles: 7611114 heartbeat IPC: 1.04034 cumulative IPC: 1.05109 (Simulation time: 0 hr 5 min 35 sec) 
Heartbeat CPU 0 instructions: 9000000 cycles: 8622586 heartbeat IPC: 0.988658 cumulative IPC: 1.04377 (Simulation time: 0 hr 6 min 14 sec) 
Heartbeat CPU 0 instructions: 10000002 cycles: 9583097 heartbeat IPC: 1.04111 cumulative IPC: 1.0435 (Simulation time: 0 hr 6 min 57 sec) 
Heartbeat CPU 0 instructions: 11000002 cycles: 10472393 heartbeat IPC: 1.12449 cumulative IPC: 1.05038 (Simulation time: 0 hr 7 min 40 sec) 
Heartbeat CPU 0 instructions: 12000000 cycles: 11357924 heartbeat IPC: 1.12926 cumulative IPC: 1.05653 (Simulation time: 0 hr 8 min 18 sec) 
Heartbeat CPU 0 instructions: 13000001 cycles: 12297171 heartbeat IPC: 1.06468 cumulative IPC: 1.05715 (Simulation time: 0 hr 8 min 58 sec) 
Heartbeat CPU 0 instructions: 14000000 cycles: 13290642 heartbeat IPC: 1.00657 cumulative IPC: 1.05337 (Simulation time: 0 hr 9 min 38 sec) 
Heartbeat CPU 0 instructions: 15000003 cycles: 14246130 heartbeat IPC: 1.04659 cumulative IPC: 1.05292 (Simulation time: 0 hr 10 min 22 sec) 
Heartbeat CPU 0 instructions: 16000000 cycles: 15246175 heartbeat IPC: 0.999952 cumulative IPC: 1.04944 (Simulation time: 0 hr 11 min 4 sec) 
Heartbeat CPU 0 instructions: 17000001 cycles: 16221160 heartbeat IPC: 1.02566 cumulative IPC: 1.04801 (Simulation time: 0 hr 11 min 44 sec) 
Heartbeat CPU 0 instructions: 18000000 cycles: 17121989 heartbeat IPC: 1.11009 cumulative IPC: 1.05128 (Simulation time: 0 hr 12 min 27 sec) 
Heartbeat CPU 0 instructions: 19000000 cycles: 18045883 heartbeat IPC: 1.08238 cumulative IPC: 1.05287 (Simulation time: 0 hr 13 min 9 sec) 
Heartbeat CPU 0 instructions: 20000000 cycles: 18990391 heartbeat IPC: 1.05875 cumulative IPC: 1.05316 (Simulation time: 0 hr 13 min 57 sec) 
Heartbeat CPU 0 instructions: 21000000 cycles: 19947022 heartbeat IPC: 1.04534 cumulative IPC: 1.05279 (Simulation time: 0 hr 14 min 42 sec) 
Heartbeat CPU 0 instructions: 22000000 cycles: 20939406 heartbeat IPC: 1.00767 cumulative IPC: 1.05065 (Simulation time: 0 hr 15 min 29 sec) 
Heartbeat CPU 0 instructions: 23000000 cycles: 21860056 heartbeat IPC: 1.08619 cumulative IPC: 1.05215 (Simulation time: 0 hr 16 min 12 sec) 
Heartbeat CPU 0 instructions: 24000000 cycles: 22777467 heartbeat IPC: 1.09002 cumulative IPC: 1.05367 (Simulation time: 0 hr 16 min 55 sec) 
Heartbeat CPU 0 instructions: 25000000 cycles: 23713199 heartbeat IPC: 1.06868 cumulative IPC: 1.05427 (Simulation time: 0 hr 17 min 36 sec) 
Heartbeat CPU 0 instructions: 26000002 cycles: 24633685 heartbeat IPC: 1.08638 cumulative IPC: 1.05547 (Simulation time: 0 hr 18 min 20 sec) 
Heartbeat CPU 0 instructions: 27000000 cycles: 25585997 heartbeat IPC: 1.05007 cumulative IPC: 1.05526 (Simulation time: 0 hr 19 min 7 sec) 
Heartbeat CPU 0 instructions: 28000000 cycles: 26583769 heartbeat IPC: 1.00223 cumulative IPC: 1.05327 (Simulation time: 0 hr 19 min 53 sec) 
Heartbeat CPU 0 instructions: 29000000 cycles: 27583174 heartbeat IPC: 1.0006 cumulative IPC: 1.05137 (Simulation time: 0 hr 20 min 39 sec) 
Heartbeat CPU 0 instructions: 30000000 cycles: 28562058 heartbeat IPC: 1.02157 cumulative IPC: 1.05034 (Simulation time: 0 hr 21 min 19 sec) 
Heartbeat CPU 0 instructions: 31000000 cycles: 29476452 heartbeat IPC: 1.09362 cumulative IPC: 1.05169 (Simulation time: 0 hr 21 min 59 sec) 
Heartbeat CPU 0 instructions: 32000000 cycles: 30387154 heartbeat IPC: 1.09805 cumulative IPC: 1.05308 (Simulation time: 0 hr 22 min 40 sec) 
Heartbeat CPU 0 instructions: 33000002 cycles: 31312871 heartbeat IPC: 1.08025 cumulative IPC: 1.05388 (Simulation time: 0 hr 23 min 23 sec) 
Heartbeat CPU 0 instructions: 34000002 cycles: 32279383 heartbeat IPC: 1.03465 cumulative IPC: 1.0533 (Simulation time: 0 hr 24 min 7 sec) 
Heartbeat CPU 0 instructions: 35000002 cycles: 33244048 heartbeat IPC: 1.03663 cumulative IPC: 1.05282 (Simulation time: 0 hr 24 min 48 sec) 
Heartbeat CPU 0 instructions: 36000000 cycles: 34239321 heartbeat IPC: 1.00475 cumulative IPC: 1.05142 (Simulation time: 0 hr 25 min 31 sec) 
Heartbeat CPU 0 instructions: 37000000 cycles: 35205865 heartbeat IPC: 1.03461 cumulative IPC: 1.05096 (Simulation time: 0 hr 26 min 13 sec) 
Heartbeat CPU 0 instructions: 38000002 cycles: 36155157 heartbeat IPC: 1.05342 cumulative IPC: 1.05103 (Simulation time: 0 hr 26 min 56 sec) 
Heartbeat CPU 0 instructions: 39000000 cycles: 37066136 heartbeat IPC: 1.09772 cumulative IPC: 1.05217 (Simulation time: 0 hr 27 min 37 sec) 
Heartbeat CPU 0 instructions: 40000000 cycles: 38010458 heartbeat IPC: 1.05896 cumulative IPC: 1.05234 (Simulation time: 0 hr 28 min 22 sec) 
Heartbeat CPU 0 instructions: 41000001 cycles: 38985292 heartbeat IPC: 1.02582 cumulative IPC: 1.05168 (Simulation time: 0 hr 29 min 6 sec) 
Heartbeat CPU 0 instructions: 42000003 cycles: 39974546 heartbeat IPC: 1.01086 cumulative IPC: 1.05067 (Simulation time: 0 hr 29 min 53 sec) 
Heartbeat CPU 0 instructions: 43000001 cycles: 40938707 heartbeat IPC: 1.03717 cumulative IPC: 1.05035 (Simulation time: 0 hr 30 min 36 sec) 
Heartbeat CPU 0 instructions: 44000000 cycles: 41869472 heartbeat IPC: 1.07438 cumulative IPC: 1.05088 (Simulation time: 0 hr 31 min 17 sec) 
Heartbeat CPU 0 instructions: 45000000 cycles: 42778773 heartbeat IPC: 1.09975 cumulative IPC: 1.05192 (Simulation time: 0 hr 31 min 59 sec) 
Heartbeat CPU 0 instructions: 46000001 cycles: 43731193 heartbeat IPC: 1.04996 cumulative IPC: 1.05188 (Simulation time: 0 hr 32 min 41 sec) 
Heartbeat CPU 0 instructions: 47000001 cycles: 44686075 heartbeat IPC: 1.04725 cumulative IPC: 1.05178 (Simulation time: 0 hr 33 min 26 sec) 
Heartbeat CPU 0 instructions: 48000000 cycles: 45666156 heartbeat IPC: 1.02032 cumulative IPC: 1.05111 (Simulation time: 0 hr 34 min 9 sec) 
Heartbeat CPU 0 instructions: 49000002 cycles: 46667617 heartbeat IPC: 0.998543 cumulative IPC: 1.04998 (Simulation time: 0 hr 34 min 53 sec) 
Heartbeat CPU 0 instructions: 50000000 cycles: 47652582 heartbeat IPC: 1.01526 cumulative IPC: 1.04926 (Simulation time: 0 hr 35 min 36 sec) 

Warmup complete CPU 0 instructions: 50000001 cycles: 47652584 (Simulation time: 0 hr 35 min 36 sec) 

Heartbeat CPU 0 instructions: 51000000 cycles: 49006355 heartbeat IPC: 0.738676 cumulative IPC: 0.738677 (Simulation time: 0 hr 36 min 21 sec) 
Heartbeat CPU 0 instructions: 52000000 cycles: 50398401 heartbeat IPC: 0.718367 cumulative IPC: 0.72838 (Simulation time: 0 hr 37 min 4 sec) 
Heartbeat CPU 0 instructions: 53000001 cycles: 51734552 heartbeat IPC: 0.748419 cumulative IPC: 0.73494 (Simulation time: 0 hr 37 min 47 sec) 
Heartbeat CPU 0 instructions: 54000000 cycles: 53049869 heartbeat IPC: 0.760272 cumulative IPC: 0.741113 (Simulation time: 0 hr 38 min 31 sec) 
Heartbeat CPU 0 instructions: 55000001 cycles: 54355218 heartbeat IPC: 0.766079 cumulative IPC: 0.745975 (Simulation time: 0 hr 39 min 15 sec) 
Heartbeat CPU 0 instructions: 56000000 cycles: 55678665 heartbeat IPC: 0.755602 cumulative IPC: 0.747563 (Simulation time: 0 hr 39 min 57 sec) 
Heartbeat CPU 0 instructions: 57000001 cycles: 57013504 heartbeat IPC: 0.749155 cumulative IPC: 0.74779 (Simulation time: 0 hr 40 min 39 sec) 
Heartbeat CPU 0 instructions: 58000000 cycles: 58386860 heartbeat IPC: 0.728143 cumulative IPC: 0.745276 (Simulation time: 0 hr 41 min 22 sec) 
Heartbeat CPU 0 instructions: 59000000 cycles: 59780905 heartbeat IPC: 0.717337 cumulative IPC: 0.742065 (Simulation time: 0 hr 42 min 7 sec) 
Heartbeat CPU 0 instructions: 60000000 cycles: 61156710 heartbeat IPC: 0.726847 cumulative IPC: 0.740514 (Simulation time: 0 hr 42 min 52 sec) 
Heartbeat CPU 0 instructions: 61000000 cycles: 62486490 heartbeat IPC: 0.752004 cumulative IPC: 0.741544 (Simulation time: 0 hr 43 min 37 sec) 
Heartbeat CPU 0 instructions: 62000002 cycles: 63846870 heartbeat IPC: 0.73509 cumulative IPC: 0.741002 (Simulation time: 0 hr 44 min 21 sec) 
Heartbeat CPU 0 instructions: 63000003 cycles: 65162104 heartbeat IPC: 0.760322 cumulative IPC: 0.742453 (Simulation time: 0 hr 45 min 6 sec) 
Heartbeat CPU 0 instructions: 64000000 cycles: 66480529 heartbeat IPC: 0.758478 cumulative IPC: 0.743576 (Simulation time: 0 hr 45 min 49 sec) 
Heartbeat CPU 0 instructions: 65000000 cycles: 67821596 heartbeat IPC: 0.745675 cumulative IPC: 0.743715 (Simulation time: 0 hr 46 min 34 sec) 
Heartbeat CPU 0 instructions: 66000002 cycles: 69210780 heartbeat IPC: 0.719849 cumulative IPC: 0.742177 (Simulation time: 0 hr 47 min 19 sec) 
Heartbeat CPU 0 instructions: 67000002 cycles: 70596931 heartbeat IPC: 0.721422 cumulative IPC: 0.740923 (Simulation time: 0 hr 48 min 5 sec) 
Heartbeat CPU 0 instructions: 68000000 cycles: 71947501 heartbeat IPC: 0.740427 cumulative IPC: 0.740896 (Simulation time: 0 hr 48 min 49 sec) 
Heartbeat CPU 0 instructions: 69000000 cycles: 73274619 heartbeat IPC: 0.753513 cumulative IPC: 0.741549 (Simulation time: 0 hr 49 min 32 sec) 
Heartbeat CPU 0 instructions: 70000000 cycles: 74600035 heartbeat IPC: 0.75448 cumulative IPC: 0.742185 (Simulation time: 0 hr 50 min 18 sec) 
Heartbeat CPU 0 instructions: 71000003 cycles: 75942723 heartbeat IPC: 0.744777 cumulative IPC: 0.742308 (Simulation time: 0 hr 51 min 5 sec) 
Heartbeat CPU 0 instructions: 72000000 cycles: 77279870 heartbeat IPC: 0.747859 cumulative IPC: 0.742559 (Simulation time: 0 hr 51 min 49 sec) 
Heartbeat CPU 0 instructions: 73000003 cycles: 78645391 heartbeat IPC: 0.732323 cumulative IPC: 0.742108 (Simulation time: 0 hr 52 min 31 sec) 
Heartbeat CPU 0 instructions: 74000001 cycles: 80042545 heartbeat IPC: 0.715739 cumulative IPC: 0.74097 (Simulation time: 0 hr 53 min 14 sec) 
Heartbeat CPU 0 instructions: 75000003 cycles: 81414731 heartbeat IPC: 0.728766 cumulative IPC: 0.740474 (Simulation time: 0 hr 53 min 58 sec) 
Heartbeat CPU 0 instructions: 76000000 cycles: 82756663 heartbeat IPC: 0.745192 cumulative IPC: 0.740655 (Simulation time: 0 hr 54 min 43 sec) 
Heartbeat CPU 0 instructions: 77000003 cycles: 84089009 heartbeat IPC: 0.750558 cumulative IPC: 0.741017 (Simulation time: 0 hr 55 min 27 sec) 
Heartbeat CPU 0 instructions: 78000001 cycles: 85419464 heartbeat IPC: 0.751621 cumulative IPC: 0.74139 (Simulation time: 0 hr 56 min 12 sec) 
Heartbeat CPU 0 instructions: 79000000 cycles: 86775475 heartbeat IPC: 0.737456 cumulative IPC: 0.741254 (Simulation time: 0 hr 56 min 56 sec) 
Heartbeat CPU 0 instructions: 80000000 cycles: 88119935 heartbeat IPC: 0.743793 cumulative IPC: 0.741338 (Simulation time: 0 hr 57 min 41 sec) 
Heartbeat CPU 0 instructions: 81000002 cycles: 89496647 heartbeat IPC: 0.72637 cumulative IPC: 0.740846 (Simulation time: 0 hr 58 min 26 sec) 
Heartbeat CPU 0 instructions: 82000000 cycles: 90865624 heartbeat IPC: 0.730471 cumulative IPC: 0.740517 (Simulation time: 0 hr 59 min 9 sec) 
Heartbeat CPU 0 instructions: 83000003 cycles: 92196116 heartbeat IPC: 0.751604 cumulative IPC: 0.740848 (Simulation time: 0 hr 59 min 54 sec) 
Heartbeat CPU 0 instructions: 84000000 cycles: 93537307 heartbeat IPC: 0.745604 cumulative IPC: 0.740987 (Simulation time: 1 hr 0 min 38 sec) 
Heartbeat CPU 0 instructions: 85000002 cycles: 94851060 heartbeat IPC: 0.76118 cumulative IPC: 0.741549 (Simulation time: 1 hr 1 min 22 sec) 
Heartbeat CPU 0 instructions: 86000003 cycles: 96153030 heartbeat IPC: 0.768068 cumulative IPC: 0.742261 (Simulation time: 1 hr 2 min 7 sec) 
Heartbeat CPU 0 instructions: 87000000 cycles: 97534285 heartbeat IPC: 0.723977 cumulative IPC: 0.741755 (Simulation time: 1 hr 2 min 48 sec) 
Heartbeat CPU 0 instructions: 88000000 cycles: 98883596 heartbeat IPC: 0.741119 cumulative IPC: 0.741738 (Simulation time: 1 hr 3 min 32 sec) 
Heartbeat CPU 0 instructions: 89000000 cycles: 100242340 heartbeat IPC: 0.735974 cumulative IPC: 0.741589 (Simulation time: 1 hr 4 min 17 sec) 
Heartbeat CPU 0 instructions: 90000000 cycles: 101559509 heartbeat IPC: 0.759204 cumulative IPC: 0.74202 (Simulation time: 1 hr 5 min 2 sec) 
Heartbeat CPU 0 instructions: 91000001 cycles: 102866364 heartbeat IPC: 0.765197 cumulative IPC: 0.742568 (Simulation time: 1 hr 5 min 47 sec) 
Heartbeat CPU 0 instructions: 92000000 cycles: 104184223 heartbeat IPC: 0.758806 cumulative IPC: 0.742947 (Simulation time: 1 hr 6 min 31 sec) 
Heartbeat CPU 0 instructions: 93000003 cycles: 105568633 heartbeat IPC: 0.722332 cumulative IPC: 0.742454 (Simulation time: 1 hr 7 min 16 sec) 
Heartbeat CPU 0 instructions: 94000000 cycles: 106911211 heartbeat IPC: 0.744833 cumulative IPC: 0.742508 (Simulation time: 1 hr 7 min 59 sec) 
Heartbeat CPU 0 instructions: 95000000 cycles: 108262292 heartbeat IPC: 0.740148 cumulative IPC: 0.742455 (Simulation time: 1 hr 8 min 45 sec) 
Heartbeat CPU 0 instructions: 96000000 cycles: 109595105 heartbeat IPC: 0.750293 cumulative IPC: 0.742624 (Simulation time: 1 hr 9 min 29 sec) 
Heartbeat CPU 0 instructions: 97000000 cycles: 110906390 heartbeat IPC: 0.762611 cumulative IPC: 0.743038 (Simulation time: 1 hr 10 min 14 sec) 
Heartbeat CPU 0 instructions: 98000003 cycles: 112214500 heartbeat IPC: 0.764464 cumulative IPC: 0.743472 (Simulation time: 1 hr 10 min 58 sec) 
Heartbeat CPU 0 instructions: 99000000 cycles: 113602146 heartbeat IPC: 0.720643 cumulative IPC: 0.742992 (Simulation time: 1 hr 11 min 41 sec) 
Heartbeat CPU 0 instructions: 100000000 cycles: 114944316 heartbeat IPC: 0.745062 cumulative IPC: 0.743033 (Simulation time: 1 hr 12 min 25 sec) 
Heartbeat CPU 0 instructions: 101000000 cycles: 116291606 heartbeat IPC: 0.742231 cumulative IPC: 0.743018 (Simulation time: 1 hr 13 min 9 sec) 
Heartbeat CPU 0 instructions: 102000001 cycles: 117605369 heartbeat IPC: 0.761173 cumulative IPC: 0.743359 (Simulation time: 1 hr 13 min 52 sec) 
Heartbeat CPU 0 instructions: 103000001 cycles: 118907124 heartbeat IPC: 0.768194 cumulative IPC: 0.743812 (Simulation time: 1 hr 14 min 37 sec) 
Heartbeat CPU 0 instructions: 104000000 cycles: 120208212 heartbeat IPC: 0.768587 cumulative IPC: 0.744256 (Simulation time: 1 hr 15 min 20 sec) 
Heartbeat CPU 0 instructions: 105000002 cycles: 121586474 heartbeat IPC: 0.725553 cumulative IPC: 0.743908 (Simulation time: 1 hr 16 min 4 sec) 
Heartbeat CPU 0 instructions: 106000000 cycles: 122991186 heartbeat IPC: 0.711888 cumulative IPC: 0.743311 (Simulation time: 1 hr 16 min 48 sec) 
Heartbeat CPU 0 instructions: 107000002 cycles: 124379667 heartbeat IPC: 0.720213 cumulative IPC: 0.742893 (Simulation time: 1 hr 17 min 31 sec) 
Heartbeat CPU 0 instructions: 108000000 cycles: 125734977 heartbeat IPC: 0.737837 cumulative IPC: 0.742805 (Simulation time: 1 hr 18 min 10 sec) 
Heartbeat CPU 0 instructions: 109000000 cycles: 127070748 heartbeat IPC: 0.748631 cumulative IPC: 0.742903 (Simulation time: 1 hr 18 min 55 sec) 
Heartbeat CPU 0 instructions: 110000000 cycles: 128398899 heartbeat IPC: 0.752926 cumulative IPC: 0.743068 (Simulation time: 1 hr 19 min 38 sec) 
Heartbeat CPU 0 instructions: 111000000 cycles: 129733093 heartbeat IPC: 0.749516 cumulative IPC: 0.743173 (Simulation time: 1 hr 20 min 17 sec) 
Heartbeat CPU 0 instructions: 112000000 cycles: 131120952 heartbeat IPC: 0.720534 cumulative IPC: 0.742796 (Simulation time: 1 hr 20 min 56 sec) 
Heartbeat CPU 0 instructions: 113000000 cycles: 132493245 heartbeat IPC: 0.728707 cumulative IPC: 0.742568 (Simulation time: 1 hr 21 min 40 sec) 
Heartbeat CPU 0 instructions: 114000001 cycles: 133822570 heartbeat IPC: 0.752262 cumulative IPC: 0.742718 (Simulation time: 1 hr 22 min 20 sec) 
Heartbeat CPU 0 instructions: 115000000 cycles: 135179856 heartbeat IPC: 0.736764 cumulative IPC: 0.742626 (Simulation time: 1 hr 22 min 55 sec) 
Heartbeat CPU 0 instructions: 116000000 cycles: 136494776 heartbeat IPC: 0.760503 cumulative IPC: 0.74289 (Simulation time: 1 hr 23 min 33 sec) 
Heartbeat CPU 0 instructions: 117000000 cycles: 137800429 heartbeat IPC: 0.7659 cumulative IPC: 0.743224 (Simulation time: 1 hr 24 min 6 sec) 
Heartbeat CPU 0 instructions: 118000002 cycles: 139168232 heartbeat IPC: 0.731101 cumulative IPC: 0.743042 (Simulation time: 1 hr 24 min 41 sec) 
Heartbeat CPU 0 instructions: 119000000 cycles: 140571565 heartbeat IPC: 0.712588 cumulative IPC: 0.742582 (Simulation time: 1 hr 25 min 16 sec) 
Heartbeat CPU 0 instructions: 120000000 cycles: 141999073 heartbeat IPC: 0.700521 cumulative IPC: 0.741946 (Simulation time: 1 hr 25 min 51 sec) 
Heartbeat CPU 0 instructions: 121000000 cycles: 143352108 heartbeat IPC: 0.739079 cumulative IPC: 0.741905 (Simulation time: 1 hr 26 min 24 sec) 
Heartbeat CPU 0 instructions: 122000003 cycles: 144684628 heartbeat IPC: 0.75046 cumulative IPC: 0.742023 (Simulation time: 1 hr 26 min 54 sec) 
Heartbeat CPU 0 instructions: 123000003 cycles: 146010815 heartbeat IPC: 0.754041 cumulative IPC: 0.742185 (Simulation time: 1 hr 27 min 23 sec) 
Heartbeat CPU 0 instructions: 124000000 cycles: 147349715 heartbeat IPC: 0.74688 cumulative IPC: 0.742248 (Simulation time: 1 hr 27 min 55 sec) 
Heartbeat CPU 0 instructions: 125000001 cycles: 148736241 heartbeat IPC: 0.721228 cumulative IPC: 0.74196 (Simulation time: 1 hr 28 min 22 sec) 
Heartbeat CPU 0 instructions: 126000000 cycles: 150065296 heartbeat IPC: 0.752414 cumulative IPC: 0.742095 (Simulation time: 1 hr 28 min 47 sec) 
Heartbeat CPU 0 instructions: 127000003 cycles: 151404801 heartbeat IPC: 0.746547 cumulative IPC: 0.742153 (Simulation time: 1 hr 29 min 13 sec) 
Heartbeat CPU 0 instructions: 128000000 cycles: 152717471 heartbeat IPC: 0.761804 cumulative IPC: 0.742398 (Simulation time: 1 hr 29 min 38 sec) 
Heartbeat CPU 0 instructions: 129000003 cycles: 154019834 heartbeat IPC: 0.767837 cumulative IPC: 0.74271 (Simulation time: 1 hr 30 min 3 sec) 
Heartbeat CPU 0 instructions: 130000000 cycles: 155316411 heartbeat IPC: 0.771259 cumulative IPC: 0.743054 (Simulation time: 1 hr 30 min 28 sec) 
Heartbeat CPU 0 instructions: 131000000 cycles: 156690548 heartbeat IPC: 0.727729 cumulative IPC: 0.74286 (Simulation time: 1 hr 30 min 53 sec) 
Heartbeat CPU 0 instructions: 132000000 cycles: 158087737 heartbeat IPC: 0.715723 cumulative IPC: 0.742517 (Simulation time: 1 hr 31 min 18 sec) 
Heartbeat CPU 0 instructions: 133000003 cycles: 159463534 heartbeat IPC: 0.726854 cumulative IPC: 0.742324 (Simulation time: 1 hr 31 min 46 sec) 
Heartbeat CPU 0 instructions: 134000000 cycles: 160811836 heartbeat IPC: 0.741671 cumulative IPC: 0.742317 (Simulation time: 1 hr 32 min 14 sec) 
Heartbeat CPU 0 instructions: 135000002 cycles: 162131094 heartbeat IPC: 0.758003 cumulative IPC: 0.742497 (Simulation time: 1 hr 32 min 40 sec) 
Heartbeat CPU 0 instructions: 136000000 cycles: 163436970 heartbeat IPC: 0.765768 cumulative IPC: 0.74276 (Simulation time: 1 hr 33 min 4 sec) 
Heartbeat CPU 0 instructions: 137000003 cycles: 164769750 heartbeat IPC: 0.750314 cumulative IPC: 0.742846 (Simulation time: 1 hr 33 min 28 sec) 
Heartbeat CPU 0 instructions: 138000003 cycles: 166120387 heartbeat IPC: 0.740391 cumulative IPC: 0.742818 (Simulation time: 1 hr 33 min 52 sec) 
Heartbeat CPU 0 instructions: 139000000 cycles: 167508340 heartbeat IPC: 0.720483 cumulative IPC: 0.742559 (Simulation time: 1 hr 34 min 16 sec) 
Heartbeat CPU 0 instructions: 140000000 cycles: 168831539 heartbeat IPC: 0.755744 cumulative IPC: 0.742703 (Simulation time: 1 hr 34 min 38 sec) 
Heartbeat CPU 0 instructions: 141000001 cycles: 170152174 heartbeat IPC: 0.757212 cumulative IPC: 0.74286 (Simulation time: 1 hr 35 min 0 sec) 
Heartbeat CPU 0 instructions: 142000000 cycles: 171453144 heartbeat IPC: 0.768656 cumulative IPC: 0.743131 (Simulation time: 1 hr 35 min 22 sec) 
Heartbeat CPU 0 instructions: 143000003 cycles: 172778094 heartbeat IPC: 0.754748 cumulative IPC: 0.743254 (Simulation time: 1 hr 35 min 43 sec) 
Heartbeat CPU 0 instructions: 144000000 cycles: 174122230 heartbeat IPC: 0.74397 cumulative IPC: 0.743261 (Simulation time: 1 hr 36 min 2 sec) 
Heartbeat CPU 0 instructions: 145000001 cycles: 175510958 heartbeat IPC: 0.720084 cumulative IPC: 0.74301 (Simulation time: 1 hr 36 min 20 sec) 
Heartbeat CPU 0 instructions: 146000000 cycles: 176918385 heartbeat IPC: 0.710516 cumulative IPC: 0.742656 (Simulation time: 1 hr 36 min 38 sec) 
Heartbeat CPU 0 instructions: 147000001 cycles: 178275031 heartbeat IPC: 0.737113 cumulative IPC: 0.742598 (Simulation time: 1 hr 36 min 55 sec) 
Heartbeat CPU 0 instructions: 148000000 cycles: 179599844 heartbeat IPC: 0.754823 cumulative IPC: 0.742721 (Simulation time: 1 hr 37 min 12 sec) 
Heartbeat CPU 0 instructions: 149000000 cycles: 180914508 heartbeat IPC: 0.760651 cumulative IPC: 0.742898 (Simulation time: 1 hr 37 min 29 sec) 
Heartbeat CPU 0 instructions: 150000000 cycles: 182234446 heartbeat IPC: 0.757611 cumulative IPC: 0.743042 (Simulation time: 1 hr 37 min 47 sec) 
Finished CPU 0 instructions: 100000000 cycles: 134581871 cummulative IPC: 0.743042 (Simulation time: 1 hr 37 min 47 sec) 

ChampSim completed all CPUs

Region of Interest Statistics

CPU 0 cummulative IPC: 0.743042 instructions: 100000000 cycles: 134581871
LLC TOTAL     ACCESS:   21168194  HIT:   21093903  MISS:      74291
LLC LOAD      ACCESS:     165333  HIT:     130026  MISS:      35307
LLC RFO       ACCESS:   10374956  HIT:   10369314  MISS:       5642
LLC PREFETCH  ACCESS:     183343  HIT:     150192  MISS:      33151
LLC WRITEBACK ACCESS:   10444562  HIT:   10444371  MISS:        191
OPTgen accesses: 52423
OPTgen hits: 52190
OPTgen hit rate: 99.5555


