
*** ChampSim Multicore Out-of-Order Simulator ***

Warmup Instructions: 50000000
Simulation Instructions: 100000000
Configuration: 2
Number of CPUs: 1
LLC sets: 2048
LLC ways: 16
Off-chip DRAM Channels: 1 Width: 64-bit Data Rate: 1600 MT/s

CPU 0 runs /datasets/cs240c-wi22-a00-public/data/Assignment2-gz/mcf_250B.trace.gz
CPU 0 L1D next line prefetcher
CPU 0 L2C IP-based stride prefetcher
Initialize Hawkeye state
Heartbeat CPU 0 instructions: 1000000 cycles: 531080 heartbeat IPC: 1.88296 cumulative IPC: 1.88296 (Simulation time: 0 hr 0 min 44 sec) 
Heartbeat CPU 0 instructions: 2000003 cycles: 1044291 heartbeat IPC: 1.94852 cumulative IPC: 1.91518 (Simulation time: 0 hr 1 min 32 sec) 
Heartbeat CPU 0 instructions: 3000002 cycles: 1541281 heartbeat IPC: 2.01211 cumulative IPC: 1.94643 (Simulation time: 0 hr 2 min 23 sec) 
Heartbeat CPU 0 instructions: 4000000 cycles: 2052842 heartbeat IPC: 1.9548 cumulative IPC: 1.94852 (Simulation time: 0 hr 3 min 23 sec) 
Heartbeat CPU 0 instructions: 5000002 cycles: 2559303 heartbeat IPC: 1.97449 cumulative IPC: 1.95366 (Simulation time: 0 hr 4 min 36 sec) 
Heartbeat CPU 0 instructions: 6000002 cycles: 3064910 heartbeat IPC: 1.97782 cumulative IPC: 1.95764 (Simulation time: 0 hr 5 min 56 sec) 
Heartbeat CPU 0 instructions: 7000002 cycles: 3606020 heartbeat IPC: 1.84805 cumulative IPC: 1.9412 (Simulation time: 0 hr 7 min 25 sec) 
Heartbeat CPU 0 instructions: 8000000 cycles: 4121153 heartbeat IPC: 1.94124 cumulative IPC: 1.9412 (Simulation time: 0 hr 8 min 47 sec) 
Heartbeat CPU 0 instructions: 9000002 cycles: 4635859 heartbeat IPC: 1.94286 cumulative IPC: 1.94139 (Simulation time: 0 hr 10 min 14 sec) 
Heartbeat CPU 0 instructions: 10000000 cycles: 5147354 heartbeat IPC: 1.95505 cumulative IPC: 1.94275 (Simulation time: 0 hr 11 min 43 sec) 
Heartbeat CPU 0 instructions: 11000001 cycles: 5659720 heartbeat IPC: 1.95173 cumulative IPC: 1.94356 (Simulation time: 0 hr 13 min 6 sec) 
Heartbeat CPU 0 instructions: 12000000 cycles: 6191545 heartbeat IPC: 1.88032 cumulative IPC: 1.93813 (Simulation time: 0 hr 14 min 18 sec) 
Heartbeat CPU 0 instructions: 13000001 cycles: 6710318 heartbeat IPC: 1.92763 cumulative IPC: 1.93732 (Simulation time: 0 hr 15 min 37 sec) 
Heartbeat CPU 0 instructions: 14000003 cycles: 7223364 heartbeat IPC: 1.94915 cumulative IPC: 1.93816 (Simulation time: 0 hr 17 min 0 sec) 
Heartbeat CPU 0 instructions: 15000002 cycles: 7736522 heartbeat IPC: 1.94872 cumulative IPC: 1.93886 (Simulation time: 0 hr 18 min 25 sec) 
Heartbeat CPU 0 instructions: 16000000 cycles: 8245831 heartbeat IPC: 1.96344 cumulative IPC: 1.94037 (Simulation time: 0 hr 19 min 50 sec) 
Heartbeat CPU 0 instructions: 17000000 cycles: 8757798 heartbeat IPC: 1.95325 cumulative IPC: 1.94113 (Simulation time: 0 hr 21 min 12 sec) 
Heartbeat CPU 0 instructions: 18000002 cycles: 9267596 heartbeat IPC: 1.96157 cumulative IPC: 1.94225 (Simulation time: 0 hr 22 min 32 sec) 
Heartbeat CPU 0 instructions: 19000001 cycles: 9779624 heartbeat IPC: 1.95302 cumulative IPC: 1.94282 (Simulation time: 0 hr 23 min 49 sec) 
Heartbeat CPU 0 instructions: 20000000 cycles: 10290777 heartbeat IPC: 1.95636 cumulative IPC: 1.94349 (Simulation time: 0 hr 25 min 0 sec) 
Heartbeat CPU 0 instructions: 21000001 cycles: 10797763 heartbeat IPC: 1.97244 cumulative IPC: 1.94485 (Simulation time: 0 hr 26 min 6 sec) 
Heartbeat CPU 0 instructions: 22000000 cycles: 11302400 heartbeat IPC: 1.98162 cumulative IPC: 1.94649 (Simulation time: 0 hr 27 min 16 sec) 
Heartbeat CPU 0 instructions: 23000003 cycles: 11811424 heartbeat IPC: 1.96455 cumulative IPC: 1.94727 (Simulation time: 0 hr 28 min 26 sec) 
Heartbeat CPU 0 instructions: 24000000 cycles: 12318867 heartbeat IPC: 1.97066 cumulative IPC: 1.94823 (Simulation time: 0 hr 29 min 39 sec) 
Heartbeat CPU 0 instructions: 25000002 cycles: 12828563 heartbeat IPC: 1.96196 cumulative IPC: 1.94878 (Simulation time: 0 hr 31 min 0 sec) 
Heartbeat CPU 0 instructions: 26000000 cycles: 13342342 heartbeat IPC: 1.94636 cumulative IPC: 1.94868 (Simulation time: 0 hr 32 min 21 sec) 
Heartbeat CPU 0 instructions: 27000003 cycles: 13856884 heartbeat IPC: 1.94348 cumulative IPC: 1.94849 (Simulation time: 0 hr 33 min 39 sec) 
Heartbeat CPU 0 instructions: 28000000 cycles: 14371246 heartbeat IPC: 1.94415 cumulative IPC: 1.94833 (Simulation time: 0 hr 35 min 5 sec) 
Heartbeat CPU 0 instructions: 29000000 cycles: 14885959 heartbeat IPC: 1.94283 cumulative IPC: 1.94814 (Simulation time: 0 hr 36 min 26 sec) 
Heartbeat CPU 0 instructions: 30000000 cycles: 15400587 heartbeat IPC: 1.94315 cumulative IPC: 1.94798 (Simulation time: 0 hr 37 min 42 sec) 
Heartbeat CPU 0 instructions: 31000000 cycles: 15914257 heartbeat IPC: 1.94678 cumulative IPC: 1.94794 (Simulation time: 0 hr 38 min 56 sec) 
Heartbeat CPU 0 instructions: 32000000 cycles: 16422929 heartbeat IPC: 1.9659 cumulative IPC: 1.9485 (Simulation time: 0 hr 40 min 11 sec) 
Heartbeat CPU 0 instructions: 33000002 cycles: 16935925 heartbeat IPC: 1.94934 cumulative IPC: 1.94852 (Simulation time: 0 hr 41 min 24 sec) 
Heartbeat CPU 0 instructions: 34000000 cycles: 17449811 heartbeat IPC: 1.94595 cumulative IPC: 1.94845 (Simulation time: 0 hr 42 min 24 sec) 
Heartbeat CPU 0 instructions: 35000000 cycles: 17974886 heartbeat IPC: 1.90449 cumulative IPC: 1.94716 (Simulation time: 0 hr 43 min 26 sec) 
Heartbeat CPU 0 instructions: 36000000 cycles: 18501750 heartbeat IPC: 1.89802 cumulative IPC: 1.94576 (Simulation time: 0 hr 44 min 28 sec) 
Heartbeat CPU 0 instructions: 37000002 cycles: 19014998 heartbeat IPC: 1.94838 cumulative IPC: 1.94583 (Simulation time: 0 hr 45 min 44 sec) 
Heartbeat CPU 0 instructions: 38000000 cycles: 19528359 heartbeat IPC: 1.94794 cumulative IPC: 1.94589 (Simulation time: 0 hr 47 min 1 sec) 
Heartbeat CPU 0 instructions: 39000002 cycles: 20041546 heartbeat IPC: 1.94861 cumulative IPC: 1.94596 (Simulation time: 0 hr 48 min 12 sec) 
Heartbeat CPU 0 instructions: 40000000 cycles: 20556298 heartbeat IPC: 1.94268 cumulative IPC: 1.94588 (Simulation time: 0 hr 49 min 33 sec) 
Heartbeat CPU 0 instructions: 41000000 cycles: 21071014 heartbeat IPC: 1.94282 cumulative IPC: 1.9458 (Simulation time: 0 hr 50 min 48 sec) 
Heartbeat CPU 0 instructions: 42000001 cycles: 21586478 heartbeat IPC: 1.94 cumulative IPC: 1.94566 (Simulation time: 0 hr 52 min 7 sec) 
Heartbeat CPU 0 instructions: 43000000 cycles: 22099573 heartbeat IPC: 1.94895 cumulative IPC: 1.94574 (Simulation time: 0 hr 53 min 24 sec) 
Heartbeat CPU 0 instructions: 44000000 cycles: 22612755 heartbeat IPC: 1.94863 cumulative IPC: 1.9458 (Simulation time: 0 hr 54 min 39 sec) 
Heartbeat CPU 0 instructions: 45000001 cycles: 23126793 heartbeat IPC: 1.94538 cumulative IPC: 1.9458 (Simulation time: 0 hr 56 min 0 sec) 
Heartbeat CPU 0 instructions: 46000002 cycles: 23641339 heartbeat IPC: 1.94346 cumulative IPC: 1.94574 (Simulation time: 0 hr 57 min 10 sec) 
Heartbeat CPU 0 instructions: 47000002 cycles: 24155622 heartbeat IPC: 1.94445 cumulative IPC: 1.94572 (Simulation time: 0 hr 58 min 27 sec) 
Heartbeat CPU 0 instructions: 48000000 cycles: 24669620 heartbeat IPC: 1.94553 cumulative IPC: 1.94571 (Simulation time: 0 hr 59 min 41 sec) 
Heartbeat CPU 0 instructions: 49000000 cycles: 25183773 heartbeat IPC: 1.94495 cumulative IPC: 1.9457 (Simulation time: 1 hr 1 min 2 sec) 
Heartbeat CPU 0 instructions: 50000002 cycles: 25697536 heartbeat IPC: 1.94643 cumulative IPC: 1.94571 (Simulation time: 1 hr 2 min 17 sec) 

Warmup complete CPU 0 instructions: 50000002 cycles: 25697536 (Simulation time: 1 hr 2 min 17 sec) 

Heartbeat CPU 0 instructions: 51000002 cycles: 34868205 heartbeat IPC: 0.109043 cumulative IPC: 0.109043 (Simulation time: 1 hr 3 min 50 sec) 
Heartbeat CPU 0 instructions: 52000000 cycles: 43867913 heartbeat IPC: 0.111114 cumulative IPC: 0.110069 (Simulation time: 1 hr 5 min 32 sec) 
Heartbeat CPU 0 instructions: 53000000 cycles: 53054151 heartbeat IPC: 0.108858 cumulative IPC: 0.109663 (Simulation time: 1 hr 6 min 50 sec) 
Heartbeat CPU 0 instructions: 54000000 cycles: 62257701 heartbeat IPC: 0.108654 cumulative IPC: 0.109409 (Simulation time: 1 hr 8 min 27 sec) 
Heartbeat CPU 0 instructions: 55000000 cycles: 71472705 heartbeat IPC: 0.108519 cumulative IPC: 0.109229 (Simulation time: 1 hr 10 min 6 sec) 
Heartbeat CPU 0 instructions: 56000000 cycles: 80670539 heartbeat IPC: 0.108721 cumulative IPC: 0.109144 (Simulation time: 1 hr 11 min 46 sec) 
Heartbeat CPU 0 instructions: 57000000 cycles: 90120517 heartbeat IPC: 0.10582 cumulative IPC: 0.108657 (Simulation time: 1 hr 13 min 33 sec) 
Heartbeat CPU 0 instructions: 58000000 cycles: 99074855 heartbeat IPC: 0.111678 cumulative IPC: 0.109025 (Simulation time: 1 hr 15 min 17 sec) 
Heartbeat CPU 0 instructions: 59000001 cycles: 108123640 heartbeat IPC: 0.110512 cumulative IPC: 0.109189 (Simulation time: 1 hr 17 min 6 sec) 
Heartbeat CPU 0 instructions: 60000000 cycles: 117008633 heartbeat IPC: 0.112549 cumulative IPC: 0.109516 (Simulation time: 1 hr 18 min 39 sec) 
Heartbeat CPU 0 instructions: 61000001 cycles: 126185357 heartbeat IPC: 0.108971 cumulative IPC: 0.109466 (Simulation time: 1 hr 20 min 11 sec) 
Heartbeat CPU 0 instructions: 62000000 cycles: 133883393 heartbeat IPC: 0.129903 cumulative IPC: 0.11092 (Simulation time: 1 hr 21 min 24 sec) 
Heartbeat CPU 0 instructions: 63000001 cycles: 142697597 heartbeat IPC: 0.113453 cumulative IPC: 0.111111 (Simulation time: 1 hr 22 min 49 sec) 
Heartbeat CPU 0 instructions: 64000000 cycles: 151823523 heartbeat IPC: 0.109578 cumulative IPC: 0.111 (Simulation time: 1 hr 24 min 23 sec) 
Heartbeat CPU 0 instructions: 65000000 cycles: 160033554 heartbeat IPC: 0.121802 cumulative IPC: 0.11166 (Simulation time: 1 hr 25 min 47 sec) 
Heartbeat CPU 0 instructions: 66000000 cycles: 169087749 heartbeat IPC: 0.110446 cumulative IPC: 0.111584 (Simulation time: 1 hr 27 min 4 sec) 
Heartbeat CPU 0 instructions: 67000000 cycles: 178324956 heartbeat IPC: 0.108258 cumulative IPC: 0.111382 (Simulation time: 1 hr 28 min 21 sec) 
Heartbeat CPU 0 instructions: 68000000 cycles: 187408911 heartbeat IPC: 0.110084 cumulative IPC: 0.111309 (Simulation time: 1 hr 29 min 21 sec) 
Heartbeat CPU 0 instructions: 69000000 cycles: 196379749 heartbeat IPC: 0.111472 cumulative IPC: 0.111318 (Simulation time: 1 hr 30 min 25 sec) 
Heartbeat CPU 0 instructions: 70000000 cycles: 205328666 heartbeat IPC: 0.111745 cumulative IPC: 0.111339 (Simulation time: 1 hr 31 min 34 sec) 
Heartbeat CPU 0 instructions: 71000000 cycles: 214530540 heartbeat IPC: 0.108674 cumulative IPC: 0.111209 (Simulation time: 1 hr 32 min 38 sec) 
Heartbeat CPU 0 instructions: 72000000 cycles: 223105388 heartbeat IPC: 0.11662 cumulative IPC: 0.111444 (Simulation time: 1 hr 33 min 30 sec) 
Heartbeat CPU 0 instructions: 73000000 cycles: 232497855 heartbeat IPC: 0.106468 cumulative IPC: 0.111218 (Simulation time: 1 hr 34 min 27 sec) 
Heartbeat CPU 0 instructions: 74000001 cycles: 241707496 heartbeat IPC: 0.108582 cumulative IPC: 0.111106 (Simulation time: 1 hr 35 min 15 sec) 
Heartbeat CPU 0 instructions: 75000002 cycles: 250544398 heartbeat IPC: 0.113162 cumulative IPC: 0.111187 (Simulation time: 1 hr 35 min 57 sec) 
Heartbeat CPU 0 instructions: 76000000 cycles: 259501091 heartbeat IPC: 0.111648 cumulative IPC: 0.111204 (Simulation time: 1 hr 36 min 38 sec) 
Heartbeat CPU 0 instructions: 77000003 cycles: 273219626 heartbeat IPC: 0.0728943 cumulative IPC: 0.109081 (Simulation time: 1 hr 37 min 25 sec) 
Heartbeat CPU 0 instructions: 78000000 cycles: 283271203 heartbeat IPC: 0.0994866 cumulative IPC: 0.108707 (Simulation time: 1 hr 38 min 3 sec) 
Heartbeat CPU 0 instructions: 79000000 cycles: 292433093 heartbeat IPC: 0.109148 cumulative IPC: 0.108722 (Simulation time: 1 hr 38 min 32 sec) 
Heartbeat CPU 0 instructions: 80000000 cycles: 301133298 heartbeat IPC: 0.11494 cumulative IPC: 0.108918 (Simulation time: 1 hr 39 min 1 sec) 
Heartbeat CPU 0 instructions: 81000001 cycles: 309963001 heartbeat IPC: 0.113254 cumulative IPC: 0.109053 (Simulation time: 1 hr 39 min 30 sec) 
Heartbeat CPU 0 instructions: 82000001 cycles: 318507651 heartbeat IPC: 0.117032 cumulative IPC: 0.109286 (Simulation time: 1 hr 39 min 53 sec) 
Heartbeat CPU 0 instructions: 83000002 cycles: 325916313 heartbeat IPC: 0.134977 cumulative IPC: 0.10992 (Simulation time: 1 hr 40 min 13 sec) 
Heartbeat CPU 0 instructions: 84000000 cycles: 333500525 heartbeat IPC: 0.131853 cumulative IPC: 0.11046 (Simulation time: 1 hr 40 min 33 sec) 
Heartbeat CPU 0 instructions: 85000000 cycles: 341808175 heartbeat IPC: 0.120371 cumulative IPC: 0.110721 (Simulation time: 1 hr 40 min 51 sec) 
Heartbeat CPU 0 instructions: 86000001 cycles: 349185296 heartbeat IPC: 0.135554 cumulative IPC: 0.111287 (Simulation time: 1 hr 41 min 8 sec) 
Heartbeat CPU 0 instructions: 87000001 cycles: 362655221 heartbeat IPC: 0.0742395 cumulative IPC: 0.109806 (Simulation time: 1 hr 41 min 28 sec) 
Heartbeat CPU 0 instructions: 88000000 cycles: 372839295 heartbeat IPC: 0.0981924 cumulative IPC: 0.109465 (Simulation time: 1 hr 41 min 45 sec) 
Heartbeat CPU 0 instructions: 89000001 cycles: 381045472 heartbeat IPC: 0.12186 cumulative IPC: 0.109752 (Simulation time: 1 hr 41 min 58 sec) 
Heartbeat CPU 0 instructions: 90000001 cycles: 387636685 heartbeat IPC: 0.151717 cumulative IPC: 0.110516 (Simulation time: 1 hr 42 min 7 sec) 
Heartbeat CPU 0 instructions: 91000000 cycles: 397321947 heartbeat IPC: 0.10325 cumulative IPC: 0.110326 (Simulation time: 1 hr 42 min 16 sec) 
Heartbeat CPU 0 instructions: 92000000 cycles: 405561198 heartbeat IPC: 0.12137 cumulative IPC: 0.110566 (Simulation time: 1 hr 42 min 24 sec) 
Heartbeat CPU 0 instructions: 93000000 cycles: 414735318 heartbeat IPC: 0.109002 cumulative IPC: 0.110529 (Simulation time: 1 hr 42 min 31 sec) 
Heartbeat CPU 0 instructions: 94000000 cycles: 423715618 heartbeat IPC: 0.111355 cumulative IPC: 0.110548 (Simulation time: 1 hr 42 min 39 sec) 
Heartbeat CPU 0 instructions: 95000000 cycles: 433153560 heartbeat IPC: 0.105955 cumulative IPC: 0.110441 (Simulation time: 1 hr 42 min 46 sec) 
Heartbeat CPU 0 instructions: 96000000 cycles: 442487353 heartbeat IPC: 0.107138 cumulative IPC: 0.110367 (Simulation time: 1 hr 42 min 54 sec) 
Heartbeat CPU 0 instructions: 97000000 cycles: 451808873 heartbeat IPC: 0.107279 cumulative IPC: 0.1103 (Simulation time: 1 hr 43 min 2 sec) 
Heartbeat CPU 0 instructions: 98000000 cycles: 460915013 heartbeat IPC: 0.109816 cumulative IPC: 0.11029 (Simulation time: 1 hr 43 min 10 sec) 
Heartbeat CPU 0 instructions: 99000000 cycles: 469928390 heartbeat IPC: 0.110946 cumulative IPC: 0.110303 (Simulation time: 1 hr 43 min 18 sec) 
Heartbeat CPU 0 instructions: 100000000 cycles: 478954441 heartbeat IPC: 0.11079 cumulative IPC: 0.110313 (Simulation time: 1 hr 43 min 26 sec) 
Heartbeat CPU 0 instructions: 101000002 cycles: 488157902 heartbeat IPC: 0.108655 cumulative IPC: 0.11028 (Simulation time: 1 hr 43 min 35 sec) 
Heartbeat CPU 0 instructions: 102000000 cycles: 497626846 heartbeat IPC: 0.105608 cumulative IPC: 0.110186 (Simulation time: 1 hr 43 min 43 sec) 
Heartbeat CPU 0 instructions: 103000000 cycles: 507147663 heartbeat IPC: 0.105033 cumulative IPC: 0.110084 (Simulation time: 1 hr 43 min 52 sec) 
Heartbeat CPU 0 instructions: 104000000 cycles: 516391628 heartbeat IPC: 0.108179 cumulative IPC: 0.110048 (Simulation time: 1 hr 44 min 0 sec) 
Heartbeat CPU 0 instructions: 105000000 cycles: 526022731 heartbeat IPC: 0.10383 cumulative IPC: 0.109928 (Simulation time: 1 hr 44 min 8 sec) 
Heartbeat CPU 0 instructions: 106000002 cycles: 534899076 heartbeat IPC: 0.112659 cumulative IPC: 0.109976 (Simulation time: 1 hr 44 min 16 sec) 
Heartbeat CPU 0 instructions: 107000003 cycles: 544065221 heartbeat IPC: 0.109097 cumulative IPC: 0.109961 (Simulation time: 1 hr 44 min 24 sec) 
Heartbeat CPU 0 instructions: 108000000 cycles: 553345074 heartbeat IPC: 0.10776 cumulative IPC: 0.109922 (Simulation time: 1 hr 44 min 33 sec) 
Heartbeat CPU 0 instructions: 109000000 cycles: 562567236 heartbeat IPC: 0.108434 cumulative IPC: 0.109896 (Simulation time: 1 hr 44 min 41 sec) 
Heartbeat CPU 0 instructions: 110000000 cycles: 571534635 heartbeat IPC: 0.111515 cumulative IPC: 0.109923 (Simulation time: 1 hr 44 min 49 sec) 
Heartbeat CPU 0 instructions: 111000000 cycles: 580663903 heartbeat IPC: 0.109538 cumulative IPC: 0.109917 (Simulation time: 1 hr 44 min 57 sec) 
Heartbeat CPU 0 instructions: 112000000 cycles: 589807651 heartbeat IPC: 0.109364 cumulative IPC: 0.109908 (Simulation time: 1 hr 45 min 4 sec) 
Heartbeat CPU 0 instructions: 113000001 cycles: 598734003 heartbeat IPC: 0.112028 cumulative IPC: 0.109941 (Simulation time: 1 hr 45 min 12 sec) 
Heartbeat CPU 0 instructions: 114000000 cycles: 607619408 heartbeat IPC: 0.112544 cumulative IPC: 0.10998 (Simulation time: 1 hr 45 min 19 sec) 
Heartbeat CPU 0 instructions: 115000000 cycles: 616758594 heartbeat IPC: 0.109419 cumulative IPC: 0.109972 (Simulation time: 1 hr 45 min 27 sec) 
Heartbeat CPU 0 instructions: 116000000 cycles: 625738732 heartbeat IPC: 0.111357 cumulative IPC: 0.109992 (Simulation time: 1 hr 45 min 35 sec) 
Heartbeat CPU 0 instructions: 117000001 cycles: 634760214 heartbeat IPC: 0.110847 cumulative IPC: 0.110005 (Simulation time: 1 hr 45 min 42 sec) 
Heartbeat CPU 0 instructions: 118000000 cycles: 643713168 heartbeat IPC: 0.111695 cumulative IPC: 0.11003 (Simulation time: 1 hr 45 min 50 sec) 
Heartbeat CPU 0 instructions: 119000000 cycles: 652769867 heartbeat IPC: 0.110416 cumulative IPC: 0.110035 (Simulation time: 1 hr 45 min 57 sec) 
Heartbeat CPU 0 instructions: 120000000 cycles: 661850389 heartbeat IPC: 0.110126 cumulative IPC: 0.110036 (Simulation time: 1 hr 46 min 5 sec) 
Heartbeat CPU 0 instructions: 121000000 cycles: 670669948 heartbeat IPC: 0.113384 cumulative IPC: 0.110082 (Simulation time: 1 hr 46 min 12 sec) 
Heartbeat CPU 0 instructions: 122000001 cycles: 679705345 heartbeat IPC: 0.110676 cumulative IPC: 0.11009 (Simulation time: 1 hr 46 min 20 sec) 
Heartbeat CPU 0 instructions: 123000002 cycles: 688579732 heartbeat IPC: 0.112684 cumulative IPC: 0.110125 (Simulation time: 1 hr 46 min 28 sec) 
Heartbeat CPU 0 instructions: 124000000 cycles: 697741563 heartbeat IPC: 0.109148 cumulative IPC: 0.110112 (Simulation time: 1 hr 46 min 35 sec) 
Heartbeat CPU 0 instructions: 125000001 cycles: 706917193 heartbeat IPC: 0.108984 cumulative IPC: 0.110097 (Simulation time: 1 hr 46 min 44 sec) 
Heartbeat CPU 0 instructions: 126000002 cycles: 715863600 heartbeat IPC: 0.111777 cumulative IPC: 0.110118 (Simulation time: 1 hr 46 min 51 sec) 
Heartbeat CPU 0 instructions: 127000000 cycles: 724943963 heartbeat IPC: 0.110128 cumulative IPC: 0.110119 (Simulation time: 1 hr 46 min 59 sec) 
Heartbeat CPU 0 instructions: 128000000 cycles: 734172275 heartbeat IPC: 0.108362 cumulative IPC: 0.110096 (Simulation time: 1 hr 47 min 7 sec) 
Heartbeat CPU 0 instructions: 129000001 cycles: 743313900 heartbeat IPC: 0.10939 cumulative IPC: 0.110087 (Simulation time: 1 hr 47 min 15 sec) 
Heartbeat CPU 0 instructions: 130000000 cycles: 752719211 heartbeat IPC: 0.106323 cumulative IPC: 0.110038 (Simulation time: 1 hr 47 min 23 sec) 
Heartbeat CPU 0 instructions: 131000000 cycles: 762058206 heartbeat IPC: 0.107078 cumulative IPC: 0.11 (Simulation time: 1 hr 47 min 31 sec) 
Heartbeat CPU 0 instructions: 132000000 cycles: 771051319 heartbeat IPC: 0.111196 cumulative IPC: 0.110015 (Simulation time: 1 hr 47 min 38 sec) 
Heartbeat CPU 0 instructions: 133000000 cycles: 779930391 heartbeat IPC: 0.112624 cumulative IPC: 0.110046 (Simulation time: 1 hr 47 min 46 sec) 
Heartbeat CPU 0 instructions: 134000002 cycles: 788742762 heartbeat IPC: 0.113477 cumulative IPC: 0.110085 (Simulation time: 1 hr 47 min 54 sec) 
Heartbeat CPU 0 instructions: 135000002 cycles: 797932669 heartbeat IPC: 0.108815 cumulative IPC: 0.11007 (Simulation time: 1 hr 48 min 2 sec) 
Heartbeat CPU 0 instructions: 136000000 cycles: 806906622 heartbeat IPC: 0.111433 cumulative IPC: 0.110086 (Simulation time: 1 hr 48 min 10 sec) 
Heartbeat CPU 0 instructions: 137000000 cycles: 815978417 heartbeat IPC: 0.110232 cumulative IPC: 0.110087 (Simulation time: 1 hr 48 min 18 sec) 
Heartbeat CPU 0 instructions: 138000000 cycles: 824708371 heartbeat IPC: 0.114548 cumulative IPC: 0.110136 (Simulation time: 1 hr 48 min 26 sec) 
Heartbeat CPU 0 instructions: 139000001 cycles: 833624359 heartbeat IPC: 0.112158 cumulative IPC: 0.110158 (Simulation time: 1 hr 48 min 34 sec) 
Heartbeat CPU 0 instructions: 140000000 cycles: 842451957 heartbeat IPC: 0.113281 cumulative IPC: 0.110192 (Simulation time: 1 hr 48 min 42 sec) 
Heartbeat CPU 0 instructions: 141000002 cycles: 855969145 heartbeat IPC: 0.07398 cumulative IPC: 0.109603 (Simulation time: 1 hr 48 min 52 sec) 
Heartbeat CPU 0 instructions: 142000002 cycles: 866167050 heartbeat IPC: 0.0980594 cumulative IPC: 0.109463 (Simulation time: 1 hr 49 min 1 sec) 
Heartbeat CPU 0 instructions: 143000001 cycles: 874873749 heartbeat IPC: 0.114854 cumulative IPC: 0.109518 (Simulation time: 1 hr 49 min 10 sec) 
Heartbeat CPU 0 instructions: 144000000 cycles: 884017399 heartbeat IPC: 0.109365 cumulative IPC: 0.109516 (Simulation time: 1 hr 49 min 18 sec) 
Heartbeat CPU 0 instructions: 145000000 cycles: 892639493 heartbeat IPC: 0.115981 cumulative IPC: 0.109581 (Simulation time: 1 hr 49 min 26 sec) 
Heartbeat CPU 0 instructions: 146000001 cycles: 901372510 heartbeat IPC: 0.114508 cumulative IPC: 0.10963 (Simulation time: 1 hr 49 min 34 sec) 
Heartbeat CPU 0 instructions: 147000001 cycles: 909726975 heartbeat IPC: 0.119696 cumulative IPC: 0.109725 (Simulation time: 1 hr 49 min 42 sec) 
Heartbeat CPU 0 instructions: 148000000 cycles: 918213735 heartbeat IPC: 0.11783 cumulative IPC: 0.109802 (Simulation time: 1 hr 49 min 50 sec) 
Heartbeat CPU 0 instructions: 149000001 cycles: 926121064 heartbeat IPC: 0.126465 cumulative IPC: 0.109948 (Simulation time: 1 hr 49 min 58 sec) 
Heartbeat CPU 0 instructions: 150000001 cycles: 934649728 heartbeat IPC: 0.117252 cumulative IPC: 0.110017 (Simulation time: 1 hr 50 min 7 sec) 
Finished CPU 0 instructions: 100000001 cycles: 908952241 cummulative IPC: 0.110017 (Simulation time: 1 hr 50 min 7 sec) 

ChampSim completed all CPUs

Region of Interest Statistics

CPU 0 cummulative IPC: 0.110017 instructions: 100000001 cycles: 908952241
LLC TOTAL     ACCESS:   27038860  HIT:   15835836  MISS:   11203024
LLC LOAD      ACCESS:   11745904  HIT:    8852949  MISS:    2892955
LLC RFO       ACCESS:      20875  HIT:       6937  MISS:      13938
LLC PREFETCH  ACCESS:   14998653  HIT:    6811193  MISS:    8187460
LLC WRITEBACK ACCESS:     273428  HIT:     164757  MISS:     108671
OPTgen accesses: 62617
OPTgen hits: 66354
OPTgen hit rate: 105.968


