
*** ChampSim Multicore Out-of-Order Simulator ***

Warmup Instructions: 50000000
Simulation Instructions: 100000000
Configuration: 2
Number of CPUs: 1
LLC sets: 2048
LLC ways: 16
Off-chip DRAM Channels: 1 Width: 64-bit Data Rate: 1600 MT/s

CPU 0 runs /datasets/cs240c-wi22-a00-public/data/Assignment2-gz/bzip2_183B.trace.gz
CPU 0 L1D next line prefetcher
CPU 0 L2C IP-based stride prefetcher
Initialize Hawkeye state
Heartbeat CPU 0 instructions: 1000000 cycles: 447972 heartbeat IPC: 2.23228 cumulative IPC: 2.23228 (Simulation time: 0 hr 0 min 38 sec) 
Heartbeat CPU 0 instructions: 2000001 cycles: 951246 heartbeat IPC: 1.98699 cumulative IPC: 2.10251 (Simulation time: 0 hr 1 min 16 sec) 
Heartbeat CPU 0 instructions: 3000001 cycles: 1457934 heartbeat IPC: 1.9736 cumulative IPC: 2.05771 (Simulation time: 0 hr 1 min 56 sec) 
Heartbeat CPU 0 instructions: 4000000 cycles: 1928638 heartbeat IPC: 2.12448 cumulative IPC: 2.074 (Simulation time: 0 hr 2 min 34 sec) 
Heartbeat CPU 0 instructions: 5000000 cycles: 2425967 heartbeat IPC: 2.01074 cumulative IPC: 2.06103 (Simulation time: 0 hr 3 min 11 sec) 
Heartbeat CPU 0 instructions: 6000001 cycles: 2887581 heartbeat IPC: 2.16631 cumulative IPC: 2.07786 (Simulation time: 0 hr 3 min 48 sec) 
Heartbeat CPU 0 instructions: 7000002 cycles: 3343462 heartbeat IPC: 2.19356 cumulative IPC: 2.09364 (Simulation time: 0 hr 4 min 25 sec) 
Heartbeat CPU 0 instructions: 8000000 cycles: 3813054 heartbeat IPC: 2.1295 cumulative IPC: 2.09806 (Simulation time: 0 hr 5 min 1 sec) 
Heartbeat CPU 0 instructions: 9000003 cycles: 4278337 heartbeat IPC: 2.14924 cumulative IPC: 2.10362 (Simulation time: 0 hr 5 min 34 sec) 
Heartbeat CPU 0 instructions: 10000000 cycles: 4746833 heartbeat IPC: 2.13448 cumulative IPC: 2.10667 (Simulation time: 0 hr 6 min 9 sec) 
Heartbeat CPU 0 instructions: 11000000 cycles: 5209567 heartbeat IPC: 2.16107 cumulative IPC: 2.1115 (Simulation time: 0 hr 6 min 43 sec) 
Heartbeat CPU 0 instructions: 12000000 cycles: 5685186 heartbeat IPC: 2.10252 cumulative IPC: 2.11075 (Simulation time: 0 hr 7 min 14 sec) 
Heartbeat CPU 0 instructions: 13000003 cycles: 6152331 heartbeat IPC: 2.14067 cumulative IPC: 2.11302 (Simulation time: 0 hr 7 min 51 sec) 
Heartbeat CPU 0 instructions: 14000003 cycles: 6651724 heartbeat IPC: 2.00243 cumulative IPC: 2.10472 (Simulation time: 0 hr 8 min 29 sec) 
Heartbeat CPU 0 instructions: 15000002 cycles: 7120884 heartbeat IPC: 2.13147 cumulative IPC: 2.10648 (Simulation time: 0 hr 9 min 3 sec) 
Heartbeat CPU 0 instructions: 16000000 cycles: 7634958 heartbeat IPC: 1.94524 cumulative IPC: 2.09562 (Simulation time: 0 hr 9 min 38 sec) 
Heartbeat CPU 0 instructions: 17000000 cycles: 8128973 heartbeat IPC: 2.02423 cumulative IPC: 2.09128 (Simulation time: 0 hr 10 min 14 sec) 
Heartbeat CPU 0 instructions: 18000001 cycles: 8693181 heartbeat IPC: 1.7724 cumulative IPC: 2.07059 (Simulation time: 0 hr 10 min 56 sec) 
Heartbeat CPU 0 instructions: 19000000 cycles: 9204805 heartbeat IPC: 1.95456 cumulative IPC: 2.06414 (Simulation time: 0 hr 11 min 30 sec) 
Heartbeat CPU 0 instructions: 20000000 cycles: 9694802 heartbeat IPC: 2.04083 cumulative IPC: 2.06296 (Simulation time: 0 hr 12 min 8 sec) 
Heartbeat CPU 0 instructions: 21000003 cycles: 10143577 heartbeat IPC: 2.22829 cumulative IPC: 2.07028 (Simulation time: 0 hr 12 min 49 sec) 
Heartbeat CPU 0 instructions: 22000003 cycles: 10608521 heartbeat IPC: 2.1508 cumulative IPC: 2.0738 (Simulation time: 0 hr 13 min 28 sec) 
Heartbeat CPU 0 instructions: 23000002 cycles: 11089786 heartbeat IPC: 2.07786 cumulative IPC: 2.07398 (Simulation time: 0 hr 14 min 8 sec) 
Heartbeat CPU 0 instructions: 24000000 cycles: 11586171 heartbeat IPC: 2.01456 cumulative IPC: 2.07143 (Simulation time: 0 hr 14 min 51 sec) 
Heartbeat CPU 0 instructions: 25000001 cycles: 12038821 heartbeat IPC: 2.20921 cumulative IPC: 2.07662 (Simulation time: 0 hr 15 min 33 sec) 
Heartbeat CPU 0 instructions: 26000003 cycles: 12531273 heartbeat IPC: 2.03066 cumulative IPC: 2.07481 (Simulation time: 0 hr 16 min 14 sec) 
Heartbeat CPU 0 instructions: 27000000 cycles: 13048394 heartbeat IPC: 1.93378 cumulative IPC: 2.06922 (Simulation time: 0 hr 17 min 0 sec) 
Heartbeat CPU 0 instructions: 28000000 cycles: 13507914 heartbeat IPC: 2.17618 cumulative IPC: 2.07286 (Simulation time: 0 hr 17 min 38 sec) 
Heartbeat CPU 0 instructions: 29000000 cycles: 13996744 heartbeat IPC: 2.0457 cumulative IPC: 2.07191 (Simulation time: 0 hr 18 min 17 sec) 
Heartbeat CPU 0 instructions: 30000000 cycles: 14450065 heartbeat IPC: 2.20594 cumulative IPC: 2.07612 (Simulation time: 0 hr 18 min 57 sec) 
Heartbeat CPU 0 instructions: 31000002 cycles: 14909110 heartbeat IPC: 2.17844 cumulative IPC: 2.07927 (Simulation time: 0 hr 19 min 36 sec) 
Heartbeat CPU 0 instructions: 32000000 cycles: 15367830 heartbeat IPC: 2.17997 cumulative IPC: 2.08227 (Simulation time: 0 hr 20 min 15 sec) 
Heartbeat CPU 0 instructions: 33000001 cycles: 15838699 heartbeat IPC: 2.12373 cumulative IPC: 2.0835 (Simulation time: 0 hr 20 min 49 sec) 
Heartbeat CPU 0 instructions: 34000001 cycles: 16348607 heartbeat IPC: 1.96114 cumulative IPC: 2.07969 (Simulation time: 0 hr 21 min 27 sec) 
Heartbeat CPU 0 instructions: 35000002 cycles: 16857471 heartbeat IPC: 1.96516 cumulative IPC: 2.07623 (Simulation time: 0 hr 22 min 3 sec) 
Heartbeat CPU 0 instructions: 36000000 cycles: 17330110 heartbeat IPC: 2.11578 cumulative IPC: 2.07731 (Simulation time: 0 hr 22 min 39 sec) 
Heartbeat CPU 0 instructions: 37000002 cycles: 17806415 heartbeat IPC: 2.0995 cumulative IPC: 2.0779 (Simulation time: 0 hr 23 min 17 sec) 
Heartbeat CPU 0 instructions: 38000001 cycles: 18249431 heartbeat IPC: 2.25725 cumulative IPC: 2.08226 (Simulation time: 0 hr 23 min 55 sec) 
Heartbeat CPU 0 instructions: 39000001 cycles: 18714212 heartbeat IPC: 2.15155 cumulative IPC: 2.08398 (Simulation time: 0 hr 24 min 29 sec) 
Heartbeat CPU 0 instructions: 40000000 cycles: 19224166 heartbeat IPC: 1.96096 cumulative IPC: 2.08071 (Simulation time: 0 hr 25 min 8 sec) 
Heartbeat CPU 0 instructions: 41000000 cycles: 19683466 heartbeat IPC: 2.17723 cumulative IPC: 2.08297 (Simulation time: 0 hr 25 min 45 sec) 
Heartbeat CPU 0 instructions: 42000000 cycles: 20163567 heartbeat IPC: 2.0829 cumulative IPC: 2.08296 (Simulation time: 0 hr 26 min 23 sec) 
Heartbeat CPU 0 instructions: 43000001 cycles: 20623055 heartbeat IPC: 2.17634 cumulative IPC: 2.08505 (Simulation time: 0 hr 26 min 58 sec) 
Heartbeat CPU 0 instructions: 44000000 cycles: 21114094 heartbeat IPC: 2.0365 cumulative IPC: 2.08392 (Simulation time: 0 hr 27 min 34 sec) 
Heartbeat CPU 0 instructions: 45000000 cycles: 21572911 heartbeat IPC: 2.17952 cumulative IPC: 2.08595 (Simulation time: 0 hr 28 min 10 sec) 
Heartbeat CPU 0 instructions: 46000000 cycles: 22064755 heartbeat IPC: 2.03316 cumulative IPC: 2.08477 (Simulation time: 0 hr 28 min 49 sec) 
Heartbeat CPU 0 instructions: 47000002 cycles: 22566725 heartbeat IPC: 1.99215 cumulative IPC: 2.08271 (Simulation time: 0 hr 29 min 28 sec) 
Heartbeat CPU 0 instructions: 48000000 cycles: 22999321 heartbeat IPC: 2.31162 cumulative IPC: 2.08702 (Simulation time: 0 hr 30 min 6 sec) 
Heartbeat CPU 0 instructions: 49000003 cycles: 23457641 heartbeat IPC: 2.18189 cumulative IPC: 2.08887 (Simulation time: 0 hr 30 min 44 sec) 
Heartbeat CPU 0 instructions: 50000001 cycles: 23888221 heartbeat IPC: 2.32244 cumulative IPC: 2.09308 (Simulation time: 0 hr 31 min 20 sec) 

Warmup complete CPU 0 instructions: 50000001 cycles: 23888221 (Simulation time: 0 hr 31 min 20 sec) 

Heartbeat CPU 0 instructions: 51000000 cycles: 24918252 heartbeat IPC: 0.970844 cumulative IPC: 0.970844 (Simulation time: 0 hr 31 min 54 sec) 
Heartbeat CPU 0 instructions: 52000000 cycles: 25936091 heartbeat IPC: 0.982474 cumulative IPC: 0.976624 (Simulation time: 0 hr 32 min 26 sec) 
Heartbeat CPU 0 instructions: 53000001 cycles: 26901447 heartbeat IPC: 1.03589 cumulative IPC: 0.995611 (Simulation time: 0 hr 33 min 1 sec) 
Heartbeat CPU 0 instructions: 54000001 cycles: 27908893 heartbeat IPC: 0.992609 cumulative IPC: 0.994859 (Simulation time: 0 hr 33 min 34 sec) 
Heartbeat CPU 0 instructions: 55000001 cycles: 29124853 heartbeat IPC: 0.822395 cumulative IPC: 0.954812 (Simulation time: 0 hr 34 min 8 sec) 
Heartbeat CPU 0 instructions: 56000000 cycles: 30309714 heartbeat IPC: 0.84398 cumulative IPC: 0.934362 (Simulation time: 0 hr 34 min 43 sec) 
Heartbeat CPU 0 instructions: 57000003 cycles: 31679621 heartbeat IPC: 0.729979 cumulative IPC: 0.898427 (Simulation time: 0 hr 35 min 17 sec) 
Heartbeat CPU 0 instructions: 58000001 cycles: 33255698 heartbeat IPC: 0.634485 cumulative IPC: 0.854019 (Simulation time: 0 hr 35 min 52 sec) 
Heartbeat CPU 0 instructions: 59000003 cycles: 34558806 heartbeat IPC: 0.767398 cumulative IPC: 0.84344 (Simulation time: 0 hr 36 min 24 sec) 
Heartbeat CPU 0 instructions: 60000000 cycles: 36125534 heartbeat IPC: 0.638271 cumulative IPC: 0.817173 (Simulation time: 0 hr 37 min 0 sec) 
Heartbeat CPU 0 instructions: 61000003 cycles: 37840393 heartbeat IPC: 0.58314 cumulative IPC: 0.788408 (Simulation time: 0 hr 37 min 35 sec) 
Heartbeat CPU 0 instructions: 62000002 cycles: 39384025 heartbeat IPC: 0.647822 cumulative IPC: 0.774403 (Simulation time: 0 hr 38 min 8 sec) 
Heartbeat CPU 0 instructions: 63000003 cycles: 40756961 heartbeat IPC: 0.728367 cumulative IPC: 0.770656 (Simulation time: 0 hr 38 min 47 sec) 
Heartbeat CPU 0 instructions: 64000000 cycles: 42322355 heartbeat IPC: 0.638815 cumulative IPC: 0.759461 (Simulation time: 0 hr 39 min 19 sec) 
Heartbeat CPU 0 instructions: 65000003 cycles: 43578981 heartbeat IPC: 0.795784 cumulative IPC: 0.761779 (Simulation time: 0 hr 39 min 54 sec) 
Heartbeat CPU 0 instructions: 66000000 cycles: 44891832 heartbeat IPC: 0.761699 cumulative IPC: 0.761774 (Simulation time: 0 hr 40 min 27 sec) 
Heartbeat CPU 0 instructions: 67000000 cycles: 45827036 heartbeat IPC: 1.06929 cumulative IPC: 0.774882 (Simulation time: 0 hr 41 min 1 sec) 
Heartbeat CPU 0 instructions: 68000000 cycles: 47226179 heartbeat IPC: 0.714723 cumulative IPC: 0.771276 (Simulation time: 0 hr 41 min 37 sec) 
Heartbeat CPU 0 instructions: 69000000 cycles: 48798741 heartbeat IPC: 0.635905 cumulative IPC: 0.76273 (Simulation time: 0 hr 42 min 16 sec) 
Heartbeat CPU 0 instructions: 70000002 cycles: 50250612 heartbeat IPC: 0.688768 cumulative IPC: 0.758657 (Simulation time: 0 hr 43 min 2 sec) 
Heartbeat CPU 0 instructions: 71000000 cycles: 51809723 heartbeat IPC: 0.64139 cumulative IPC: 0.752109 (Simulation time: 0 hr 43 min 43 sec) 
Heartbeat CPU 0 instructions: 72000000 cycles: 53179661 heartbeat IPC: 0.72996 cumulative IPC: 0.751073 (Simulation time: 0 hr 44 min 25 sec) 
Heartbeat CPU 0 instructions: 73000001 cycles: 54463725 heartbeat IPC: 0.778778 cumulative IPC: 0.752236 (Simulation time: 0 hr 45 min 10 sec) 
Heartbeat CPU 0 instructions: 74000000 cycles: 55608015 heartbeat IPC: 0.873903 cumulative IPC: 0.756625 (Simulation time: 0 hr 46 min 2 sec) 
Heartbeat CPU 0 instructions: 75000001 cycles: 57020930 heartbeat IPC: 0.707757 cumulative IPC: 0.754541 (Simulation time: 0 hr 46 min 47 sec) 
Heartbeat CPU 0 instructions: 76000000 cycles: 58157537 heartbeat IPC: 0.879811 cumulative IPC: 0.758696 (Simulation time: 0 hr 47 min 22 sec) 
Heartbeat CPU 0 instructions: 77000003 cycles: 59333808 heartbeat IPC: 0.850147 cumulative IPC: 0.761731 (Simulation time: 0 hr 47 min 58 sec) 
Heartbeat CPU 0 instructions: 78000000 cycles: 60665621 heartbeat IPC: 0.750854 cumulative IPC: 0.761337 (Simulation time: 0 hr 48 min 29 sec) 
Heartbeat CPU 0 instructions: 79000000 cycles: 62008392 heartbeat IPC: 0.744729 cumulative IPC: 0.760752 (Simulation time: 0 hr 49 min 6 sec) 
Heartbeat CPU 0 instructions: 80000000 cycles: 63391498 heartbeat IPC: 0.72301 cumulative IPC: 0.759431 (Simulation time: 0 hr 49 min 37 sec) 
Heartbeat CPU 0 instructions: 81000000 cycles: 65080026 heartbeat IPC: 0.592232 cumulative IPC: 0.752577 (Simulation time: 0 hr 50 min 9 sec) 
Heartbeat CPU 0 instructions: 82000002 cycles: 66624151 heartbeat IPC: 0.647617 cumulative IPC: 0.748784 (Simulation time: 0 hr 50 min 43 sec) 
Heartbeat CPU 0 instructions: 83000000 cycles: 67771620 heartbeat IPC: 0.871481 cumulative IPC: 0.751993 (Simulation time: 0 hr 51 min 19 sec) 
Heartbeat CPU 0 instructions: 84000000 cycles: 68726870 heartbeat IPC: 1.04685 cumulative IPC: 0.758274 (Simulation time: 0 hr 51 min 52 sec) 
Heartbeat CPU 0 instructions: 85000002 cycles: 69771970 heartbeat IPC: 0.956848 cumulative IPC: 0.762797 (Simulation time: 0 hr 52 min 25 sec) 
Heartbeat CPU 0 instructions: 86000002 cycles: 70746758 heartbeat IPC: 1.02586 cumulative IPC: 0.76827 (Simulation time: 0 hr 52 min 57 sec) 
Heartbeat CPU 0 instructions: 87000001 cycles: 71744246 heartbeat IPC: 1.00252 cumulative IPC: 0.773152 (Simulation time: 0 hr 53 min 33 sec) 
Heartbeat CPU 0 instructions: 88000000 cycles: 73040596 heartbeat IPC: 0.771396 cumulative IPC: 0.773106 (Simulation time: 0 hr 54 min 6 sec) 
Heartbeat CPU 0 instructions: 89000000 cycles: 74546357 heartbeat IPC: 0.664116 cumulative IPC: 0.769866 (Simulation time: 0 hr 54 min 41 sec) 
Heartbeat CPU 0 instructions: 90000002 cycles: 76033894 heartbeat IPC: 0.672254 cumulative IPC: 0.767082 (Simulation time: 0 hr 55 min 13 sec) 
Heartbeat CPU 0 instructions: 91000000 cycles: 77731535 heartbeat IPC: 0.589051 cumulative IPC: 0.761469 (Simulation time: 0 hr 55 min 44 sec) 
Heartbeat CPU 0 instructions: 92000000 cycles: 79225466 heartbeat IPC: 0.669375 cumulative IPC: 0.758982 (Simulation time: 0 hr 56 min 16 sec) 
Heartbeat CPU 0 instructions: 93000001 cycles: 80482477 heartbeat IPC: 0.795539 cumulative IPC: 0.759794 (Simulation time: 0 hr 56 min 53 sec) 
Heartbeat CPU 0 instructions: 94000000 cycles: 82221555 heartbeat IPC: 0.575017 cumulative IPC: 0.754286 (Simulation time: 0 hr 57 min 24 sec) 
Heartbeat CPU 0 instructions: 95000002 cycles: 83837185 heartbeat IPC: 0.618955 cumulative IPC: 0.750638 (Simulation time: 0 hr 57 min 55 sec) 
Heartbeat CPU 0 instructions: 96000000 cycles: 85443873 heartbeat IPC: 0.622397 cumulative IPC: 0.747291 (Simulation time: 0 hr 58 min 26 sec) 
Heartbeat CPU 0 instructions: 97000000 cycles: 86849898 heartbeat IPC: 0.711225 cumulative IPC: 0.746486 (Simulation time: 0 hr 58 min 58 sec) 
Heartbeat CPU 0 instructions: 98000000 cycles: 88136121 heartbeat IPC: 0.77747 cumulative IPC: 0.747106 (Simulation time: 0 hr 59 min 30 sec) 
Heartbeat CPU 0 instructions: 99000003 cycles: 89268842 heartbeat IPC: 0.882833 cumulative IPC: 0.749458 (Simulation time: 1 hr 0 min 7 sec) 
Heartbeat CPU 0 instructions: 100000000 cycles: 90742892 heartbeat IPC: 0.678401 cumulative IPC: 0.747891 (Simulation time: 1 hr 0 min 40 sec) 
Heartbeat CPU 0 instructions: 101000000 cycles: 92251480 heartbeat IPC: 0.662871 cumulative IPC: 0.746015 (Simulation time: 1 hr 1 min 10 sec) 
Heartbeat CPU 0 instructions: 102000001 cycles: 93948112 heartbeat IPC: 0.589404 cumulative IPC: 0.742222 (Simulation time: 1 hr 1 min 41 sec) 
Heartbeat CPU 0 instructions: 103000002 cycles: 95269237 heartbeat IPC: 0.756931 cumulative IPC: 0.742494 (Simulation time: 1 hr 2 min 18 sec) 
Heartbeat CPU 0 instructions: 104000000 cycles: 96972244 heartbeat IPC: 0.587195 cumulative IPC: 0.738876 (Simulation time: 1 hr 2 min 49 sec) 
Heartbeat CPU 0 instructions: 105000002 cycles: 97951880 heartbeat IPC: 1.02079 cumulative IPC: 0.742604 (Simulation time: 1 hr 3 min 21 sec) 
Heartbeat CPU 0 instructions: 106000000 cycles: 99487363 heartbeat IPC: 0.65126 cumulative IPC: 0.740749 (Simulation time: 1 hr 3 min 52 sec) 
Heartbeat CPU 0 instructions: 107000002 cycles: 101049069 heartbeat IPC: 0.640327 cumulative IPC: 0.738717 (Simulation time: 1 hr 4 min 24 sec) 
Heartbeat CPU 0 instructions: 108000000 cycles: 102373609 heartbeat IPC: 0.754978 cumulative IPC: 0.738991 (Simulation time: 1 hr 5 min 3 sec) 
Heartbeat CPU 0 instructions: 109000002 cycles: 104077449 heartbeat IPC: 0.586911 cumulative IPC: 0.73576 (Simulation time: 1 hr 5 min 35 sec) 
Heartbeat CPU 0 instructions: 110000000 cycles: 105310829 heartbeat IPC: 0.810778 cumulative IPC: 0.736896 (Simulation time: 1 hr 6 min 7 sec) 
Heartbeat CPU 0 instructions: 111000001 cycles: 106769938 heartbeat IPC: 0.68535 cumulative IPC: 0.735989 (Simulation time: 1 hr 6 min 40 sec) 
Heartbeat CPU 0 instructions: 112000000 cycles: 107876405 heartbeat IPC: 0.903777 cumulative IPC: 0.738199 (Simulation time: 1 hr 7 min 12 sec) 
Heartbeat CPU 0 instructions: 113000001 cycles: 108880122 heartbeat IPC: 0.996298 cumulative IPC: 0.741247 (Simulation time: 1 hr 7 min 45 sec) 
Heartbeat CPU 0 instructions: 114000001 cycles: 109775797 heartbeat IPC: 1.11648 cumulative IPC: 0.74516 (Simulation time: 1 hr 8 min 17 sec) 
Heartbeat CPU 0 instructions: 115000002 cycles: 110702470 heartbeat IPC: 1.07913 cumulative IPC: 0.748725 (Simulation time: 1 hr 8 min 48 sec) 
Heartbeat CPU 0 instructions: 116000000 cycles: 111812205 heartbeat IPC: 0.901114 cumulative IPC: 0.750648 (Simulation time: 1 hr 9 min 25 sec) 
Heartbeat CPU 0 instructions: 117000003 cycles: 113410093 heartbeat IPC: 0.625828 cumulative IPC: 0.74842 (Simulation time: 1 hr 9 min 58 sec) 
Heartbeat CPU 0 instructions: 118000003 cycles: 114746633 heartbeat IPC: 0.748201 cumulative IPC: 0.748417 (Simulation time: 1 hr 10 min 30 sec) 
Heartbeat CPU 0 instructions: 119000000 cycles: 115739521 heartbeat IPC: 1.00716 cumulative IPC: 0.751214 (Simulation time: 1 hr 11 min 1 sec) 
Heartbeat CPU 0 instructions: 120000000 cycles: 116803229 heartbeat IPC: 0.940108 cumulative IPC: 0.753377 (Simulation time: 1 hr 11 min 34 sec) 
Heartbeat CPU 0 instructions: 121000001 cycles: 118355007 heartbeat IPC: 0.644423 cumulative IPC: 0.751587 (Simulation time: 1 hr 12 min 8 sec) 
Heartbeat CPU 0 instructions: 122000002 cycles: 119604307 heartbeat IPC: 0.800449 cumulative IPC: 0.752225 (Simulation time: 1 hr 12 min 46 sec) 
Heartbeat CPU 0 instructions: 123000000 cycles: 121241334 heartbeat IPC: 0.610862 cumulative IPC: 0.749848 (Simulation time: 1 hr 13 min 20 sec) 
Heartbeat CPU 0 instructions: 124000000 cycles: 122658147 heartbeat IPC: 0.705809 cumulative IPC: 0.749216 (Simulation time: 1 hr 13 min 53 sec) 
Heartbeat CPU 0 instructions: 125000003 cycles: 124001034 heartbeat IPC: 0.744667 cumulative IPC: 0.749155 (Simulation time: 1 hr 14 min 25 sec) 
Heartbeat CPU 0 instructions: 126000000 cycles: 125016004 heartbeat IPC: 0.985248 cumulative IPC: 0.751524 (Simulation time: 1 hr 15 min 5 sec) 
Heartbeat CPU 0 instructions: 127000001 cycles: 126631502 heartbeat IPC: 0.619005 cumulative IPC: 0.749441 (Simulation time: 1 hr 15 min 41 sec) 
Heartbeat CPU 0 instructions: 128000000 cycles: 128260801 heartbeat IPC: 0.61376 cumulative IPC: 0.747323 (Simulation time: 1 hr 16 min 13 sec) 
Heartbeat CPU 0 instructions: 129000000 cycles: 129938731 heartbeat IPC: 0.595972 cumulative IPC: 0.744928 (Simulation time: 1 hr 16 min 44 sec) 
Heartbeat CPU 0 instructions: 130000002 cycles: 131179441 heartbeat IPC: 0.805992 cumulative IPC: 0.745634 (Simulation time: 1 hr 17 min 27 sec) 
Heartbeat CPU 0 instructions: 131000000 cycles: 132214634 heartbeat IPC: 0.966002 cumulative IPC: 0.74774 (Simulation time: 1 hr 18 min 5 sec) 
Heartbeat CPU 0 instructions: 132000000 cycles: 133419188 heartbeat IPC: 0.830183 cumulative IPC: 0.748647 (Simulation time: 1 hr 18 min 45 sec) 
Heartbeat CPU 0 instructions: 133000001 cycles: 134357353 heartbeat IPC: 1.06591 cumulative IPC: 0.751341 (Simulation time: 1 hr 19 min 20 sec) 
Heartbeat CPU 0 instructions: 134000000 cycles: 135477062 heartbeat IPC: 0.893088 cumulative IPC: 0.752763 (Simulation time: 1 hr 19 min 53 sec) 
Heartbeat CPU 0 instructions: 135000002 cycles: 136464343 heartbeat IPC: 1.01288 cumulative IPC: 0.755045 (Simulation time: 1 hr 20 min 27 sec) 
Heartbeat CPU 0 instructions: 136000000 cycles: 137370045 heartbeat IPC: 1.10411 cumulative IPC: 0.757831 (Simulation time: 1 hr 20 min 57 sec) 
Heartbeat CPU 0 instructions: 137000000 cycles: 138317819 heartbeat IPC: 1.0551 cumulative IPC: 0.760293 (Simulation time: 1 hr 21 min 25 sec) 
Heartbeat CPU 0 instructions: 138000000 cycles: 139199113 heartbeat IPC: 1.1347 cumulative IPC: 0.763154 (Simulation time: 1 hr 21 min 51 sec) 
Heartbeat CPU 0 instructions: 139000002 cycles: 139986991 heartbeat IPC: 1.26923 cumulative IPC: 0.766589 (Simulation time: 1 hr 22 min 19 sec) 
Heartbeat CPU 0 instructions: 140000000 cycles: 140743273 heartbeat IPC: 1.32226 cumulative IPC: 0.770185 (Simulation time: 1 hr 22 min 47 sec) 
Heartbeat CPU 0 instructions: 141000003 cycles: 141537967 heartbeat IPC: 1.25835 cumulative IPC: 0.773482 (Simulation time: 1 hr 23 min 14 sec) 
Heartbeat CPU 0 instructions: 142000003 cycles: 142332380 heartbeat IPC: 1.25879 cumulative IPC: 0.776737 (Simulation time: 1 hr 23 min 40 sec) 
Heartbeat CPU 0 instructions: 143000002 cycles: 143122102 heartbeat IPC: 1.26627 cumulative IPC: 0.77998 (Simulation time: 1 hr 24 min 2 sec) 
Heartbeat CPU 0 instructions: 144000000 cycles: 143889590 heartbeat IPC: 1.30295 cumulative IPC: 0.783324 (Simulation time: 1 hr 24 min 23 sec) 
Heartbeat CPU 0 instructions: 145000002 cycles: 144609750 heartbeat IPC: 1.38858 cumulative IPC: 0.786935 (Simulation time: 1 hr 24 min 45 sec) 
Heartbeat CPU 0 instructions: 146000002 cycles: 145335519 heartbeat IPC: 1.37785 cumulative IPC: 0.790466 (Simulation time: 1 hr 25 min 7 sec) 
Heartbeat CPU 0 instructions: 147000003 cycles: 146060647 heartbeat IPC: 1.37907 cumulative IPC: 0.79396 (Simulation time: 1 hr 25 min 31 sec) 
Heartbeat CPU 0 instructions: 148000000 cycles: 146795602 heartbeat IPC: 1.36062 cumulative IPC: 0.797348 (Simulation time: 1 hr 25 min 54 sec) 
Heartbeat CPU 0 instructions: 149000003 cycles: 147549360 heartbeat IPC: 1.32669 cumulative IPC: 0.800575 (Simulation time: 1 hr 26 min 17 sec) 
Heartbeat CPU 0 instructions: 150000000 cycles: 148376369 heartbeat IPC: 1.20917 cumulative IPC: 0.803289 (Simulation time: 1 hr 26 min 40 sec) 
Finished CPU 0 instructions: 100000003 cycles: 124488150 cummulative IPC: 0.803289 (Simulation time: 1 hr 26 min 40 sec) 

ChampSim completed all CPUs

Region of Interest Statistics

CPU 0 cummulative IPC: 0.803289 instructions: 100000003 cycles: 124488150
LLC TOTAL     ACCESS:    1933434  HIT:    1764066  MISS:     169368
LLC LOAD      ACCESS:     554455  HIT:     533846  MISS:      20609
LLC RFO       ACCESS:     322494  HIT:     260829  MISS:      61665
LLC PREFETCH  ACCESS:     708161  HIT:     622924  MISS:      85237
LLC WRITEBACK ACCESS:     348324  HIT:     346467  MISS:       1857
OPTgen accesses: 3843
OPTgen hits: 4531
OPTgen hit rate: 117.903


