
*** ChampSim Multicore Out-of-Order Simulator ***

Warmup Instructions: 50000000
Simulation Instructions: 100000000
Configuration: 2
Number of CPUs: 1
LLC sets: 2048
LLC ways: 16
Off-chip DRAM Channels: 1 Width: 64-bit Data Rate: 1600 MT/s

CPU 0 runs /datasets/cs240c-wi22-a00-public/data/Assignment2-gz/omnetpp_340B.trace.gz
CPU 0 L1D next line prefetcher
CPU 0 L2C IP-based stride prefetcher
Initialize Hawkeye state
Heartbeat CPU 0 instructions: 1000001 cycles: 576946 heartbeat IPC: 1.73327 cumulative IPC: 1.73327 (Simulation time: 0 hr 0 min 44 sec) 
Heartbeat CPU 0 instructions: 2000000 cycles: 1160849 heartbeat IPC: 1.71261 cumulative IPC: 1.72288 (Simulation time: 0 hr 1 min 29 sec) 
Heartbeat CPU 0 instructions: 3000001 cycles: 1758209 heartbeat IPC: 1.67403 cumulative IPC: 1.70628 (Simulation time: 0 hr 2 min 9 sec) 
Heartbeat CPU 0 instructions: 4000000 cycles: 2379330 heartbeat IPC: 1.60999 cumulative IPC: 1.68115 (Simulation time: 0 hr 2 min 57 sec) 
Heartbeat CPU 0 instructions: 5000002 cycles: 2954805 heartbeat IPC: 1.7377 cumulative IPC: 1.69216 (Simulation time: 0 hr 3 min 37 sec) 
Heartbeat CPU 0 instructions: 6000003 cycles: 3556348 heartbeat IPC: 1.66239 cumulative IPC: 1.68712 (Simulation time: 0 hr 4 min 20 sec) 
Heartbeat CPU 0 instructions: 7000003 cycles: 4205797 heartbeat IPC: 1.53977 cumulative IPC: 1.66437 (Simulation time: 0 hr 5 min 2 sec) 
Heartbeat CPU 0 instructions: 8000000 cycles: 4800386 heartbeat IPC: 1.68183 cumulative IPC: 1.66653 (Simulation time: 0 hr 5 min 45 sec) 
Heartbeat CPU 0 instructions: 9000002 cycles: 5433679 heartbeat IPC: 1.57905 cumulative IPC: 1.65634 (Simulation time: 0 hr 6 min 28 sec) 
Heartbeat CPU 0 instructions: 10000002 cycles: 6028325 heartbeat IPC: 1.68167 cumulative IPC: 1.65884 (Simulation time: 0 hr 7 min 7 sec) 
Heartbeat CPU 0 instructions: 11000003 cycles: 6627639 heartbeat IPC: 1.66858 cumulative IPC: 1.65972 (Simulation time: 0 hr 7 min 52 sec) 
Heartbeat CPU 0 instructions: 12000000 cycles: 7230064 heartbeat IPC: 1.65995 cumulative IPC: 1.65974 (Simulation time: 0 hr 8 min 32 sec) 
Heartbeat CPU 0 instructions: 13000002 cycles: 7833498 heartbeat IPC: 1.65719 cumulative IPC: 1.65954 (Simulation time: 0 hr 9 min 12 sec) 
Heartbeat CPU 0 instructions: 14000000 cycles: 8429241 heartbeat IPC: 1.67857 cumulative IPC: 1.66088 (Simulation time: 0 hr 9 min 53 sec) 
Heartbeat CPU 0 instructions: 15000001 cycles: 9020829 heartbeat IPC: 1.69037 cumulative IPC: 1.66282 (Simulation time: 0 hr 10 min 35 sec) 
Heartbeat CPU 0 instructions: 16000000 cycles: 9643877 heartbeat IPC: 1.60501 cumulative IPC: 1.65908 (Simulation time: 0 hr 11 min 21 sec) 
Heartbeat CPU 0 instructions: 17000000 cycles: 10249640 heartbeat IPC: 1.65081 cumulative IPC: 1.65859 (Simulation time: 0 hr 12 min 4 sec) 
Heartbeat CPU 0 instructions: 18000002 cycles: 10869922 heartbeat IPC: 1.61217 cumulative IPC: 1.65595 (Simulation time: 0 hr 12 min 50 sec) 
Heartbeat CPU 0 instructions: 19000000 cycles: 11501642 heartbeat IPC: 1.58298 cumulative IPC: 1.65194 (Simulation time: 0 hr 13 min 41 sec) 
Heartbeat CPU 0 instructions: 20000000 cycles: 12087831 heartbeat IPC: 1.70593 cumulative IPC: 1.65456 (Simulation time: 0 hr 14 min 28 sec) 
Heartbeat CPU 0 instructions: 21000000 cycles: 12685320 heartbeat IPC: 1.67367 cumulative IPC: 1.65546 (Simulation time: 0 hr 15 min 11 sec) 
Heartbeat CPU 0 instructions: 22000001 cycles: 13299723 heartbeat IPC: 1.6276 cumulative IPC: 1.65417 (Simulation time: 0 hr 15 min 58 sec) 
Heartbeat CPU 0 instructions: 23000001 cycles: 13921632 heartbeat IPC: 1.60795 cumulative IPC: 1.65211 (Simulation time: 0 hr 16 min 47 sec) 
Heartbeat CPU 0 instructions: 24000000 cycles: 14544581 heartbeat IPC: 1.60527 cumulative IPC: 1.6501 (Simulation time: 0 hr 17 min 35 sec) 
Heartbeat CPU 0 instructions: 25000001 cycles: 15161575 heartbeat IPC: 1.62076 cumulative IPC: 1.64891 (Simulation time: 0 hr 18 min 23 sec) 
Heartbeat CPU 0 instructions: 26000001 cycles: 15752522 heartbeat IPC: 1.6922 cumulative IPC: 1.65053 (Simulation time: 0 hr 19 min 9 sec) 
Heartbeat CPU 0 instructions: 27000000 cycles: 16323338 heartbeat IPC: 1.75188 cumulative IPC: 1.65407 (Simulation time: 0 hr 19 min 53 sec) 
Heartbeat CPU 0 instructions: 28000000 cycles: 16918853 heartbeat IPC: 1.67922 cumulative IPC: 1.65496 (Simulation time: 0 hr 20 min 41 sec) 
Heartbeat CPU 0 instructions: 29000003 cycles: 17542455 heartbeat IPC: 1.60359 cumulative IPC: 1.65313 (Simulation time: 0 hr 21 min 23 sec) 
Heartbeat CPU 0 instructions: 30000003 cycles: 18119574 heartbeat IPC: 1.73274 cumulative IPC: 1.65567 (Simulation time: 0 hr 22 min 8 sec) 
Heartbeat CPU 0 instructions: 31000001 cycles: 18728402 heartbeat IPC: 1.6425 cumulative IPC: 1.65524 (Simulation time: 0 hr 22 min 52 sec) 
Heartbeat CPU 0 instructions: 32000000 cycles: 19333759 heartbeat IPC: 1.65192 cumulative IPC: 1.65514 (Simulation time: 0 hr 23 min 39 sec) 
Heartbeat CPU 0 instructions: 33000001 cycles: 19913795 heartbeat IPC: 1.72403 cumulative IPC: 1.65714 (Simulation time: 0 hr 24 min 24 sec) 
Heartbeat CPU 0 instructions: 34000001 cycles: 20564698 heartbeat IPC: 1.53633 cumulative IPC: 1.65332 (Simulation time: 0 hr 25 min 9 sec) 
Heartbeat CPU 0 instructions: 35000002 cycles: 21145035 heartbeat IPC: 1.72314 cumulative IPC: 1.65524 (Simulation time: 0 hr 25 min 54 sec) 
Heartbeat CPU 0 instructions: 36000000 cycles: 21754426 heartbeat IPC: 1.64098 cumulative IPC: 1.65484 (Simulation time: 0 hr 26 min 39 sec) 
Heartbeat CPU 0 instructions: 37000002 cycles: 22393415 heartbeat IPC: 1.56498 cumulative IPC: 1.65227 (Simulation time: 0 hr 27 min 23 sec) 
Heartbeat CPU 0 instructions: 38000000 cycles: 22976345 heartbeat IPC: 1.71547 cumulative IPC: 1.65387 (Simulation time: 0 hr 28 min 7 sec) 
Heartbeat CPU 0 instructions: 39000001 cycles: 23644975 heartbeat IPC: 1.4956 cumulative IPC: 1.6494 (Simulation time: 0 hr 28 min 51 sec) 
Heartbeat CPU 0 instructions: 40000000 cycles: 24234798 heartbeat IPC: 1.69542 cumulative IPC: 1.65052 (Simulation time: 0 hr 29 min 35 sec) 
Heartbeat CPU 0 instructions: 41000000 cycles: 24823202 heartbeat IPC: 1.69951 cumulative IPC: 1.65168 (Simulation time: 0 hr 30 min 18 sec) 
Heartbeat CPU 0 instructions: 42000001 cycles: 25450951 heartbeat IPC: 1.59299 cumulative IPC: 1.65023 (Simulation time: 0 hr 31 min 1 sec) 
Heartbeat CPU 0 instructions: 43000003 cycles: 26056911 heartbeat IPC: 1.65028 cumulative IPC: 1.65023 (Simulation time: 0 hr 31 min 45 sec) 
Heartbeat CPU 0 instructions: 44000000 cycles: 26610598 heartbeat IPC: 1.80607 cumulative IPC: 1.65348 (Simulation time: 0 hr 32 min 36 sec) 
Heartbeat CPU 0 instructions: 45000003 cycles: 27170082 heartbeat IPC: 1.78737 cumulative IPC: 1.65623 (Simulation time: 0 hr 33 min 25 sec) 
Heartbeat CPU 0 instructions: 46000001 cycles: 27785319 heartbeat IPC: 1.62539 cumulative IPC: 1.65555 (Simulation time: 0 hr 34 min 15 sec) 
Heartbeat CPU 0 instructions: 47000000 cycles: 28358780 heartbeat IPC: 1.7438 cumulative IPC: 1.65734 (Simulation time: 0 hr 35 min 3 sec) 
Heartbeat CPU 0 instructions: 48000000 cycles: 28960909 heartbeat IPC: 1.66077 cumulative IPC: 1.65741 (Simulation time: 0 hr 35 min 53 sec) 
Heartbeat CPU 0 instructions: 49000000 cycles: 29540571 heartbeat IPC: 1.72514 cumulative IPC: 1.65874 (Simulation time: 0 hr 36 min 37 sec) 
Heartbeat CPU 0 instructions: 50000000 cycles: 30183938 heartbeat IPC: 1.55432 cumulative IPC: 1.65651 (Simulation time: 0 hr 37 min 27 sec) 

Warmup complete CPU 0 instructions: 50000004 cycles: 30183939 (Simulation time: 0 hr 37 min 27 sec) 

Heartbeat CPU 0 instructions: 51000003 cycles: 34001661 heartbeat IPC: 0.261937 cumulative IPC: 0.261936 (Simulation time: 0 hr 38 min 33 sec) 
Heartbeat CPU 0 instructions: 52000000 cycles: 38033139 heartbeat IPC: 0.248047 cumulative IPC: 0.254803 (Simulation time: 0 hr 39 min 37 sec) 
Heartbeat CPU 0 instructions: 53000000 cycles: 42574655 heartbeat IPC: 0.220191 cumulative IPC: 0.242116 (Simulation time: 0 hr 40 min 35 sec) 
Heartbeat CPU 0 instructions: 54000002 cycles: 46680538 heartbeat IPC: 0.243553 cumulative IPC: 0.242474 (Simulation time: 0 hr 41 min 40 sec) 
Heartbeat CPU 0 instructions: 55000001 cycles: 50532572 heartbeat IPC: 0.259603 cumulative IPC: 0.245717 (Simulation time: 0 hr 42 min 45 sec) 
Heartbeat CPU 0 instructions: 56000000 cycles: 54809212 heartbeat IPC: 0.233828 cumulative IPC: 0.243652 (Simulation time: 0 hr 43 min 44 sec) 
Heartbeat CPU 0 instructions: 57000001 cycles: 58871665 heartbeat IPC: 0.246157 cumulative IPC: 0.244007 (Simulation time: 0 hr 44 min 44 sec) 
Heartbeat CPU 0 instructions: 58000000 cycles: 62083146 heartbeat IPC: 0.311383 cumulative IPC: 0.25079 (Simulation time: 0 hr 45 min 42 sec) 
Heartbeat CPU 0 instructions: 59000003 cycles: 65955371 heartbeat IPC: 0.25825 cumulative IPC: 0.251597 (Simulation time: 0 hr 46 min 43 sec) 
Heartbeat CPU 0 instructions: 60000000 cycles: 70316231 heartbeat IPC: 0.229312 cumulative IPC: 0.249176 (Simulation time: 0 hr 47 min 47 sec) 
Heartbeat CPU 0 instructions: 61000001 cycles: 74702831 heartbeat IPC: 0.227967 cumulative IPC: 0.247086 (Simulation time: 0 hr 48 min 50 sec) 
Heartbeat CPU 0 instructions: 62000000 cycles: 79106113 heartbeat IPC: 0.227103 cumulative IPC: 0.245287 (Simulation time: 0 hr 49 min 57 sec) 
Heartbeat CPU 0 instructions: 63000001 cycles: 82813658 heartbeat IPC: 0.269721 cumulative IPC: 0.247009 (Simulation time: 0 hr 50 min 54 sec) 
Heartbeat CPU 0 instructions: 64000000 cycles: 86622990 heartbeat IPC: 0.262513 cumulative IPC: 0.248055 (Simulation time: 0 hr 51 min 52 sec) 
Heartbeat CPU 0 instructions: 65000001 cycles: 90077811 heartbeat IPC: 0.289451 cumulative IPC: 0.250443 (Simulation time: 0 hr 52 min 50 sec) 
Heartbeat CPU 0 instructions: 66000002 cycles: 94116005 heartbeat IPC: 0.247636 cumulative IPC: 0.250266 (Simulation time: 0 hr 53 min 48 sec) 
Heartbeat CPU 0 instructions: 67000002 cycles: 97969564 heartbeat IPC: 0.2595 cumulative IPC: 0.250791 (Simulation time: 0 hr 54 min 44 sec) 
Heartbeat CPU 0 instructions: 68000000 cycles: 101809175 heartbeat IPC: 0.260443 cumulative IPC: 0.251308 (Simulation time: 0 hr 55 min 41 sec) 
Heartbeat CPU 0 instructions: 69000000 cycles: 105825512 heartbeat IPC: 0.248983 cumulative IPC: 0.251185 (Simulation time: 0 hr 56 min 40 sec) 
Heartbeat CPU 0 instructions: 70000001 cycles: 109551788 heartbeat IPC: 0.268365 cumulative IPC: 0.251991 (Simulation time: 0 hr 57 min 34 sec) 
Heartbeat CPU 0 instructions: 71000003 cycles: 113445269 heartbeat IPC: 0.25684 cumulative IPC: 0.252218 (Simulation time: 0 hr 58 min 34 sec) 
Heartbeat CPU 0 instructions: 72000000 cycles: 117799757 heartbeat IPC: 0.229647 cumulative IPC: 0.251096 (Simulation time: 0 hr 59 min 37 sec) 
Heartbeat CPU 0 instructions: 73000002 cycles: 121780717 heartbeat IPC: 0.251196 cumulative IPC: 0.251101 (Simulation time: 1 hr 0 min 34 sec) 
Heartbeat CPU 0 instructions: 74000000 cycles: 125580172 heartbeat IPC: 0.263195 cumulative IPC: 0.251582 (Simulation time: 1 hr 1 min 34 sec) 
Heartbeat CPU 0 instructions: 75000003 cycles: 129611183 heartbeat IPC: 0.248077 cumulative IPC: 0.25144 (Simulation time: 1 hr 2 min 37 sec) 
Heartbeat CPU 0 instructions: 76000000 cycles: 133443879 heartbeat IPC: 0.260912 cumulative IPC: 0.251792 (Simulation time: 1 hr 3 min 37 sec) 
Heartbeat CPU 0 instructions: 77000002 cycles: 138084595 heartbeat IPC: 0.215484 cumulative IPC: 0.25023 (Simulation time: 1 hr 4 min 40 sec) 
Heartbeat CPU 0 instructions: 78000003 cycles: 141908965 heartbeat IPC: 0.261481 cumulative IPC: 0.250615 (Simulation time: 1 hr 5 min 38 sec) 
Heartbeat CPU 0 instructions: 79000002 cycles: 145780527 heartbeat IPC: 0.258293 cumulative IPC: 0.250872 (Simulation time: 1 hr 6 min 33 sec) 
Heartbeat CPU 0 instructions: 80000000 cycles: 149574566 heartbeat IPC: 0.263571 cumulative IPC: 0.251276 (Simulation time: 1 hr 7 min 31 sec) 
Heartbeat CPU 0 instructions: 81000002 cycles: 153633927 heartbeat IPC: 0.246345 cumulative IPC: 0.251114 (Simulation time: 1 hr 8 min 33 sec) 
Heartbeat CPU 0 instructions: 82000000 cycles: 158160950 heartbeat IPC: 0.220895 cumulative IPC: 0.250045 (Simulation time: 1 hr 9 min 30 sec) 
Heartbeat CPU 0 instructions: 83000002 cycles: 161864077 heartbeat IPC: 0.270043 cumulative IPC: 0.250607 (Simulation time: 1 hr 10 min 29 sec) 
Heartbeat CPU 0 instructions: 84000000 cycles: 165777335 heartbeat IPC: 0.255541 cumulative IPC: 0.25075 (Simulation time: 1 hr 11 min 27 sec) 
Heartbeat CPU 0 instructions: 85000000 cycles: 169612026 heartbeat IPC: 0.260777 cumulative IPC: 0.251025 (Simulation time: 1 hr 12 min 24 sec) 
Heartbeat CPU 0 instructions: 86000000 cycles: 173590964 heartbeat IPC: 0.251323 cumulative IPC: 0.251034 (Simulation time: 1 hr 13 min 22 sec) 
Heartbeat CPU 0 instructions: 87000001 cycles: 177313647 heartbeat IPC: 0.268624 cumulative IPC: 0.251479 (Simulation time: 1 hr 14 min 19 sec) 
Heartbeat CPU 0 instructions: 88000000 cycles: 181129957 heartbeat IPC: 0.262033 cumulative IPC: 0.251746 (Simulation time: 1 hr 15 min 20 sec) 
Heartbeat CPU 0 instructions: 89000003 cycles: 184665896 heartbeat IPC: 0.282811 cumulative IPC: 0.252457 (Simulation time: 1 hr 16 min 17 sec) 
Heartbeat CPU 0 instructions: 90000000 cycles: 188531522 heartbeat IPC: 0.25869 cumulative IPC: 0.252609 (Simulation time: 1 hr 17 min 13 sec) 
Heartbeat CPU 0 instructions: 91000001 cycles: 192198601 heartbeat IPC: 0.272697 cumulative IPC: 0.253063 (Simulation time: 1 hr 18 min 8 sec) 
Heartbeat CPU 0 instructions: 92000000 cycles: 196211808 heartbeat IPC: 0.249177 cumulative IPC: 0.25297 (Simulation time: 1 hr 19 min 1 sec) 
Heartbeat CPU 0 instructions: 93000001 cycles: 200452070 heartbeat IPC: 0.235835 cumulative IPC: 0.252543 (Simulation time: 1 hr 20 min 3 sec) 
Heartbeat CPU 0 instructions: 94000001 cycles: 204205173 heartbeat IPC: 0.266446 cumulative IPC: 0.252843 (Simulation time: 1 hr 20 min 59 sec) 
Heartbeat CPU 0 instructions: 95000000 cycles: 208174672 heartbeat IPC: 0.251921 cumulative IPC: 0.252822 (Simulation time: 1 hr 21 min 55 sec) 
Heartbeat CPU 0 instructions: 96000000 cycles: 212478188 heartbeat IPC: 0.232368 cumulative IPC: 0.252339 (Simulation time: 1 hr 22 min 49 sec) 
Heartbeat CPU 0 instructions: 97000000 cycles: 216097058 heartbeat IPC: 0.276329 cumulative IPC: 0.252806 (Simulation time: 1 hr 23 min 39 sec) 
Heartbeat CPU 0 instructions: 98000000 cycles: 220260223 heartbeat IPC: 0.240202 cumulative IPC: 0.25253 (Simulation time: 1 hr 24 min 32 sec) 
Heartbeat CPU 0 instructions: 99000000 cycles: 224772695 heartbeat IPC: 0.221608 cumulative IPC: 0.251813 (Simulation time: 1 hr 25 min 18 sec) 
Heartbeat CPU 0 instructions: 100000000 cycles: 228824256 heartbeat IPC: 0.246818 cumulative IPC: 0.251711 (Simulation time: 1 hr 25 min 58 sec) 
Heartbeat CPU 0 instructions: 101000000 cycles: 232694322 heartbeat IPC: 0.258394 cumulative IPC: 0.251839 (Simulation time: 1 hr 26 min 43 sec) 
Heartbeat CPU 0 instructions: 102000003 cycles: 236916499 heartbeat IPC: 0.236845 cumulative IPC: 0.251533 (Simulation time: 1 hr 27 min 22 sec) 
Heartbeat CPU 0 instructions: 103000000 cycles: 240714863 heartbeat IPC: 0.26327 cumulative IPC: 0.251744 (Simulation time: 1 hr 27 min 59 sec) 
Heartbeat CPU 0 instructions: 104000000 cycles: 244467873 heartbeat IPC: 0.266453 cumulative IPC: 0.252002 (Simulation time: 1 hr 28 min 37 sec) 
Heartbeat CPU 0 instructions: 105000003 cycles: 248564424 heartbeat IPC: 0.244109 cumulative IPC: 0.251854 (Simulation time: 1 hr 29 min 14 sec) 
Heartbeat CPU 0 instructions: 106000001 cycles: 252201619 heartbeat IPC: 0.274937 cumulative IPC: 0.252232 (Simulation time: 1 hr 29 min 46 sec) 
Heartbeat CPU 0 instructions: 107000000 cycles: 256335551 heartbeat IPC: 0.2419 cumulative IPC: 0.252043 (Simulation time: 1 hr 30 min 21 sec) 
Heartbeat CPU 0 instructions: 108000000 cycles: 260315776 heartbeat IPC: 0.251242 cumulative IPC: 0.252029 (Simulation time: 1 hr 30 min 57 sec) 
Heartbeat CPU 0 instructions: 109000000 cycles: 264785975 heartbeat IPC: 0.223704 cumulative IPC: 0.25149 (Simulation time: 1 hr 31 min 30 sec) 
Heartbeat CPU 0 instructions: 110000000 cycles: 268387279 heartbeat IPC: 0.277677 cumulative IPC: 0.251886 (Simulation time: 1 hr 32 min 3 sec) 
Heartbeat CPU 0 instructions: 111000002 cycles: 272828328 heartbeat IPC: 0.225172 cumulative IPC: 0.251397 (Simulation time: 1 hr 32 min 35 sec) 
Heartbeat CPU 0 instructions: 112000000 cycles: 276741269 heartbeat IPC: 0.255562 cumulative IPC: 0.251463 (Simulation time: 1 hr 33 min 5 sec) 
Heartbeat CPU 0 instructions: 113000002 cycles: 280342215 heartbeat IPC: 0.277705 cumulative IPC: 0.251841 (Simulation time: 1 hr 33 min 36 sec) 
Heartbeat CPU 0 instructions: 114000000 cycles: 283825398 heartbeat IPC: 0.287093 cumulative IPC: 0.252325 (Simulation time: 1 hr 34 min 9 sec) 
Heartbeat CPU 0 instructions: 115000000 cycles: 287562639 heartbeat IPC: 0.267577 cumulative IPC: 0.252546 (Simulation time: 1 hr 34 min 38 sec) 
Heartbeat CPU 0 instructions: 116000000 cycles: 291721879 heartbeat IPC: 0.240429 cumulative IPC: 0.252353 (Simulation time: 1 hr 35 min 10 sec) 
Heartbeat CPU 0 instructions: 117000000 cycles: 295469815 heartbeat IPC: 0.266814 cumulative IPC: 0.252558 (Simulation time: 1 hr 35 min 37 sec) 
Heartbeat CPU 0 instructions: 118000000 cycles: 299171131 heartbeat IPC: 0.270174 cumulative IPC: 0.2528 (Simulation time: 1 hr 36 min 3 sec) 
Heartbeat CPU 0 instructions: 119000003 cycles: 303028811 heartbeat IPC: 0.259224 cumulative IPC: 0.252891 (Simulation time: 1 hr 36 min 27 sec) 
Heartbeat CPU 0 instructions: 120000000 cycles: 306741476 heartbeat IPC: 0.269347 cumulative IPC: 0.253112 (Simulation time: 1 hr 36 min 49 sec) 
Heartbeat CPU 0 instructions: 121000001 cycles: 310285664 heartbeat IPC: 0.282152 cumulative IPC: 0.253479 (Simulation time: 1 hr 37 min 11 sec) 
Heartbeat CPU 0 instructions: 122000001 cycles: 314053932 heartbeat IPC: 0.265374 cumulative IPC: 0.253637 (Simulation time: 1 hr 37 min 34 sec) 
Heartbeat CPU 0 instructions: 123000000 cycles: 317670269 heartbeat IPC: 0.276523 cumulative IPC: 0.253925 (Simulation time: 1 hr 37 min 54 sec) 
Heartbeat CPU 0 instructions: 124000000 cycles: 321327896 heartbeat IPC: 0.273401 cumulative IPC: 0.25417 (Simulation time: 1 hr 38 min 14 sec) 
Heartbeat CPU 0 instructions: 125000001 cycles: 325092624 heartbeat IPC: 0.265624 cumulative IPC: 0.254316 (Simulation time: 1 hr 38 min 33 sec) 
Heartbeat CPU 0 instructions: 126000003 cycles: 328772557 heartbeat IPC: 0.271745 cumulative IPC: 0.254531 (Simulation time: 1 hr 38 min 52 sec) 
Heartbeat CPU 0 instructions: 127000001 cycles: 332244574 heartbeat IPC: 0.288016 cumulative IPC: 0.254916 (Simulation time: 1 hr 39 min 9 sec) 
Heartbeat CPU 0 instructions: 128000000 cycles: 335820752 heartbeat IPC: 0.279628 cumulative IPC: 0.255205 (Simulation time: 1 hr 39 min 28 sec) 
Heartbeat CPU 0 instructions: 129000001 cycles: 339146041 heartbeat IPC: 0.300726 cumulative IPC: 0.255695 (Simulation time: 1 hr 39 min 44 sec) 
Heartbeat CPU 0 instructions: 130000000 cycles: 342833345 heartbeat IPC: 0.271201 cumulative IPC: 0.255878 (Simulation time: 1 hr 40 min 0 sec) 
Heartbeat CPU 0 instructions: 131000000 cycles: 346550330 heartbeat IPC: 0.269035 cumulative IPC: 0.256032 (Simulation time: 1 hr 40 min 15 sec) 
Heartbeat CPU 0 instructions: 132000000 cycles: 350405798 heartbeat IPC: 0.259372 cumulative IPC: 0.256072 (Simulation time: 1 hr 40 min 29 sec) 
Heartbeat CPU 0 instructions: 133000003 cycles: 354357326 heartbeat IPC: 0.253067 cumulative IPC: 0.256036 (Simulation time: 1 hr 40 min 42 sec) 
Heartbeat CPU 0 instructions: 134000000 cycles: 358402974 heartbeat IPC: 0.247178 cumulative IPC: 0.255927 (Simulation time: 1 hr 40 min 56 sec) 
Heartbeat CPU 0 instructions: 135000001 cycles: 362181597 heartbeat IPC: 0.264647 cumulative IPC: 0.256026 (Simulation time: 1 hr 41 min 8 sec) 
Heartbeat CPU 0 instructions: 136000000 cycles: 365891681 heartbeat IPC: 0.269535 cumulative IPC: 0.256175 (Simulation time: 1 hr 41 min 19 sec) 
Heartbeat CPU 0 instructions: 137000000 cycles: 369698666 heartbeat IPC: 0.262675 cumulative IPC: 0.256248 (Simulation time: 1 hr 41 min 31 sec) 
Heartbeat CPU 0 instructions: 138000000 cycles: 373494417 heartbeat IPC: 0.263452 cumulative IPC: 0.256328 (Simulation time: 1 hr 41 min 43 sec) 
Heartbeat CPU 0 instructions: 139000000 cycles: 377470853 heartbeat IPC: 0.251481 cumulative IPC: 0.256272 (Simulation time: 1 hr 41 min 54 sec) 
Heartbeat CPU 0 instructions: 140000000 cycles: 381010669 heartbeat IPC: 0.282501 cumulative IPC: 0.256537 (Simulation time: 1 hr 42 min 4 sec) 
Heartbeat CPU 0 instructions: 141000001 cycles: 385305969 heartbeat IPC: 0.232813 cumulative IPC: 0.25625 (Simulation time: 1 hr 42 min 11 sec) 
Heartbeat CPU 0 instructions: 142000000 cycles: 389341234 heartbeat IPC: 0.247815 cumulative IPC: 0.256155 (Simulation time: 1 hr 42 min 18 sec) 
Heartbeat CPU 0 instructions: 143000000 cycles: 393469487 heartbeat IPC: 0.242233 cumulative IPC: 0.255997 (Simulation time: 1 hr 42 min 24 sec) 
Heartbeat CPU 0 instructions: 144000000 cycles: 397499860 heartbeat IPC: 0.248116 cumulative IPC: 0.25591 (Simulation time: 1 hr 42 min 29 sec) 
Heartbeat CPU 0 instructions: 145000001 cycles: 400809844 heartbeat IPC: 0.302117 cumulative IPC: 0.256323 (Simulation time: 1 hr 42 min 34 sec) 
Heartbeat CPU 0 instructions: 146000001 cycles: 404985236 heartbeat IPC: 0.239498 cumulative IPC: 0.256136 (Simulation time: 1 hr 42 min 40 sec) 
Heartbeat CPU 0 instructions: 147000002 cycles: 409142845 heartbeat IPC: 0.240523 cumulative IPC: 0.255964 (Simulation time: 1 hr 42 min 45 sec) 
Heartbeat CPU 0 instructions: 148000000 cycles: 412913247 heartbeat IPC: 0.265223 cumulative IPC: 0.256056 (Simulation time: 1 hr 42 min 51 sec) 
Heartbeat CPU 0 instructions: 149000000 cycles: 416636435 heartbeat IPC: 0.268587 cumulative IPC: 0.256176 (Simulation time: 1 hr 42 min 57 sec) 
Heartbeat CPU 0 instructions: 150000000 cycles: 419861952 heartbeat IPC: 0.310028 cumulative IPC: 0.256622 (Simulation time: 1 hr 43 min 2 sec) 
Finished CPU 0 instructions: 100000000 cycles: 389678014 cummulative IPC: 0.256622 (Simulation time: 1 hr 43 min 2 sec) 

ChampSim completed all CPUs

Region of Interest Statistics

CPU 0 cummulative IPC: 0.256622 instructions: 100000000 cycles: 389678014
LLC TOTAL     ACCESS:    4288150  HIT:    1550934  MISS:    2737216
LLC LOAD      ACCESS:    1517662  HIT:     460332  MISS:    1057330
LLC RFO       ACCESS:     246519  HIT:      98774  MISS:     147745
LLC PREFETCH  ACCESS:    1526407  HIT:     292278  MISS:    1234129
LLC WRITEBACK ACCESS:     997562  HIT:     699550  MISS:     298012
OPTgen accesses: 10295
OPTgen hits: 5876
OPTgen hit rate: 57.0763


