
*** ChampSim Multicore Out-of-Order Simulator ***

Warmup Instructions: 50000000
Simulation Instructions: 100000000
Configuration: 2
Number of CPUs: 1
LLC sets: 2048
LLC ways: 16
Off-chip DRAM Channels: 1 Width: 64-bit Data Rate: 1600 MT/s

CPU 0 runs /datasets/cs240c-wi22-a00-public/data/Assignment2-gz/cactusADM_1039B.trace.gz
CPU 0 L1D next line prefetcher
CPU 0 L2C IP-based stride prefetcher
Initialize Hawkeye state
Heartbeat CPU 0 instructions: 1000000 cycles: 595518 heartbeat IPC: 1.67921 cumulative IPC: 1.67921 (Simulation time: 0 hr 0 min 39 sec) 
Heartbeat CPU 0 instructions: 2000002 cycles: 1190937 heartbeat IPC: 1.67949 cumulative IPC: 1.67935 (Simulation time: 0 hr 1 min 20 sec) 
Heartbeat CPU 0 instructions: 3000003 cycles: 1786622 heartbeat IPC: 1.67874 cumulative IPC: 1.67915 (Simulation time: 0 hr 2 min 4 sec) 
Heartbeat CPU 0 instructions: 4000000 cycles: 2382046 heartbeat IPC: 1.67947 cumulative IPC: 1.67923 (Simulation time: 0 hr 2 min 49 sec) 
Heartbeat CPU 0 instructions: 5000001 cycles: 2977457 heartbeat IPC: 1.67951 cumulative IPC: 1.67929 (Simulation time: 0 hr 3 min 36 sec) 
Heartbeat CPU 0 instructions: 6000002 cycles: 3572930 heartbeat IPC: 1.67934 cumulative IPC: 1.67929 (Simulation time: 0 hr 4 min 14 sec) 
Heartbeat CPU 0 instructions: 7000000 cycles: 4168306 heartbeat IPC: 1.67961 cumulative IPC: 1.67934 (Simulation time: 0 hr 4 min 57 sec) 
Heartbeat CPU 0 instructions: 8000000 cycles: 4763681 heartbeat IPC: 1.67961 cumulative IPC: 1.67937 (Simulation time: 0 hr 5 min 41 sec) 
Heartbeat CPU 0 instructions: 9000002 cycles: 5359336 heartbeat IPC: 1.67883 cumulative IPC: 1.67931 (Simulation time: 0 hr 6 min 20 sec) 
Heartbeat CPU 0 instructions: 10000003 cycles: 5974113 heartbeat IPC: 1.62661 cumulative IPC: 1.67389 (Simulation time: 0 hr 7 min 2 sec) 
Heartbeat CPU 0 instructions: 11000002 cycles: 6713495 heartbeat IPC: 1.35248 cumulative IPC: 1.63849 (Simulation time: 0 hr 7 min 55 sec) 
Heartbeat CPU 0 instructions: 12000000 cycles: 7308929 heartbeat IPC: 1.67944 cumulative IPC: 1.64183 (Simulation time: 0 hr 8 min 40 sec) 
Heartbeat CPU 0 instructions: 13000002 cycles: 7904447 heartbeat IPC: 1.67921 cumulative IPC: 1.64464 (Simulation time: 0 hr 9 min 20 sec) 
Heartbeat CPU 0 instructions: 14000000 cycles: 8500093 heartbeat IPC: 1.67885 cumulative IPC: 1.64704 (Simulation time: 0 hr 10 min 2 sec) 
Heartbeat CPU 0 instructions: 15000000 cycles: 9095140 heartbeat IPC: 1.68054 cumulative IPC: 1.64923 (Simulation time: 0 hr 10 min 44 sec) 
Heartbeat CPU 0 instructions: 16000000 cycles: 9690728 heartbeat IPC: 1.67901 cumulative IPC: 1.65106 (Simulation time: 0 hr 11 min 24 sec) 
Heartbeat CPU 0 instructions: 17000003 cycles: 10286303 heartbeat IPC: 1.67905 cumulative IPC: 1.65268 (Simulation time: 0 hr 12 min 3 sec) 
Heartbeat CPU 0 instructions: 18000001 cycles: 10881822 heartbeat IPC: 1.6792 cumulative IPC: 1.65413 (Simulation time: 0 hr 12 min 48 sec) 
Heartbeat CPU 0 instructions: 19000002 cycles: 11477184 heartbeat IPC: 1.67965 cumulative IPC: 1.65546 (Simulation time: 0 hr 13 min 30 sec) 
Heartbeat CPU 0 instructions: 20000000 cycles: 12072606 heartbeat IPC: 1.67948 cumulative IPC: 1.65664 (Simulation time: 0 hr 14 min 26 sec) 
Heartbeat CPU 0 instructions: 21000002 cycles: 12668274 heartbeat IPC: 1.67879 cumulative IPC: 1.65768 (Simulation time: 0 hr 15 min 14 sec) 
Heartbeat CPU 0 instructions: 22000002 cycles: 13263687 heartbeat IPC: 1.67951 cumulative IPC: 1.65866 (Simulation time: 0 hr 16 min 1 sec) 
Heartbeat CPU 0 instructions: 23000002 cycles: 13859110 heartbeat IPC: 1.67948 cumulative IPC: 1.65956 (Simulation time: 0 hr 16 min 45 sec) 
Heartbeat CPU 0 instructions: 24000000 cycles: 14615202 heartbeat IPC: 1.32259 cumulative IPC: 1.64213 (Simulation time: 0 hr 17 min 35 sec) 
Heartbeat CPU 0 instructions: 25000002 cycles: 15210477 heartbeat IPC: 1.6799 cumulative IPC: 1.6436 (Simulation time: 0 hr 18 min 20 sec) 
Heartbeat CPU 0 instructions: 26000001 cycles: 15805595 heartbeat IPC: 1.68034 cumulative IPC: 1.64499 (Simulation time: 0 hr 19 min 6 sec) 
Heartbeat CPU 0 instructions: 27000000 cycles: 16400835 heartbeat IPC: 1.67999 cumulative IPC: 1.64626 (Simulation time: 0 hr 19 min 52 sec) 
Heartbeat CPU 0 instructions: 28000000 cycles: 16996067 heartbeat IPC: 1.68002 cumulative IPC: 1.64744 (Simulation time: 0 hr 20 min 35 sec) 
Heartbeat CPU 0 instructions: 29000000 cycles: 17591532 heartbeat IPC: 1.67936 cumulative IPC: 1.64852 (Simulation time: 0 hr 21 min 21 sec) 
Heartbeat CPU 0 instructions: 30000002 cycles: 18186708 heartbeat IPC: 1.68018 cumulative IPC: 1.64956 (Simulation time: 0 hr 22 min 7 sec) 
Heartbeat CPU 0 instructions: 31000001 cycles: 18782236 heartbeat IPC: 1.67918 cumulative IPC: 1.6505 (Simulation time: 0 hr 22 min 49 sec) 
Heartbeat CPU 0 instructions: 32000000 cycles: 19377194 heartbeat IPC: 1.68079 cumulative IPC: 1.65143 (Simulation time: 0 hr 23 min 35 sec) 
Heartbeat CPU 0 instructions: 33000001 cycles: 19972608 heartbeat IPC: 1.67951 cumulative IPC: 1.65226 (Simulation time: 0 hr 24 min 19 sec) 
Heartbeat CPU 0 instructions: 34000003 cycles: 20567665 heartbeat IPC: 1.68051 cumulative IPC: 1.65308 (Simulation time: 0 hr 25 min 2 sec) 
Heartbeat CPU 0 instructions: 35000001 cycles: 21163076 heartbeat IPC: 1.67951 cumulative IPC: 1.65382 (Simulation time: 0 hr 25 min 45 sec) 
Heartbeat CPU 0 instructions: 36000000 cycles: 21758476 heartbeat IPC: 1.67954 cumulative IPC: 1.65453 (Simulation time: 0 hr 26 min 29 sec) 
Heartbeat CPU 0 instructions: 37000002 cycles: 22515517 heartbeat IPC: 1.32094 cumulative IPC: 1.64331 (Simulation time: 0 hr 27 min 22 sec) 
Heartbeat CPU 0 instructions: 38000000 cycles: 23110663 heartbeat IPC: 1.68026 cumulative IPC: 1.64426 (Simulation time: 0 hr 28 min 5 sec) 
Heartbeat CPU 0 instructions: 39000002 cycles: 23705875 heartbeat IPC: 1.68008 cumulative IPC: 1.64516 (Simulation time: 0 hr 28 min 49 sec) 
Heartbeat CPU 0 instructions: 40000000 cycles: 24301110 heartbeat IPC: 1.68001 cumulative IPC: 1.64602 (Simulation time: 0 hr 29 min 33 sec) 
Heartbeat CPU 0 instructions: 41000003 cycles: 24896540 heartbeat IPC: 1.67946 cumulative IPC: 1.64682 (Simulation time: 0 hr 30 min 16 sec) 
Heartbeat CPU 0 instructions: 42000001 cycles: 25491719 heartbeat IPC: 1.68016 cumulative IPC: 1.64759 (Simulation time: 0 hr 30 min 59 sec) 
Heartbeat CPU 0 instructions: 43000000 cycles: 26087080 heartbeat IPC: 1.67965 cumulative IPC: 1.64833 (Simulation time: 0 hr 31 min 44 sec) 
Heartbeat CPU 0 instructions: 44000000 cycles: 26682160 heartbeat IPC: 1.68045 cumulative IPC: 1.64904 (Simulation time: 0 hr 32 min 30 sec) 
Heartbeat CPU 0 instructions: 45000000 cycles: 27277633 heartbeat IPC: 1.67934 cumulative IPC: 1.6497 (Simulation time: 0 hr 33 min 14 sec) 
Heartbeat CPU 0 instructions: 46000003 cycles: 27872825 heartbeat IPC: 1.68014 cumulative IPC: 1.65035 (Simulation time: 0 hr 33 min 56 sec) 
Heartbeat CPU 0 instructions: 47000002 cycles: 28467971 heartbeat IPC: 1.68026 cumulative IPC: 1.65098 (Simulation time: 0 hr 34 min 42 sec) 
Heartbeat CPU 0 instructions: 48000000 cycles: 29062962 heartbeat IPC: 1.68069 cumulative IPC: 1.65159 (Simulation time: 0 hr 35 min 26 sec) 
Heartbeat CPU 0 instructions: 49000001 cycles: 29658355 heartbeat IPC: 1.67956 cumulative IPC: 1.65215 (Simulation time: 0 hr 36 min 10 sec) 
Heartbeat CPU 0 instructions: 50000000 cycles: 30415389 heartbeat IPC: 1.32094 cumulative IPC: 1.6439 (Simulation time: 0 hr 37 min 1 sec) 

Warmup complete CPU 0 instructions: 50000004 cycles: 30415390 (Simulation time: 0 hr 37 min 1 sec) 

Heartbeat CPU 0 instructions: 51000003 cycles: 32180818 heartbeat IPC: 0.566436 cumulative IPC: 0.566434 (Simulation time: 0 hr 37 min 47 sec) 
Heartbeat CPU 0 instructions: 52000000 cycles: 33954317 heartbeat IPC: 0.563855 cumulative IPC: 0.565142 (Simulation time: 0 hr 38 min 36 sec) 
Heartbeat CPU 0 instructions: 53000003 cycles: 35725583 heartbeat IPC: 0.56457 cumulative IPC: 0.564951 (Simulation time: 0 hr 39 min 22 sec) 
Heartbeat CPU 0 instructions: 54000002 cycles: 37442717 heartbeat IPC: 0.582365 cumulative IPC: 0.569206 (Simulation time: 0 hr 40 min 9 sec) 
Heartbeat CPU 0 instructions: 55000001 cycles: 39169943 heartbeat IPC: 0.578962 cumulative IPC: 0.571131 (Simulation time: 0 hr 40 min 55 sec) 
Heartbeat CPU 0 instructions: 56000000 cycles: 40940503 heartbeat IPC: 0.564793 cumulative IPC: 0.570065 (Simulation time: 0 hr 41 min 43 sec) 
Heartbeat CPU 0 instructions: 57000000 cycles: 42716052 heartbeat IPC: 0.563206 cumulative IPC: 0.569075 (Simulation time: 0 hr 42 min 33 sec) 
Heartbeat CPU 0 instructions: 58000000 cycles: 44481028 heartbeat IPC: 0.56658 cumulative IPC: 0.568762 (Simulation time: 0 hr 43 min 21 sec) 
Heartbeat CPU 0 instructions: 59000002 cycles: 46169489 heartbeat IPC: 0.592256 cumulative IPC: 0.57128 (Simulation time: 0 hr 44 min 6 sec) 
Heartbeat CPU 0 instructions: 60000000 cycles: 47930981 heartbeat IPC: 0.567699 cumulative IPC: 0.57092 (Simulation time: 0 hr 44 min 53 sec) 
Heartbeat CPU 0 instructions: 61000001 cycles: 49707462 heartbeat IPC: 0.562911 cumulative IPC: 0.570182 (Simulation time: 0 hr 45 min 42 sec) 
Heartbeat CPU 0 instructions: 62000000 cycles: 51482185 heartbeat IPC: 0.563468 cumulative IPC: 0.569617 (Simulation time: 0 hr 46 min 31 sec) 
Heartbeat CPU 0 instructions: 63000001 cycles: 57686598 heartbeat IPC: 0.161176 cumulative IPC: 0.476693 (Simulation time: 0 hr 47 min 29 sec) 
Heartbeat CPU 0 instructions: 64000000 cycles: 59954652 heartbeat IPC: 0.440906 cumulative IPC: 0.473945 (Simulation time: 0 hr 48 min 29 sec) 
Heartbeat CPU 0 instructions: 65000002 cycles: 61725921 heartbeat IPC: 0.564568 cumulative IPC: 0.479072 (Simulation time: 0 hr 49 min 34 sec) 
Heartbeat CPU 0 instructions: 66000001 cycles: 63497722 heartbeat IPC: 0.564397 cumulative IPC: 0.483642 (Simulation time: 0 hr 50 min 44 sec) 
Heartbeat CPU 0 instructions: 67000003 cycles: 65264409 heartbeat IPC: 0.566032 cumulative IPC: 0.487819 (Simulation time: 0 hr 51 min 54 sec) 
Heartbeat CPU 0 instructions: 68000000 cycles: 66990523 heartbeat IPC: 0.579334 cumulative IPC: 0.492138 (Simulation time: 0 hr 53 min 3 sec) 
Heartbeat CPU 0 instructions: 69000003 cycles: 68768417 heartbeat IPC: 0.562465 cumulative IPC: 0.495398 (Simulation time: 0 hr 54 min 11 sec) 
Heartbeat CPU 0 instructions: 70000002 cycles: 70541245 heartbeat IPC: 0.56407 cumulative IPC: 0.498432 (Simulation time: 0 hr 55 min 18 sec) 
Heartbeat CPU 0 instructions: 71000000 cycles: 72314503 heartbeat IPC: 0.563933 cumulative IPC: 0.501204 (Simulation time: 0 hr 56 min 31 sec) 
Heartbeat CPU 0 instructions: 72000000 cycles: 74061962 heartbeat IPC: 0.572259 cumulative IPC: 0.504049 (Simulation time: 0 hr 57 min 27 sec) 
Heartbeat CPU 0 instructions: 73000001 cycles: 75763114 heartbeat IPC: 0.587838 cumulative IPC: 0.507192 (Simulation time: 0 hr 58 min 16 sec) 
Heartbeat CPU 0 instructions: 74000003 cycles: 77531915 heartbeat IPC: 0.565356 cumulative IPC: 0.509375 (Simulation time: 0 hr 59 min 9 sec) 
Heartbeat CPU 0 instructions: 75000002 cycles: 79307091 heartbeat IPC: 0.563324 cumulative IPC: 0.511334 (Simulation time: 0 hr 59 min 59 sec) 
Heartbeat CPU 0 instructions: 76000000 cycles: 84565541 heartbeat IPC: 0.19017 cumulative IPC: 0.480146 (Simulation time: 1 hr 0 min 58 sec) 
Heartbeat CPU 0 instructions: 77000001 cycles: 87728368 heartbeat IPC: 0.316173 cumulative IPC: 0.471097 (Simulation time: 1 hr 2 min 6 sec) 
Heartbeat CPU 0 instructions: 78000000 cycles: 89478212 heartbeat IPC: 0.571479 cumulative IPC: 0.474071 (Simulation time: 1 hr 3 min 9 sec) 
Heartbeat CPU 0 instructions: 79000002 cycles: 91248175 heartbeat IPC: 0.564985 cumulative IPC: 0.476717 (Simulation time: 1 hr 4 min 20 sec) 
Heartbeat CPU 0 instructions: 80000000 cycles: 93019567 heartbeat IPC: 0.564527 cumulative IPC: 0.479201 (Simulation time: 1 hr 5 min 30 sec) 
Heartbeat CPU 0 instructions: 81000002 cycles: 94768284 heartbeat IPC: 0.571849 cumulative IPC: 0.481719 (Simulation time: 1 hr 6 min 26 sec) 
Heartbeat CPU 0 instructions: 82000002 cycles: 96463838 heartbeat IPC: 0.589778 cumulative IPC: 0.484493 (Simulation time: 1 hr 7 min 21 sec) 
Heartbeat CPU 0 instructions: 83000003 cycles: 98231262 heartbeat IPC: 0.565796 cumulative IPC: 0.486612 (Simulation time: 1 hr 8 min 15 sec) 
Heartbeat CPU 0 instructions: 84000000 cycles: 100003331 heartbeat IPC: 0.56431 cumulative IPC: 0.48859 (Simulation time: 1 hr 9 min 6 sec) 
Heartbeat CPU 0 instructions: 85000002 cycles: 101776712 heartbeat IPC: 0.563896 cumulative IPC: 0.490462 (Simulation time: 1 hr 9 min 55 sec) 
Heartbeat CPU 0 instructions: 86000003 cycles: 103493921 heartbeat IPC: 0.582341 cumulative IPC: 0.492621 (Simulation time: 1 hr 10 min 45 sec) 
Heartbeat CPU 0 instructions: 87000000 cycles: 105237628 heartbeat IPC: 0.573489 cumulative IPC: 0.494505 (Simulation time: 1 hr 11 min 37 sec) 
Heartbeat CPU 0 instructions: 88000000 cycles: 107008816 heartbeat IPC: 0.564593 cumulative IPC: 0.496126 (Simulation time: 1 hr 12 min 32 sec) 
Heartbeat CPU 0 instructions: 89000001 cycles: 111341506 heartbeat IPC: 0.230804 cumulative IPC: 0.481921 (Simulation time: 1 hr 13 min 39 sec) 
Heartbeat CPU 0 instructions: 90000002 cycles: 115458022 heartbeat IPC: 0.242924 cumulative IPC: 0.470352 (Simulation time: 1 hr 14 min 38 sec) 
Heartbeat CPU 0 instructions: 91000000 cycles: 117152540 heartbeat IPC: 0.590137 cumulative IPC: 0.472692 (Simulation time: 1 hr 15 min 27 sec) 
Heartbeat CPU 0 instructions: 92000000 cycles: 118916883 heartbeat IPC: 0.566783 cumulative IPC: 0.474568 (Simulation time: 1 hr 16 min 16 sec) 
Heartbeat CPU 0 instructions: 93000001 cycles: 120688674 heartbeat IPC: 0.564401 cumulative IPC: 0.476331 (Simulation time: 1 hr 17 min 5 sec) 
Heartbeat CPU 0 instructions: 94000003 cycles: 122463643 heartbeat IPC: 0.563391 cumulative IPC: 0.47801 (Simulation time: 1 hr 17 min 50 sec) 
Heartbeat CPU 0 instructions: 95000001 cycles: 124183925 heartbeat IPC: 0.581299 cumulative IPC: 0.479905 (Simulation time: 1 hr 18 min 36 sec) 
Heartbeat CPU 0 instructions: 96000000 cycles: 125904781 heartbeat IPC: 0.581106 cumulative IPC: 0.481729 (Simulation time: 1 hr 19 min 20 sec) 
Heartbeat CPU 0 instructions: 97000002 cycles: 127674470 heartbeat IPC: 0.565072 cumulative IPC: 0.483245 (Simulation time: 1 hr 20 min 3 sec) 
Heartbeat CPU 0 instructions: 98000000 cycles: 129448254 heartbeat IPC: 0.563765 cumulative IPC: 0.484688 (Simulation time: 1 hr 20 min 45 sec) 
Heartbeat CPU 0 instructions: 99000002 cycles: 131218049 heartbeat IPC: 0.565038 cumulative IPC: 0.486098 (Simulation time: 1 hr 21 min 28 sec) 
Heartbeat CPU 0 instructions: 100000000 cycles: 132910325 heartbeat IPC: 0.590919 cumulative IPC: 0.487829 (Simulation time: 1 hr 22 min 11 sec) 
Heartbeat CPU 0 instructions: 101000002 cycles: 134666760 heartbeat IPC: 0.569336 cumulative IPC: 0.489202 (Simulation time: 1 hr 22 min 53 sec) 
Heartbeat CPU 0 instructions: 102000000 cycles: 138014038 heartbeat IPC: 0.29875 cumulative IPC: 0.483277 (Simulation time: 1 hr 23 min 35 sec) 
Heartbeat CPU 0 instructions: 103000002 cycles: 143129993 heartbeat IPC: 0.195467 cumulative IPC: 0.470214 (Simulation time: 1 hr 24 min 20 sec) 
Heartbeat CPU 0 instructions: 104000000 cycles: 144856269 heartbeat IPC: 0.57928 cumulative IPC: 0.471859 (Simulation time: 1 hr 24 min 55 sec) 
Heartbeat CPU 0 instructions: 105000002 cycles: 146572187 heartbeat IPC: 0.58278 cumulative IPC: 0.473498 (Simulation time: 1 hr 25 min 33 sec) 
Heartbeat CPU 0 instructions: 106000001 cycles: 148344318 heartbeat IPC: 0.564292 cumulative IPC: 0.474862 (Simulation time: 1 hr 26 min 15 sec) 
Heartbeat CPU 0 instructions: 107000003 cycles: 150114713 heartbeat IPC: 0.564847 cumulative IPC: 0.476193 (Simulation time: 1 hr 26 min 52 sec) 
Heartbeat CPU 0 instructions: 108000000 cycles: 151881932 heartbeat IPC: 0.565859 cumulative IPC: 0.477498 (Simulation time: 1 hr 27 min 23 sec) 
Heartbeat CPU 0 instructions: 109000003 cycles: 153578629 heartbeat IPC: 0.589382 cumulative IPC: 0.479039 (Simulation time: 1 hr 27 min 55 sec) 
Heartbeat CPU 0 instructions: 110000002 cycles: 155329220 heartbeat IPC: 0.571235 cumulative IPC: 0.480331 (Simulation time: 1 hr 28 min 26 sec) 
Heartbeat CPU 0 instructions: 111000002 cycles: 157100898 heartbeat IPC: 0.564437 cumulative IPC: 0.481507 (Simulation time: 1 hr 28 min 54 sec) 
Heartbeat CPU 0 instructions: 112000000 cycles: 158872788 heartbeat IPC: 0.564368 cumulative IPC: 0.48265 (Simulation time: 1 hr 29 min 22 sec) 
Heartbeat CPU 0 instructions: 113000002 cycles: 160630463 heartbeat IPC: 0.568935 cumulative IPC: 0.483815 (Simulation time: 1 hr 29 min 48 sec) 
Heartbeat CPU 0 instructions: 114000002 cycles: 162324125 heartbeat IPC: 0.590437 cumulative IPC: 0.485184 (Simulation time: 1 hr 30 min 14 sec) 
Heartbeat CPU 0 instructions: 115000001 cycles: 164760669 heartbeat IPC: 0.410417 cumulative IPC: 0.483828 (Simulation time: 1 hr 30 min 41 sec) 
Heartbeat CPU 0 instructions: 116000000 cycles: 170768886 heartbeat IPC: 0.166439 cumulative IPC: 0.470241 (Simulation time: 1 hr 31 min 12 sec) 
Heartbeat CPU 0 instructions: 117000003 cycles: 172540571 heartbeat IPC: 0.564436 cumulative IPC: 0.471415 (Simulation time: 1 hr 31 min 41 sec) 
Heartbeat CPU 0 instructions: 118000001 cycles: 174241417 heartbeat IPC: 0.587942 cumulative IPC: 0.472793 (Simulation time: 1 hr 32 min 11 sec) 
Heartbeat CPU 0 instructions: 119000001 cycles: 175983842 heartbeat IPC: 0.573913 cumulative IPC: 0.474004 (Simulation time: 1 hr 32 min 38 sec) 
Heartbeat CPU 0 instructions: 120000000 cycles: 177755391 heartbeat IPC: 0.564477 cumulative IPC: 0.475092 (Simulation time: 1 hr 33 min 11 sec) 
Heartbeat CPU 0 instructions: 121000000 cycles: 179528690 heartbeat IPC: 0.563921 cumulative IPC: 0.476148 (Simulation time: 1 hr 33 min 34 sec) 
Heartbeat CPU 0 instructions: 122000003 cycles: 181288270 heartbeat IPC: 0.568319 cumulative IPC: 0.477223 (Simulation time: 1 hr 33 min 57 sec) 
Heartbeat CPU 0 instructions: 123000002 cycles: 182979023 heartbeat IPC: 0.591452 cumulative IPC: 0.478489 (Simulation time: 1 hr 34 min 20 sec) 
Heartbeat CPU 0 instructions: 124000000 cycles: 184747809 heartbeat IPC: 0.565358 cumulative IPC: 0.479484 (Simulation time: 1 hr 34 min 45 sec) 
Heartbeat CPU 0 instructions: 125000001 cycles: 186520121 heartbeat IPC: 0.564235 cumulative IPC: 0.480447 (Simulation time: 1 hr 35 min 16 sec) 
Heartbeat CPU 0 instructions: 126000000 cycles: 188292532 heartbeat IPC: 0.564203 cumulative IPC: 0.481387 (Simulation time: 1 hr 35 min 42 sec) 
Heartbeat CPU 0 instructions: 127000003 cycles: 190018908 heartbeat IPC: 0.57925 cumulative IPC: 0.482446 (Simulation time: 1 hr 36 min 4 sec) 
Heartbeat CPU 0 instructions: 128000000 cycles: 191794899 heartbeat IPC: 0.563064 cumulative IPC: 0.483333 (Simulation time: 1 hr 36 min 27 sec) 
Heartbeat CPU 0 instructions: 129000001 cycles: 198668398 heartbeat IPC: 0.145486 cumulative IPC: 0.469531 (Simulation time: 1 hr 36 min 53 sec) 
Heartbeat CPU 0 instructions: 130000002 cycles: 208198156 heartbeat IPC: 0.104935 cumulative IPC: 0.449987 (Simulation time: 1 hr 37 min 21 sec) 
Heartbeat CPU 0 instructions: 131000002 cycles: 212149890 heartbeat IPC: 0.253053 cumulative IPC: 0.445705 (Simulation time: 1 hr 37 min 43 sec) 
Heartbeat CPU 0 instructions: 132000000 cycles: 213929809 heartbeat IPC: 0.561822 cumulative IPC: 0.446831 (Simulation time: 1 hr 38 min 3 sec) 
Heartbeat CPU 0 instructions: 133000000 cycles: 215632339 heartbeat IPC: 0.587361 cumulative IPC: 0.448123 (Simulation time: 1 hr 38 min 21 sec) 
Heartbeat CPU 0 instructions: 134000003 cycles: 217403514 heartbeat IPC: 0.564599 cumulative IPC: 0.449226 (Simulation time: 1 hr 38 min 37 sec) 
Heartbeat CPU 0 instructions: 135000002 cycles: 219190910 heartbeat IPC: 0.559473 cumulative IPC: 0.45027 (Simulation time: 1 hr 38 min 53 sec) 
Heartbeat CPU 0 instructions: 136000000 cycles: 220982324 heartbeat IPC: 0.558217 cumulative IPC: 0.451285 (Simulation time: 1 hr 39 min 8 sec) 
Heartbeat CPU 0 instructions: 137000001 cycles: 222735802 heartbeat IPC: 0.570296 cumulative IPC: 0.45237 (Simulation time: 1 hr 39 min 22 sec) 
Heartbeat CPU 0 instructions: 138000001 cycles: 224448987 heartbeat IPC: 0.583708 cumulative IPC: 0.45353 (Simulation time: 1 hr 39 min 37 sec) 
Heartbeat CPU 0 instructions: 139000003 cycles: 226230729 heartbeat IPC: 0.56125 cumulative IPC: 0.45451 (Simulation time: 1 hr 39 min 50 sec) 
Heartbeat CPU 0 instructions: 140000000 cycles: 228022613 heartbeat IPC: 0.55807 cumulative IPC: 0.455449 (Simulation time: 1 hr 40 min 3 sec) 
Heartbeat CPU 0 instructions: 141000003 cycles: 229809643 heartbeat IPC: 0.559589 cumulative IPC: 0.456382 (Simulation time: 1 hr 40 min 15 sec) 
Heartbeat CPU 0 instructions: 142000003 cycles: 231531506 heartbeat IPC: 0.580766 cumulative IPC: 0.457447 (Simulation time: 1 hr 40 min 27 sec) 
Heartbeat CPU 0 instructions: 143000002 cycles: 235426053 heartbeat IPC: 0.256769 cumulative IPC: 0.453635 (Simulation time: 1 hr 40 min 38 sec) 
Heartbeat CPU 0 instructions: 144000000 cycles: 240376300 heartbeat IPC: 0.20201 cumulative IPC: 0.447702 (Simulation time: 1 hr 40 min 49 sec) 
Heartbeat CPU 0 instructions: 145000003 cycles: 242116837 heartbeat IPC: 0.574537 cumulative IPC: 0.448745 (Simulation time: 1 hr 41 min 1 sec) 
Heartbeat CPU 0 instructions: 146000001 cycles: 243820998 heartbeat IPC: 0.586798 cumulative IPC: 0.449848 (Simulation time: 1 hr 41 min 11 sec) 
Heartbeat CPU 0 instructions: 147000001 cycles: 245486248 heartbeat IPC: 0.60051 cumulative IPC: 0.451014 (Simulation time: 1 hr 41 min 20 sec) 
Heartbeat CPU 0 instructions: 148000000 cycles: 247223498 heartbeat IPC: 0.575622 cumulative IPC: 0.452013 (Simulation time: 1 hr 41 min 29 sec) 
Heartbeat CPU 0 instructions: 149000000 cycles: 248961796 heartbeat IPC: 0.575275 cumulative IPC: 0.452993 (Simulation time: 1 hr 41 min 37 sec) 
Heartbeat CPU 0 instructions: 150000002 cycles: 250699098 heartbeat IPC: 0.575606 cumulative IPC: 0.45396 (Simulation time: 1 hr 41 min 46 sec) 
Finished CPU 0 instructions: 100000002 cycles: 220283709 cummulative IPC: 0.45396 (Simulation time: 1 hr 41 min 46 sec) 

ChampSim completed all CPUs

Region of Interest Statistics

CPU 0 cummulative IPC: 0.45396 instructions: 100000002 cycles: 220283709
LLC TOTAL     ACCESS:    1242656  HIT:     335129  MISS:     907527
LLC LOAD      ACCESS:      28245  HIT:       2745  MISS:      25500
LLC RFO       ACCESS:     290712  HIT:      83830  MISS:     206882
LLC PREFETCH  ACCESS:     631313  HIT:     104688  MISS:     526625
LLC WRITEBACK ACCESS:     292386  HIT:     143866  MISS:     148520
OPTgen accesses: 2123
OPTgen hits: 735
OPTgen hit rate: 34.6208


