
*** ChampSim Multicore Out-of-Order Simulator ***

Warmup Instructions: 50000000
Simulation Instructions: 100000000
Configuration: 2
Number of CPUs: 1
LLC sets: 2048
LLC ways: 16
Off-chip DRAM Channels: 1 Width: 64-bit Data Rate: 1600 MT/s

CPU 0 runs /datasets/cs240c-wi22-a00-public/data/Assignment2-gz/milc_744B.trace.gz
CPU 0 L1D next line prefetcher
CPU 0 L2C IP-based stride prefetcher
Initialize Hawkeye state
Heartbeat CPU 0 instructions: 1000000 cycles: 383656 heartbeat IPC: 2.6065 cumulative IPC: 2.6065 (Simulation time: 0 hr 0 min 35 sec) 
Heartbeat CPU 0 instructions: 2000001 cycles: 767293 heartbeat IPC: 2.60663 cumulative IPC: 2.60657 (Simulation time: 0 hr 1 min 7 sec) 
Heartbeat CPU 0 instructions: 3000001 cycles: 1150974 heartbeat IPC: 2.60633 cumulative IPC: 2.60649 (Simulation time: 0 hr 1 min 38 sec) 
Heartbeat CPU 0 instructions: 4000000 cycles: 1534617 heartbeat IPC: 2.60659 cumulative IPC: 2.60651 (Simulation time: 0 hr 2 min 7 sec) 
Heartbeat CPU 0 instructions: 5000001 cycles: 1918298 heartbeat IPC: 2.60633 cumulative IPC: 2.60648 (Simulation time: 0 hr 2 min 36 sec) 
Heartbeat CPU 0 instructions: 6000002 cycles: 2301951 heartbeat IPC: 2.60652 cumulative IPC: 2.60649 (Simulation time: 0 hr 3 min 10 sec) 
Heartbeat CPU 0 instructions: 7000002 cycles: 2685605 heartbeat IPC: 2.60652 cumulative IPC: 2.60649 (Simulation time: 0 hr 3 min 45 sec) 
Heartbeat CPU 0 instructions: 8000000 cycles: 3069239 heartbeat IPC: 2.60665 cumulative IPC: 2.60651 (Simulation time: 0 hr 4 min 22 sec) 
Heartbeat CPU 0 instructions: 9000003 cycles: 3452946 heartbeat IPC: 2.60616 cumulative IPC: 2.60647 (Simulation time: 0 hr 4 min 53 sec) 
Heartbeat CPU 0 instructions: 10000002 cycles: 3836611 heartbeat IPC: 2.60644 cumulative IPC: 2.60647 (Simulation time: 0 hr 5 min 26 sec) 
Heartbeat CPU 0 instructions: 11000003 cycles: 4220269 heartbeat IPC: 2.60649 cumulative IPC: 2.60647 (Simulation time: 0 hr 5 min 57 sec) 
Heartbeat CPU 0 instructions: 12000000 cycles: 4603919 heartbeat IPC: 2.60653 cumulative IPC: 2.60648 (Simulation time: 0 hr 6 min 33 sec) 
Heartbeat CPU 0 instructions: 13000002 cycles: 4987595 heartbeat IPC: 2.60637 cumulative IPC: 2.60647 (Simulation time: 0 hr 7 min 4 sec) 
Heartbeat CPU 0 instructions: 14000001 cycles: 5371239 heartbeat IPC: 2.60658 cumulative IPC: 2.60648 (Simulation time: 0 hr 7 min 36 sec) 
Heartbeat CPU 0 instructions: 15000001 cycles: 5754911 heartbeat IPC: 2.60639 cumulative IPC: 2.60647 (Simulation time: 0 hr 8 min 10 sec) 
Heartbeat CPU 0 instructions: 16000000 cycles: 6138558 heartbeat IPC: 2.60656 cumulative IPC: 2.60648 (Simulation time: 0 hr 8 min 46 sec) 
Heartbeat CPU 0 instructions: 17000001 cycles: 6522213 heartbeat IPC: 2.60651 cumulative IPC: 2.60648 (Simulation time: 0 hr 9 min 19 sec) 
Heartbeat CPU 0 instructions: 18000003 cycles: 6905855 heartbeat IPC: 2.6066 cumulative IPC: 2.60648 (Simulation time: 0 hr 9 min 51 sec) 
Heartbeat CPU 0 instructions: 19000002 cycles: 7289496 heartbeat IPC: 2.6066 cumulative IPC: 2.60649 (Simulation time: 0 hr 10 min 24 sec) 
Heartbeat CPU 0 instructions: 20000000 cycles: 7673132 heartbeat IPC: 2.60663 cumulative IPC: 2.6065 (Simulation time: 0 hr 10 min 58 sec) 
Heartbeat CPU 0 instructions: 21000003 cycles: 8056837 heartbeat IPC: 2.60618 cumulative IPC: 2.60648 (Simulation time: 0 hr 11 min 33 sec) 
Heartbeat CPU 0 instructions: 22000002 cycles: 8440504 heartbeat IPC: 2.60642 cumulative IPC: 2.60648 (Simulation time: 0 hr 12 min 4 sec) 
Heartbeat CPU 0 instructions: 23000000 cycles: 8824165 heartbeat IPC: 2.60646 cumulative IPC: 2.60648 (Simulation time: 0 hr 12 min 40 sec) 
Heartbeat CPU 0 instructions: 24000000 cycles: 9207788 heartbeat IPC: 2.60673 cumulative IPC: 2.60649 (Simulation time: 0 hr 13 min 17 sec) 
Heartbeat CPU 0 instructions: 25000002 cycles: 9591463 heartbeat IPC: 2.60638 cumulative IPC: 2.60648 (Simulation time: 0 hr 13 min 56 sec) 
Heartbeat CPU 0 instructions: 26000001 cycles: 9975122 heartbeat IPC: 2.60648 cumulative IPC: 2.60648 (Simulation time: 0 hr 14 min 38 sec) 
Heartbeat CPU 0 instructions: 27000001 cycles: 10358818 heartbeat IPC: 2.60623 cumulative IPC: 2.60648 (Simulation time: 0 hr 15 min 16 sec) 
Heartbeat CPU 0 instructions: 28000000 cycles: 10742467 heartbeat IPC: 2.60655 cumulative IPC: 2.60648 (Simulation time: 0 hr 15 min 52 sec) 
Heartbeat CPU 0 instructions: 29000000 cycles: 11126140 heartbeat IPC: 2.60639 cumulative IPC: 2.60647 (Simulation time: 0 hr 16 min 30 sec) 
Heartbeat CPU 0 instructions: 30000003 cycles: 11509791 heartbeat IPC: 2.60654 cumulative IPC: 2.60648 (Simulation time: 0 hr 17 min 10 sec) 
Heartbeat CPU 0 instructions: 31000002 cycles: 11893424 heartbeat IPC: 2.60666 cumulative IPC: 2.60648 (Simulation time: 0 hr 17 min 51 sec) 
Heartbeat CPU 0 instructions: 32000000 cycles: 12277079 heartbeat IPC: 2.6065 cumulative IPC: 2.60648 (Simulation time: 0 hr 18 min 29 sec) 
Heartbeat CPU 0 instructions: 33000001 cycles: 12660737 heartbeat IPC: 2.60649 cumulative IPC: 2.60648 (Simulation time: 0 hr 19 min 6 sec) 
Heartbeat CPU 0 instructions: 34000002 cycles: 13044413 heartbeat IPC: 2.60637 cumulative IPC: 2.60648 (Simulation time: 0 hr 19 min 45 sec) 
Heartbeat CPU 0 instructions: 35000000 cycles: 13428051 heartbeat IPC: 2.60662 cumulative IPC: 2.60648 (Simulation time: 0 hr 20 min 27 sec) 
Heartbeat CPU 0 instructions: 36000000 cycles: 13811694 heartbeat IPC: 2.60659 cumulative IPC: 2.60649 (Simulation time: 0 hr 21 min 8 sec) 
Heartbeat CPU 0 instructions: 37000001 cycles: 14195360 heartbeat IPC: 2.60644 cumulative IPC: 2.60649 (Simulation time: 0 hr 21 min 44 sec) 
Heartbeat CPU 0 instructions: 38000000 cycles: 14579025 heartbeat IPC: 2.60644 cumulative IPC: 2.60648 (Simulation time: 0 hr 22 min 17 sec) 
Heartbeat CPU 0 instructions: 39000002 cycles: 14962680 heartbeat IPC: 2.60651 cumulative IPC: 2.60649 (Simulation time: 0 hr 22 min 52 sec) 
Heartbeat CPU 0 instructions: 40000000 cycles: 15346358 heartbeat IPC: 2.60635 cumulative IPC: 2.60648 (Simulation time: 0 hr 23 min 26 sec) 
Heartbeat CPU 0 instructions: 41000003 cycles: 15730024 heartbeat IPC: 2.60644 cumulative IPC: 2.60648 (Simulation time: 0 hr 24 min 5 sec) 
Heartbeat CPU 0 instructions: 42000002 cycles: 16113669 heartbeat IPC: 2.60657 cumulative IPC: 2.60648 (Simulation time: 0 hr 24 min 44 sec) 
Heartbeat CPU 0 instructions: 43000002 cycles: 16497335 heartbeat IPC: 2.60643 cumulative IPC: 2.60648 (Simulation time: 0 hr 25 min 17 sec) 
Heartbeat CPU 0 instructions: 44000000 cycles: 16880988 heartbeat IPC: 2.60652 cumulative IPC: 2.60648 (Simulation time: 0 hr 25 min 52 sec) 
Heartbeat CPU 0 instructions: 45000000 cycles: 17264648 heartbeat IPC: 2.60647 cumulative IPC: 2.60648 (Simulation time: 0 hr 26 min 29 sec) 
Heartbeat CPU 0 instructions: 46000002 cycles: 17648338 heartbeat IPC: 2.60628 cumulative IPC: 2.60648 (Simulation time: 0 hr 27 min 5 sec) 
Heartbeat CPU 0 instructions: 47000002 cycles: 18031991 heartbeat IPC: 2.60652 cumulative IPC: 2.60648 (Simulation time: 0 hr 27 min 41 sec) 
Heartbeat CPU 0 instructions: 48000000 cycles: 18415635 heartbeat IPC: 2.60658 cumulative IPC: 2.60648 (Simulation time: 0 hr 28 min 17 sec) 
Heartbeat CPU 0 instructions: 49000001 cycles: 18799298 heartbeat IPC: 2.60646 cumulative IPC: 2.60648 (Simulation time: 0 hr 28 min 53 sec) 
Heartbeat CPU 0 instructions: 50000000 cycles: 19182930 heartbeat IPC: 2.60666 cumulative IPC: 2.60648 (Simulation time: 0 hr 29 min 30 sec) 

Warmup complete CPU 0 instructions: 50000004 cycles: 19182931 (Simulation time: 0 hr 29 min 30 sec) 

Heartbeat CPU 0 instructions: 51000001 cycles: 20616269 heartbeat IPC: 0.697672 cumulative IPC: 0.69767 (Simulation time: 0 hr 30 min 9 sec) 
Heartbeat CPU 0 instructions: 52000000 cycles: 22047603 heartbeat IPC: 0.698648 cumulative IPC: 0.698159 (Simulation time: 0 hr 30 min 48 sec) 
Heartbeat CPU 0 instructions: 53000000 cycles: 23481996 heartbeat IPC: 0.697159 cumulative IPC: 0.697825 (Simulation time: 0 hr 31 min 27 sec) 
Heartbeat CPU 0 instructions: 54000001 cycles: 24914894 heartbeat IPC: 0.697887 cumulative IPC: 0.697841 (Simulation time: 0 hr 32 min 8 sec) 
Heartbeat CPU 0 instructions: 55000003 cycles: 26353676 heartbeat IPC: 0.695034 cumulative IPC: 0.697277 (Simulation time: 0 hr 32 min 46 sec) 
Heartbeat CPU 0 instructions: 56000000 cycles: 27792380 heartbeat IPC: 0.695068 cumulative IPC: 0.696908 (Simulation time: 0 hr 33 min 25 sec) 
Heartbeat CPU 0 instructions: 57000000 cycles: 29224811 heartbeat IPC: 0.698114 cumulative IPC: 0.69708 (Simulation time: 0 hr 34 min 5 sec) 
Heartbeat CPU 0 instructions: 58000000 cycles: 30656736 heartbeat IPC: 0.698361 cumulative IPC: 0.69724 (Simulation time: 0 hr 34 min 45 sec) 
Heartbeat CPU 0 instructions: 59000002 cycles: 32091351 heartbeat IPC: 0.697053 cumulative IPC: 0.697219 (Simulation time: 0 hr 35 min 22 sec) 
Heartbeat CPU 0 instructions: 60000000 cycles: 33517972 heartbeat IPC: 0.700956 cumulative IPC: 0.697591 (Simulation time: 0 hr 36 min 6 sec) 
Heartbeat CPU 0 instructions: 61000001 cycles: 34954893 heartbeat IPC: 0.695933 cumulative IPC: 0.69744 (Simulation time: 0 hr 36 min 45 sec) 
Heartbeat CPU 0 instructions: 62000003 cycles: 36397603 heartbeat IPC: 0.693141 cumulative IPC: 0.69708 (Simulation time: 0 hr 37 min 26 sec) 
Heartbeat CPU 0 instructions: 63000001 cycles: 37832479 heartbeat IPC: 0.696923 cumulative IPC: 0.697068 (Simulation time: 0 hr 38 min 14 sec) 
Heartbeat CPU 0 instructions: 64000000 cycles: 39253613 heartbeat IPC: 0.703663 cumulative IPC: 0.697535 (Simulation time: 0 hr 38 min 55 sec) 
Heartbeat CPU 0 instructions: 65000002 cycles: 40674806 heartbeat IPC: 0.703636 cumulative IPC: 0.697938 (Simulation time: 0 hr 39 min 35 sec) 
Heartbeat CPU 0 instructions: 66000001 cycles: 42088326 heartbeat IPC: 0.707453 cumulative IPC: 0.698525 (Simulation time: 0 hr 40 min 13 sec) 
Heartbeat CPU 0 instructions: 67000003 cycles: 43510422 heartbeat IPC: 0.703189 cumulative IPC: 0.698798 (Simulation time: 0 hr 40 min 51 sec) 
Heartbeat CPU 0 instructions: 68000000 cycles: 44937634 heartbeat IPC: 0.700665 cumulative IPC: 0.698901 (Simulation time: 0 hr 41 min 30 sec) 
Heartbeat CPU 0 instructions: 69000003 cycles: 46361257 heartbeat IPC: 0.702435 cumulative IPC: 0.699086 (Simulation time: 0 hr 42 min 11 sec) 
Heartbeat CPU 0 instructions: 70000002 cycles: 47782441 heartbeat IPC: 0.703638 cumulative IPC: 0.699313 (Simulation time: 0 hr 42 min 50 sec) 
Heartbeat CPU 0 instructions: 71000002 cycles: 49195193 heartbeat IPC: 0.707838 cumulative IPC: 0.699714 (Simulation time: 0 hr 43 min 30 sec) 
Heartbeat CPU 0 instructions: 72000000 cycles: 50617767 heartbeat IPC: 0.70295 cumulative IPC: 0.69986 (Simulation time: 0 hr 44 min 8 sec) 
Heartbeat CPU 0 instructions: 73000002 cycles: 52039333 heartbeat IPC: 0.703451 cumulative IPC: 0.700016 (Simulation time: 0 hr 44 min 49 sec) 
Heartbeat CPU 0 instructions: 74000002 cycles: 53459925 heartbeat IPC: 0.703932 cumulative IPC: 0.700178 (Simulation time: 0 hr 45 min 29 sec) 
Heartbeat CPU 0 instructions: 75000001 cycles: 54878406 heartbeat IPC: 0.704979 cumulative IPC: 0.700369 (Simulation time: 0 hr 46 min 9 sec) 
Heartbeat CPU 0 instructions: 76000000 cycles: 56302546 heartbeat IPC: 0.702177 cumulative IPC: 0.700438 (Simulation time: 0 hr 46 min 47 sec) 
Heartbeat CPU 0 instructions: 77000002 cycles: 57727806 heartbeat IPC: 0.701628 cumulative IPC: 0.700482 (Simulation time: 0 hr 47 min 24 sec) 
Heartbeat CPU 0 instructions: 78000000 cycles: 59148957 heartbeat IPC: 0.703654 cumulative IPC: 0.700595 (Simulation time: 0 hr 48 min 2 sec) 
Heartbeat CPU 0 instructions: 79000000 cycles: 60569343 heartbeat IPC: 0.704034 cumulative IPC: 0.700713 (Simulation time: 0 hr 48 min 42 sec) 
Heartbeat CPU 0 instructions: 80000000 cycles: 61991323 heartbeat IPC: 0.703245 cumulative IPC: 0.700797 (Simulation time: 0 hr 49 min 23 sec) 
Heartbeat CPU 0 instructions: 81000003 cycles: 63408793 heartbeat IPC: 0.705484 cumulative IPC: 0.700947 (Simulation time: 0 hr 50 min 6 sec) 
Heartbeat CPU 0 instructions: 82000003 cycles: 64827974 heartbeat IPC: 0.704632 cumulative IPC: 0.701062 (Simulation time: 0 hr 50 min 44 sec) 
Heartbeat CPU 0 instructions: 83000002 cycles: 66244721 heartbeat IPC: 0.705842 cumulative IPC: 0.701206 (Simulation time: 0 hr 51 min 21 sec) 
Heartbeat CPU 0 instructions: 84000000 cycles: 67664052 heartbeat IPC: 0.704556 cumulative IPC: 0.701304 (Simulation time: 0 hr 51 min 59 sec) 
Heartbeat CPU 0 instructions: 85000000 cycles: 69083085 heartbeat IPC: 0.704705 cumulative IPC: 0.701401 (Simulation time: 0 hr 52 min 38 sec) 
Heartbeat CPU 0 instructions: 86000001 cycles: 70497755 heartbeat IPC: 0.706879 cumulative IPC: 0.701552 (Simulation time: 0 hr 53 min 17 sec) 
Heartbeat CPU 0 instructions: 87000001 cycles: 71923272 heartbeat IPC: 0.7015 cumulative IPC: 0.70155 (Simulation time: 0 hr 53 min 55 sec) 
Heartbeat CPU 0 instructions: 88000000 cycles: 73346689 heartbeat IPC: 0.702534 cumulative IPC: 0.701576 (Simulation time: 0 hr 54 min 33 sec) 
Heartbeat CPU 0 instructions: 89000001 cycles: 74762486 heartbeat IPC: 0.706317 cumulative IPC: 0.701697 (Simulation time: 0 hr 55 min 10 sec) 
Heartbeat CPU 0 instructions: 90000000 cycles: 76187946 heartbeat IPC: 0.701527 cumulative IPC: 0.701693 (Simulation time: 0 hr 55 min 47 sec) 
Heartbeat CPU 0 instructions: 91000001 cycles: 77611064 heartbeat IPC: 0.702683 cumulative IPC: 0.701717 (Simulation time: 0 hr 56 min 24 sec) 
Heartbeat CPU 0 instructions: 92000000 cycles: 82156694 heartbeat IPC: 0.219991 cumulative IPC: 0.666944 (Simulation time: 0 hr 57 min 46 sec) 
Heartbeat CPU 0 instructions: 93000000 cycles: 86791910 heartbeat IPC: 0.21574 cumulative IPC: 0.63601 (Simulation time: 0 hr 59 min 10 sec) 
Heartbeat CPU 0 instructions: 94000002 cycles: 89980556 heartbeat IPC: 0.313613 cumulative IPC: 0.62149 (Simulation time: 1 hr 0 min 19 sec) 
Heartbeat CPU 0 instructions: 95000000 cycles: 91331803 heartbeat IPC: 0.740056 cumulative IPC: 0.62371 (Simulation time: 1 hr 1 min 7 sec) 
Heartbeat CPU 0 instructions: 96000000 cycles: 92699168 heartbeat IPC: 0.731334 cumulative IPC: 0.625712 (Simulation time: 1 hr 1 min 46 sec) 
Heartbeat CPU 0 instructions: 97000002 cycles: 93966875 heartbeat IPC: 0.788827 cumulative IPC: 0.628477 (Simulation time: 1 hr 2 min 24 sec) 
Heartbeat CPU 0 instructions: 98000003 cycles: 95221865 heartbeat IPC: 0.79682 cumulative IPC: 0.631256 (Simulation time: 1 hr 3 min 1 sec) 
Heartbeat CPU 0 instructions: 99000000 cycles: 96481266 heartbeat IPC: 0.794026 cumulative IPC: 0.633907 (Simulation time: 1 hr 3 min 39 sec) 
Heartbeat CPU 0 instructions: 100000000 cycles: 97737927 heartbeat IPC: 0.79576 cumulative IPC: 0.636497 (Simulation time: 1 hr 4 min 17 sec) 
Heartbeat CPU 0 instructions: 101000001 cycles: 98990961 heartbeat IPC: 0.798064 cumulative IPC: 0.639033 (Simulation time: 1 hr 4 min 55 sec) 
Heartbeat CPU 0 instructions: 102000000 cycles: 100241978 heartbeat IPC: 0.799349 cumulative IPC: 0.641508 (Simulation time: 1 hr 5 min 32 sec) 
Heartbeat CPU 0 instructions: 103000002 cycles: 101492696 heartbeat IPC: 0.799542 cumulative IPC: 0.643909 (Simulation time: 1 hr 6 min 11 sec) 
Heartbeat CPU 0 instructions: 104000000 cycles: 102747545 heartbeat IPC: 0.796907 cumulative IPC: 0.646206 (Simulation time: 1 hr 6 min 49 sec) 
Heartbeat CPU 0 instructions: 105000003 cycles: 104000047 heartbeat IPC: 0.798404 cumulative IPC: 0.648454 (Simulation time: 1 hr 7 min 26 sec) 
Heartbeat CPU 0 instructions: 106000002 cycles: 105247727 heartbeat IPC: 0.801487 cumulative IPC: 0.650672 (Simulation time: 1 hr 8 min 4 sec) 
Heartbeat CPU 0 instructions: 107000002 cycles: 106506318 heartbeat IPC: 0.794539 cumulative IPC: 0.652746 (Simulation time: 1 hr 8 min 41 sec) 
Heartbeat CPU 0 instructions: 108000000 cycles: 107765144 heartbeat IPC: 0.794389 cumulative IPC: 0.654759 (Simulation time: 1 hr 9 min 16 sec) 
Heartbeat CPU 0 instructions: 109000001 cycles: 109017815 heartbeat IPC: 0.798295 cumulative IPC: 0.65676 (Simulation time: 1 hr 9 min 54 sec) 
Heartbeat CPU 0 instructions: 110000001 cycles: 110278375 heartbeat IPC: 0.793298 cumulative IPC: 0.65865 (Simulation time: 1 hr 10 min 30 sec) 
Heartbeat CPU 0 instructions: 111000000 cycles: 111538351 heartbeat IPC: 0.793665 cumulative IPC: 0.660492 (Simulation time: 1 hr 11 min 12 sec) 
Heartbeat CPU 0 instructions: 112000000 cycles: 112796730 heartbeat IPC: 0.794673 cumulative IPC: 0.662295 (Simulation time: 1 hr 11 min 51 sec) 
Heartbeat CPU 0 instructions: 113000002 cycles: 114059138 heartbeat IPC: 0.792139 cumulative IPC: 0.664023 (Simulation time: 1 hr 12 min 32 sec) 
Heartbeat CPU 0 instructions: 114000000 cycles: 115311788 heartbeat IPC: 0.798306 cumulative IPC: 0.665773 (Simulation time: 1 hr 13 min 15 sec) 
Heartbeat CPU 0 instructions: 115000002 cycles: 116572693 heartbeat IPC: 0.793083 cumulative IPC: 0.667421 (Simulation time: 1 hr 13 min 52 sec) 
Heartbeat CPU 0 instructions: 116000000 cycles: 117831246 heartbeat IPC: 0.794562 cumulative IPC: 0.669043 (Simulation time: 1 hr 14 min 30 sec) 
Heartbeat CPU 0 instructions: 117000003 cycles: 119092447 heartbeat IPC: 0.792897 cumulative IPC: 0.670607 (Simulation time: 1 hr 15 min 9 sec) 
Heartbeat CPU 0 instructions: 118000000 cycles: 120351259 heartbeat IPC: 0.794397 cumulative IPC: 0.672147 (Simulation time: 1 hr 15 min 47 sec) 
Heartbeat CPU 0 instructions: 119000003 cycles: 121612932 heartbeat IPC: 0.792601 cumulative IPC: 0.673631 (Simulation time: 1 hr 16 min 26 sec) 
Heartbeat CPU 0 instructions: 120000000 cycles: 122870556 heartbeat IPC: 0.795148 cumulative IPC: 0.675105 (Simulation time: 1 hr 17 min 3 sec) 
Heartbeat CPU 0 instructions: 121000003 cycles: 124127451 heartbeat IPC: 0.795614 cumulative IPC: 0.676548 (Simulation time: 1 hr 17 min 43 sec) 
Heartbeat CPU 0 instructions: 122000001 cycles: 125384177 heartbeat IPC: 0.795717 cumulative IPC: 0.677958 (Simulation time: 1 hr 18 min 16 sec) 
Heartbeat CPU 0 instructions: 123000000 cycles: 126642197 heartbeat IPC: 0.794899 cumulative IPC: 0.679327 (Simulation time: 1 hr 18 min 54 sec) 
Heartbeat CPU 0 instructions: 124000000 cycles: 127899348 heartbeat IPC: 0.795449 cumulative IPC: 0.68067 (Simulation time: 1 hr 19 min 35 sec) 
Heartbeat CPU 0 instructions: 125000003 cycles: 129161814 heartbeat IPC: 0.792103 cumulative IPC: 0.681949 (Simulation time: 1 hr 20 min 12 sec) 
Heartbeat CPU 0 instructions: 126000000 cycles: 130418774 heartbeat IPC: 0.795568 cumulative IPC: 0.683233 (Simulation time: 1 hr 20 min 49 sec) 
Heartbeat CPU 0 instructions: 127000000 cycles: 131678402 heartbeat IPC: 0.793885 cumulative IPC: 0.684472 (Simulation time: 1 hr 21 min 25 sec) 
Heartbeat CPU 0 instructions: 128000000 cycles: 132934806 heartbeat IPC: 0.795922 cumulative IPC: 0.685703 (Simulation time: 1 hr 22 min 2 sec) 
Heartbeat CPU 0 instructions: 129000000 cycles: 134194098 heartbeat IPC: 0.794097 cumulative IPC: 0.68689 (Simulation time: 1 hr 22 min 38 sec) 
Heartbeat CPU 0 instructions: 130000002 cycles: 135456040 heartbeat IPC: 0.792431 cumulative IPC: 0.688035 (Simulation time: 1 hr 23 min 11 sec) 
Heartbeat CPU 0 instructions: 131000002 cycles: 136714373 heartbeat IPC: 0.794702 cumulative IPC: 0.689177 (Simulation time: 1 hr 23 min 44 sec) 
Heartbeat CPU 0 instructions: 132000000 cycles: 137975456 heartbeat IPC: 0.792968 cumulative IPC: 0.690279 (Simulation time: 1 hr 24 min 12 sec) 
Heartbeat CPU 0 instructions: 133000002 cycles: 139232877 heartbeat IPC: 0.79528 cumulative IPC: 0.691379 (Simulation time: 1 hr 24 min 42 sec) 
Heartbeat CPU 0 instructions: 134000002 cycles: 140492875 heartbeat IPC: 0.793652 cumulative IPC: 0.692441 (Simulation time: 1 hr 25 min 13 sec) 
Heartbeat CPU 0 instructions: 135000000 cycles: 141750256 heartbeat IPC: 0.795302 cumulative IPC: 0.693496 (Simulation time: 1 hr 25 min 45 sec) 
Heartbeat CPU 0 instructions: 136000000 cycles: 143012872 heartbeat IPC: 0.792006 cumulative IPC: 0.694501 (Simulation time: 1 hr 26 min 15 sec) 
Heartbeat CPU 0 instructions: 137000001 cycles: 144266153 heartbeat IPC: 0.797906 cumulative IPC: 0.695537 (Simulation time: 1 hr 26 min 43 sec) 
Heartbeat CPU 0 instructions: 138000003 cycles: 145528582 heartbeat IPC: 0.792125 cumulative IPC: 0.696502 (Simulation time: 1 hr 27 min 10 sec) 
Heartbeat CPU 0 instructions: 139000001 cycles: 146785686 heartbeat IPC: 0.795478 cumulative IPC: 0.697477 (Simulation time: 1 hr 27 min 33 sec) 
Heartbeat CPU 0 instructions: 140000000 cycles: 148045056 heartbeat IPC: 0.794047 cumulative IPC: 0.698421 (Simulation time: 1 hr 27 min 56 sec) 
Heartbeat CPU 0 instructions: 141000003 cycles: 149307408 heartbeat IPC: 0.792174 cumulative IPC: 0.69933 (Simulation time: 1 hr 28 min 20 sec) 
Heartbeat CPU 0 instructions: 142000001 cycles: 150567271 heartbeat IPC: 0.793736 cumulative IPC: 0.700236 (Simulation time: 1 hr 28 min 43 sec) 
Heartbeat CPU 0 instructions: 143000001 cycles: 151830245 heartbeat IPC: 0.791782 cumulative IPC: 0.701107 (Simulation time: 1 hr 29 min 4 sec) 
Heartbeat CPU 0 instructions: 144000000 cycles: 153084506 heartbeat IPC: 0.797281 cumulative IPC: 0.702008 (Simulation time: 1 hr 29 min 27 sec) 
Heartbeat CPU 0 instructions: 145000001 cycles: 154343017 heartbeat IPC: 0.794591 cumulative IPC: 0.70287 (Simulation time: 1 hr 29 min 48 sec) 
Heartbeat CPU 0 instructions: 146000003 cycles: 155599750 heartbeat IPC: 0.795716 cumulative IPC: 0.703726 (Simulation time: 1 hr 30 min 10 sec) 
Heartbeat CPU 0 instructions: 147000003 cycles: 156858418 heartbeat IPC: 0.794491 cumulative IPC: 0.704555 (Simulation time: 1 hr 30 min 31 sec) 
Heartbeat CPU 0 instructions: 148000000 cycles: 158116219 heartbeat IPC: 0.795036 cumulative IPC: 0.705374 (Simulation time: 1 hr 31 min 0 sec) 
Heartbeat CPU 0 instructions: 149000001 cycles: 159375137 heartbeat IPC: 0.794334 cumulative IPC: 0.706173 (Simulation time: 1 hr 31 min 22 sec) 
Heartbeat CPU 0 instructions: 150000003 cycles: 160637877 heartbeat IPC: 0.79193 cumulative IPC: 0.706939 (Simulation time: 1 hr 31 min 44 sec) 
Finished CPU 0 instructions: 100000003 cycles: 141454947 cummulative IPC: 0.706939 (Simulation time: 1 hr 31 min 44 sec) 

ChampSim completed all CPUs

Region of Interest Statistics

CPU 0 cummulative IPC: 0.706939 instructions: 100000003 cycles: 141454947
LLC TOTAL     ACCESS:    2853535  HIT:     113658  MISS:    2739877
LLC LOAD      ACCESS:     878685  HIT:         28  MISS:     878657
LLC RFO       ACCESS:     539880  HIT:        750  MISS:     539130
LLC PREFETCH  ACCESS:     754987  HIT:        942  MISS:     754045
LLC WRITEBACK ACCESS:     679983  HIT:     111938  MISS:     568045
OPTgen accesses: 10787
OPTgen hits: 165
OPTgen hit rate: 1.52962


