
*** ChampSim Multicore Out-of-Order Simulator ***

Warmup Instructions: 50000000
Simulation Instructions: 100000000
Configuration: 2
Number of CPUs: 1
LLC sets: 2048
LLC ways: 16
Off-chip DRAM Channels: 1 Width: 64-bit Data Rate: 1600 MT/s

CPU 0 runs /datasets/cs240c-wi22-a00-public/data/Assignment2-gz/leslie3d_1116B.trace.gz
CPU 0 L1D next line prefetcher
CPU 0 L2C IP-based stride prefetcher
Initialize Hawkeye state
Heartbeat CPU 0 instructions: 1000003 cycles: 535311 heartbeat IPC: 1.86808 cumulative IPC: 1.86808 (Simulation time: 0 hr 0 min 56 sec) 
Heartbeat CPU 0 instructions: 2000003 cycles: 1071193 heartbeat IPC: 1.86608 cumulative IPC: 1.86708 (Simulation time: 0 hr 1 min 55 sec) 
Heartbeat CPU 0 instructions: 3000003 cycles: 1607887 heartbeat IPC: 1.86326 cumulative IPC: 1.8658 (Simulation time: 0 hr 2 min 58 sec) 
Heartbeat CPU 0 instructions: 4000000 cycles: 2143237 heartbeat IPC: 1.86793 cumulative IPC: 1.86634 (Simulation time: 0 hr 4 min 3 sec) 
Heartbeat CPU 0 instructions: 5000001 cycles: 2678355 heartbeat IPC: 1.86875 cumulative IPC: 1.86682 (Simulation time: 0 hr 5 min 10 sec) 
Heartbeat CPU 0 instructions: 6000001 cycles: 3213772 heartbeat IPC: 1.8677 cumulative IPC: 1.86697 (Simulation time: 0 hr 6 min 15 sec) 
Heartbeat CPU 0 instructions: 7000001 cycles: 3749733 heartbeat IPC: 1.86581 cumulative IPC: 1.8668 (Simulation time: 0 hr 7 min 18 sec) 
Heartbeat CPU 0 instructions: 8000000 cycles: 4285754 heartbeat IPC: 1.8656 cumulative IPC: 1.86665 (Simulation time: 0 hr 8 min 18 sec) 
Heartbeat CPU 0 instructions: 9000003 cycles: 4820795 heartbeat IPC: 1.86902 cumulative IPC: 1.86691 (Simulation time: 0 hr 9 min 23 sec) 
Heartbeat CPU 0 instructions: 10000002 cycles: 5355763 heartbeat IPC: 1.86927 cumulative IPC: 1.86715 (Simulation time: 0 hr 10 min 26 sec) 
Heartbeat CPU 0 instructions: 11000001 cycles: 5891473 heartbeat IPC: 1.86668 cumulative IPC: 1.86711 (Simulation time: 0 hr 11 min 30 sec) 
Heartbeat CPU 0 instructions: 12000000 cycles: 6427873 heartbeat IPC: 1.86428 cumulative IPC: 1.86687 (Simulation time: 0 hr 12 min 32 sec) 
Heartbeat CPU 0 instructions: 13000002 cycles: 6963155 heartbeat IPC: 1.86818 cumulative IPC: 1.86697 (Simulation time: 0 hr 13 min 32 sec) 
Heartbeat CPU 0 instructions: 14000003 cycles: 7497902 heartbeat IPC: 1.87005 cumulative IPC: 1.86719 (Simulation time: 0 hr 14 min 33 sec) 
Heartbeat CPU 0 instructions: 15000002 cycles: 8033355 heartbeat IPC: 1.86758 cumulative IPC: 1.86722 (Simulation time: 0 hr 15 min 36 sec) 
Heartbeat CPU 0 instructions: 16000000 cycles: 8569486 heartbeat IPC: 1.86521 cumulative IPC: 1.86709 (Simulation time: 0 hr 16 min 35 sec) 
Heartbeat CPU 0 instructions: 17000003 cycles: 9105833 heartbeat IPC: 1.86447 cumulative IPC: 1.86694 (Simulation time: 0 hr 17 min 32 sec) 
Heartbeat CPU 0 instructions: 18000001 cycles: 9640838 heartbeat IPC: 1.86914 cumulative IPC: 1.86706 (Simulation time: 0 hr 18 min 27 sec) 
Heartbeat CPU 0 instructions: 19000001 cycles: 10176260 heartbeat IPC: 1.86769 cumulative IPC: 1.86709 (Simulation time: 0 hr 19 min 23 sec) 
Heartbeat CPU 0 instructions: 20000000 cycles: 10711644 heartbeat IPC: 1.86782 cumulative IPC: 1.86713 (Simulation time: 0 hr 20 min 23 sec) 
Heartbeat CPU 0 instructions: 21000000 cycles: 11248135 heartbeat IPC: 1.86396 cumulative IPC: 1.86698 (Simulation time: 0 hr 21 min 22 sec) 
Heartbeat CPU 0 instructions: 22000000 cycles: 11783244 heartbeat IPC: 1.86878 cumulative IPC: 1.86706 (Simulation time: 0 hr 22 min 17 sec) 
Heartbeat CPU 0 instructions: 23000003 cycles: 12318479 heartbeat IPC: 1.86834 cumulative IPC: 1.86711 (Simulation time: 0 hr 23 min 7 sec) 
Heartbeat CPU 0 instructions: 24000000 cycles: 12853555 heartbeat IPC: 1.86889 cumulative IPC: 1.86719 (Simulation time: 0 hr 23 min 54 sec) 
Heartbeat CPU 0 instructions: 25000001 cycles: 13389525 heartbeat IPC: 1.86578 cumulative IPC: 1.86713 (Simulation time: 0 hr 24 min 37 sec) 
Heartbeat CPU 0 instructions: 26000002 cycles: 13925820 heartbeat IPC: 1.86465 cumulative IPC: 1.86704 (Simulation time: 0 hr 25 min 21 sec) 
Heartbeat CPU 0 instructions: 27000003 cycles: 14460757 heartbeat IPC: 1.86938 cumulative IPC: 1.86712 (Simulation time: 0 hr 26 min 5 sec) 
Heartbeat CPU 0 instructions: 28000000 cycles: 14995856 heartbeat IPC: 1.86881 cumulative IPC: 1.86718 (Simulation time: 0 hr 26 min 47 sec) 
Heartbeat CPU 0 instructions: 29000000 cycles: 15531372 heartbeat IPC: 1.86736 cumulative IPC: 1.86719 (Simulation time: 0 hr 27 min 26 sec) 
Heartbeat CPU 0 instructions: 30000002 cycles: 16068229 heartbeat IPC: 1.8627 cumulative IPC: 1.86704 (Simulation time: 0 hr 28 min 8 sec) 
Heartbeat CPU 0 instructions: 31000001 cycles: 16603472 heartbeat IPC: 1.86831 cumulative IPC: 1.86708 (Simulation time: 0 hr 28 min 51 sec) 
Heartbeat CPU 0 instructions: 32000000 cycles: 17138988 heartbeat IPC: 1.86736 cumulative IPC: 1.86709 (Simulation time: 0 hr 29 min 30 sec) 
Heartbeat CPU 0 instructions: 33000001 cycles: 17674266 heartbeat IPC: 1.86819 cumulative IPC: 1.86712 (Simulation time: 0 hr 30 min 10 sec) 
Heartbeat CPU 0 instructions: 34000000 cycles: 18210043 heartbeat IPC: 1.86645 cumulative IPC: 1.8671 (Simulation time: 0 hr 30 min 51 sec) 
Heartbeat CPU 0 instructions: 35000000 cycles: 18746128 heartbeat IPC: 1.86538 cumulative IPC: 1.86705 (Simulation time: 0 hr 31 min 34 sec) 
Heartbeat CPU 0 instructions: 36000000 cycles: 19280763 heartbeat IPC: 1.87043 cumulative IPC: 1.86715 (Simulation time: 0 hr 32 min 16 sec) 
Heartbeat CPU 0 instructions: 37000003 cycles: 19863074 heartbeat IPC: 1.7173 cumulative IPC: 1.86275 (Simulation time: 0 hr 32 min 57 sec) 
Heartbeat CPU 0 instructions: 38000003 cycles: 20281323 heartbeat IPC: 2.39092 cumulative IPC: 1.87365 (Simulation time: 0 hr 33 min 37 sec) 
Heartbeat CPU 0 instructions: 39000003 cycles: 20699484 heartbeat IPC: 2.39142 cumulative IPC: 1.88411 (Simulation time: 0 hr 34 min 15 sec) 
Heartbeat CPU 0 instructions: 40000000 cycles: 21117863 heartbeat IPC: 2.39017 cumulative IPC: 1.89413 (Simulation time: 0 hr 34 min 53 sec) 
Heartbeat CPU 0 instructions: 41000002 cycles: 21536027 heartbeat IPC: 2.39141 cumulative IPC: 1.90379 (Simulation time: 0 hr 35 min 32 sec) 
Heartbeat CPU 0 instructions: 42000001 cycles: 21953879 heartbeat IPC: 2.39319 cumulative IPC: 1.9131 (Simulation time: 0 hr 36 min 12 sec) 
Heartbeat CPU 0 instructions: 43000003 cycles: 22371908 heartbeat IPC: 2.39218 cumulative IPC: 1.92205 (Simulation time: 0 hr 36 min 49 sec) 
Heartbeat CPU 0 instructions: 44000000 cycles: 22789820 heartbeat IPC: 2.39284 cumulative IPC: 1.93069 (Simulation time: 0 hr 37 min 27 sec) 
Heartbeat CPU 0 instructions: 45000002 cycles: 23207949 heartbeat IPC: 2.39161 cumulative IPC: 1.93899 (Simulation time: 0 hr 38 min 5 sec) 
Heartbeat CPU 0 instructions: 46000002 cycles: 23625857 heartbeat IPC: 2.39287 cumulative IPC: 1.94702 (Simulation time: 0 hr 38 min 44 sec) 
Heartbeat CPU 0 instructions: 47000001 cycles: 24043541 heartbeat IPC: 2.39415 cumulative IPC: 1.95479 (Simulation time: 0 hr 39 min 22 sec) 
Heartbeat CPU 0 instructions: 48000000 cycles: 24461514 heartbeat IPC: 2.3925 cumulative IPC: 1.96227 (Simulation time: 0 hr 40 min 0 sec) 
Heartbeat CPU 0 instructions: 49000000 cycles: 24918759 heartbeat IPC: 2.18701 cumulative IPC: 1.96639 (Simulation time: 0 hr 40 min 40 sec) 
Heartbeat CPU 0 instructions: 50000000 cycles: 25406045 heartbeat IPC: 2.05218 cumulative IPC: 1.96804 (Simulation time: 0 hr 41 min 23 sec) 

Warmup complete CPU 0 instructions: 50000004 cycles: 25406047 (Simulation time: 0 hr 41 min 23 sec) 

Heartbeat CPU 0 instructions: 51000003 cycles: 27735564 heartbeat IPC: 0.429274 cumulative IPC: 0.429273 (Simulation time: 0 hr 42 min 17 sec) 
Heartbeat CPU 0 instructions: 52000000 cycles: 30145363 heartbeat IPC: 0.414971 cumulative IPC: 0.422001 (Simulation time: 0 hr 43 min 10 sec) 
Heartbeat CPU 0 instructions: 53000003 cycles: 32576322 heartbeat IPC: 0.411362 cumulative IPC: 0.418394 (Simulation time: 0 hr 44 min 6 sec) 
Heartbeat CPU 0 instructions: 54000000 cycles: 34979020 heartbeat IPC: 0.416198 cumulative IPC: 0.417843 (Simulation time: 0 hr 45 min 9 sec) 
Heartbeat CPU 0 instructions: 55000002 cycles: 37328023 heartbeat IPC: 0.425713 cumulative IPC: 0.419393 (Simulation time: 0 hr 46 min 10 sec) 
Heartbeat CPU 0 instructions: 56000000 cycles: 39705554 heartbeat IPC: 0.420604 cumulative IPC: 0.419595 (Simulation time: 0 hr 47 min 12 sec) 
Heartbeat CPU 0 instructions: 57000001 cycles: 42042935 heartbeat IPC: 0.42783 cumulative IPC: 0.420752 (Simulation time: 0 hr 48 min 14 sec) 
Heartbeat CPU 0 instructions: 58000001 cycles: 44292472 heartbeat IPC: 0.444536 cumulative IPC: 0.423584 (Simulation time: 0 hr 49 min 14 sec) 
Heartbeat CPU 0 instructions: 59000000 cycles: 45565136 heartbeat IPC: 0.785753 cumulative IPC: 0.446449 (Simulation time: 0 hr 50 min 6 sec) 
Heartbeat CPU 0 instructions: 60000000 cycles: 46853368 heartbeat IPC: 0.776258 cumulative IPC: 0.466259 (Simulation time: 0 hr 51 min 1 sec) 
Heartbeat CPU 0 instructions: 61000000 cycles: 48232382 heartbeat IPC: 0.725156 cumulative IPC: 0.481899 (Simulation time: 0 hr 51 min 50 sec) 
Heartbeat CPU 0 instructions: 62000002 cycles: 49558804 heartbeat IPC: 0.753909 cumulative IPC: 0.496838 (Simulation time: 0 hr 52 min 38 sec) 
Heartbeat CPU 0 instructions: 63000003 cycles: 50770889 heartbeat IPC: 0.825025 cumulative IPC: 0.51252 (Simulation time: 0 hr 53 min 25 sec) 
Heartbeat CPU 0 instructions: 64000000 cycles: 51954370 heartbeat IPC: 0.844962 cumulative IPC: 0.52734 (Simulation time: 0 hr 54 min 15 sec) 
Heartbeat CPU 0 instructions: 65000001 cycles: 53485349 heartbeat IPC: 0.653177 cumulative IPC: 0.534201 (Simulation time: 0 hr 55 min 0 sec) 
Heartbeat CPU 0 instructions: 66000000 cycles: 54697742 heartbeat IPC: 0.824814 cumulative IPC: 0.54623 (Simulation time: 0 hr 55 min 47 sec) 
Heartbeat CPU 0 instructions: 67000001 cycles: 55925177 heartbeat IPC: 0.814708 cumulative IPC: 0.557028 (Simulation time: 0 hr 56 min 35 sec) 
Heartbeat CPU 0 instructions: 68000000 cycles: 57305113 heartbeat IPC: 0.724671 cumulative IPC: 0.56428 (Simulation time: 0 hr 57 min 21 sec) 
Heartbeat CPU 0 instructions: 69000002 cycles: 58579966 heartbeat IPC: 0.784406 cumulative IPC: 0.572739 (Simulation time: 0 hr 58 min 7 sec) 
Heartbeat CPU 0 instructions: 70000000 cycles: 59778470 heartbeat IPC: 0.834372 cumulative IPC: 0.581862 (Simulation time: 0 hr 58 min 53 sec) 
Heartbeat CPU 0 instructions: 71000002 cycles: 60996970 heartbeat IPC: 0.820683 cumulative IPC: 0.590038 (Simulation time: 0 hr 59 min 41 sec) 
Heartbeat CPU 0 instructions: 72000000 cycles: 62415979 heartbeat IPC: 0.704716 cumulative IPC: 0.594435 (Simulation time: 1 hr 0 min 27 sec) 
Heartbeat CPU 0 instructions: 73000000 cycles: 63629256 heartbeat IPC: 0.824214 cumulative IPC: 0.601729 (Simulation time: 1 hr 1 min 14 sec) 
Heartbeat CPU 0 instructions: 74000000 cycles: 64836453 heartbeat IPC: 0.828365 cumulative IPC: 0.608667 (Simulation time: 1 hr 2 min 3 sec) 
Heartbeat CPU 0 instructions: 75000002 cycles: 66299072 heartbeat IPC: 0.683706 cumulative IPC: 0.611351 (Simulation time: 1 hr 2 min 49 sec) 
Heartbeat CPU 0 instructions: 76000000 cycles: 67506501 heartbeat IPC: 0.828204 cumulative IPC: 0.61757 (Simulation time: 1 hr 3 min 36 sec) 
Heartbeat CPU 0 instructions: 77000001 cycles: 68701218 heartbeat IPC: 0.837019 cumulative IPC: 0.623626 (Simulation time: 1 hr 4 min 24 sec) 
Heartbeat CPU 0 instructions: 78000000 cycles: 70021921 heartbeat IPC: 0.757172 cumulative IPC: 0.627579 (Simulation time: 1 hr 5 min 9 sec) 
Heartbeat CPU 0 instructions: 79000001 cycles: 71363006 heartbeat IPC: 0.745666 cumulative IPC: 0.631025 (Simulation time: 1 hr 5 min 57 sec) 
Heartbeat CPU 0 instructions: 80000000 cycles: 72562826 heartbeat IPC: 0.833458 cumulative IPC: 0.636176 (Simulation time: 1 hr 6 min 43 sec) 
Heartbeat CPU 0 instructions: 81000003 cycles: 73757977 heartbeat IPC: 0.836717 cumulative IPC: 0.641133 (Simulation time: 1 hr 7 min 34 sec) 
Heartbeat CPU 0 instructions: 82000000 cycles: 75208555 heartbeat IPC: 0.689378 cumulative IPC: 0.642538 (Simulation time: 1 hr 8 min 19 sec) 
Heartbeat CPU 0 instructions: 83000001 cycles: 76408929 heartbeat IPC: 0.833075 cumulative IPC: 0.647022 (Simulation time: 1 hr 9 min 5 sec) 
Heartbeat CPU 0 instructions: 84000000 cycles: 77610844 heartbeat IPC: 0.832005 cumulative IPC: 0.651281 (Simulation time: 1 hr 9 min 51 sec) 
Heartbeat CPU 0 instructions: 85000003 cycles: 79054749 heartbeat IPC: 0.692568 cumulative IPC: 0.652392 (Simulation time: 1 hr 10 min 40 sec) 
Heartbeat CPU 0 instructions: 86000002 cycles: 80267176 heartbeat IPC: 0.824791 cumulative IPC: 0.656202 (Simulation time: 1 hr 11 min 28 sec) 
Heartbeat CPU 0 instructions: 87000001 cycles: 81457455 heartbeat IPC: 0.840138 cumulative IPC: 0.660108 (Simulation time: 1 hr 12 min 15 sec) 
Heartbeat CPU 0 instructions: 88000000 cycles: 82690465 heartbeat IPC: 0.811023 cumulative IPC: 0.663357 (Simulation time: 1 hr 13 min 2 sec) 
Heartbeat CPU 0 instructions: 89000001 cycles: 84114856 heartbeat IPC: 0.702055 cumulative IPC: 0.664295 (Simulation time: 1 hr 13 min 50 sec) 
Heartbeat CPU 0 instructions: 90000003 cycles: 85313679 heartbeat IPC: 0.834153 cumulative IPC: 0.667695 (Simulation time: 1 hr 14 min 39 sec) 
Heartbeat CPU 0 instructions: 91000000 cycles: 86521337 heartbeat IPC: 0.828047 cumulative IPC: 0.670863 (Simulation time: 1 hr 15 min 26 sec) 
Heartbeat CPU 0 instructions: 92000000 cycles: 87989040 heartbeat IPC: 0.681337 cumulative IPC: 0.671109 (Simulation time: 1 hr 16 min 15 sec) 
Heartbeat CPU 0 instructions: 93000002 cycles: 89187803 heartbeat IPC: 0.834195 cumulative IPC: 0.674174 (Simulation time: 1 hr 17 min 1 sec) 
Heartbeat CPU 0 instructions: 94000000 cycles: 90392251 heartbeat IPC: 0.830254 cumulative IPC: 0.677067 (Simulation time: 1 hr 17 min 47 sec) 
Heartbeat CPU 0 instructions: 95000003 cycles: 91749077 heartbeat IPC: 0.737016 cumulative IPC: 0.678293 (Simulation time: 1 hr 18 min 30 sec) 
Heartbeat CPU 0 instructions: 96000000 cycles: 93080518 heartbeat IPC: 0.751064 cumulative IPC: 0.679725 (Simulation time: 1 hr 19 min 17 sec) 
Heartbeat CPU 0 instructions: 97000000 cycles: 94267957 heartbeat IPC: 0.842149 cumulative IPC: 0.682525 (Simulation time: 1 hr 20 min 2 sec) 
Heartbeat CPU 0 instructions: 98000000 cycles: 95477113 heartbeat IPC: 0.827023 cumulative IPC: 0.685019 (Simulation time: 1 hr 20 min 47 sec) 
Heartbeat CPU 0 instructions: 99000003 cycles: 96942904 heartbeat IPC: 0.682228 cumulative IPC: 0.684962 (Simulation time: 1 hr 21 min 33 sec) 
Heartbeat CPU 0 instructions: 100000000 cycles: 98161553 heartbeat IPC: 0.820578 cumulative IPC: 0.687233 (Simulation time: 1 hr 22 min 17 sec) 
Heartbeat CPU 0 instructions: 101000001 cycles: 99373282 heartbeat IPC: 0.825268 cumulative IPC: 0.689494 (Simulation time: 1 hr 23 min 0 sec) 
Heartbeat CPU 0 instructions: 102000003 cycles: 100826833 heartbeat IPC: 0.687972 cumulative IPC: 0.689465 (Simulation time: 1 hr 23 min 39 sec) 
Heartbeat CPU 0 instructions: 103000002 cycles: 102042044 heartbeat IPC: 0.822902 cumulative IPC: 0.691581 (Simulation time: 1 hr 24 min 17 sec) 
Heartbeat CPU 0 instructions: 104000000 cycles: 103253009 heartbeat IPC: 0.825786 cumulative IPC: 0.693669 (Simulation time: 1 hr 24 min 59 sec) 
Heartbeat CPU 0 instructions: 105000000 cycles: 104502589 heartbeat IPC: 0.800269 cumulative IPC: 0.695353 (Simulation time: 1 hr 25 min 35 sec) 
Heartbeat CPU 0 instructions: 106000003 cycles: 106493722 heartbeat IPC: 0.502228 cumulative IPC: 0.69061 (Simulation time: 1 hr 26 min 17 sec) 
Heartbeat CPU 0 instructions: 107000002 cycles: 108195131 heartbeat IPC: 0.587748 cumulative IPC: 0.688497 (Simulation time: 1 hr 26 min 53 sec) 
Heartbeat CPU 0 instructions: 108000000 cycles: 109904092 heartbeat IPC: 0.58515 cumulative IPC: 0.686406 (Simulation time: 1 hr 27 min 26 sec) 
Heartbeat CPU 0 instructions: 109000003 cycles: 111491223 heartbeat IPC: 0.63007 cumulative IPC: 0.685368 (Simulation time: 1 hr 27 min 59 sec) 
Heartbeat CPU 0 instructions: 110000003 cycles: 113157055 heartbeat IPC: 0.600301 cumulative IPC: 0.683753 (Simulation time: 1 hr 28 min 30 sec) 
Heartbeat CPU 0 instructions: 111000003 cycles: 114729608 heartbeat IPC: 0.635909 cumulative IPC: 0.682911 (Simulation time: 1 hr 28 min 58 sec) 
Heartbeat CPU 0 instructions: 112000000 cycles: 116367696 heartbeat IPC: 0.610466 cumulative IPC: 0.681606 (Simulation time: 1 hr 29 min 27 sec) 
Heartbeat CPU 0 instructions: 113000000 cycles: 117926277 heartbeat IPC: 0.641609 cumulative IPC: 0.680932 (Simulation time: 1 hr 29 min 54 sec) 
Heartbeat CPU 0 instructions: 114000000 cycles: 119578128 heartbeat IPC: 0.605381 cumulative IPC: 0.679607 (Simulation time: 1 hr 30 min 21 sec) 
Heartbeat CPU 0 instructions: 115000000 cycles: 121142626 heartbeat IPC: 0.639183 cumulative IPC: 0.678946 (Simulation time: 1 hr 30 min 51 sec) 
Heartbeat CPU 0 instructions: 116000000 cycles: 123389824 heartbeat IPC: 0.444999 cumulative IPC: 0.673581 (Simulation time: 1 hr 31 min 31 sec) 
Heartbeat CPU 0 instructions: 117000003 cycles: 125686314 heartbeat IPC: 0.435448 cumulative IPC: 0.668127 (Simulation time: 1 hr 32 min 5 sec) 
Heartbeat CPU 0 instructions: 118000002 cycles: 128121274 heartbeat IPC: 0.410684 cumulative IPC: 0.662024 (Simulation time: 1 hr 32 min 32 sec) 
Heartbeat CPU 0 instructions: 119000002 cycles: 130575324 heartbeat IPC: 0.40749 cumulative IPC: 0.656085 (Simulation time: 1 hr 33 min 0 sec) 
Heartbeat CPU 0 instructions: 120000000 cycles: 132965723 heartbeat IPC: 0.418339 cumulative IPC: 0.650801 (Simulation time: 1 hr 33 min 30 sec) 
Heartbeat CPU 0 instructions: 121000001 cycles: 135298384 heartbeat IPC: 0.428695 cumulative IPC: 0.646087 (Simulation time: 1 hr 34 min 0 sec) 
Heartbeat CPU 0 instructions: 122000002 cycles: 137628352 heartbeat IPC: 0.429191 cumulative IPC: 0.641584 (Simulation time: 1 hr 34 min 30 sec) 
Heartbeat CPU 0 instructions: 123000001 cycles: 139987893 heartbeat IPC: 0.423811 cumulative IPC: 0.637099 (Simulation time: 1 hr 34 min 59 sec) 
Heartbeat CPU 0 instructions: 124000000 cycles: 141297595 heartbeat IPC: 0.763532 cumulative IPC: 0.638528 (Simulation time: 1 hr 35 min 23 sec) 
Heartbeat CPU 0 instructions: 125000000 cycles: 142542988 heartbeat IPC: 0.802959 cumulative IPC: 0.640276 (Simulation time: 1 hr 35 min 46 sec) 
Heartbeat CPU 0 instructions: 126000000 cycles: 143783939 heartbeat IPC: 0.805834 cumulative IPC: 0.642012 (Simulation time: 1 hr 36 min 8 sec) 
Heartbeat CPU 0 instructions: 127000003 cycles: 145024278 heartbeat IPC: 0.806234 cumulative IPC: 0.643715 (Simulation time: 1 hr 36 min 27 sec) 
Heartbeat CPU 0 instructions: 128000000 cycles: 146306677 heartbeat IPC: 0.779786 cumulative IPC: 0.645158 (Simulation time: 1 hr 36 min 48 sec) 
Heartbeat CPU 0 instructions: 129000000 cycles: 147557392 heartbeat IPC: 0.799543 cumulative IPC: 0.646739 (Simulation time: 1 hr 37 min 8 sec) 
Heartbeat CPU 0 instructions: 130000000 cycles: 148857430 heartbeat IPC: 0.769208 cumulative IPC: 0.648028 (Simulation time: 1 hr 37 min 28 sec) 
Heartbeat CPU 0 instructions: 131000000 cycles: 150091240 heartbeat IPC: 0.810498 cumulative IPC: 0.649636 (Simulation time: 1 hr 37 min 48 sec) 
Heartbeat CPU 0 instructions: 132000000 cycles: 151357992 heartbeat IPC: 0.78942 cumulative IPC: 0.651042 (Simulation time: 1 hr 38 min 6 sec) 
Heartbeat CPU 0 instructions: 133000001 cycles: 152630396 heartbeat IPC: 0.785915 cumulative IPC: 0.652391 (Simulation time: 1 hr 38 min 23 sec) 
Heartbeat CPU 0 instructions: 134000000 cycles: 153887979 heartbeat IPC: 0.795175 cumulative IPC: 0.653788 (Simulation time: 1 hr 38 min 41 sec) 
Heartbeat CPU 0 instructions: 135000001 cycles: 155181531 heartbeat IPC: 0.773066 cumulative IPC: 0.654977 (Simulation time: 1 hr 38 min 59 sec) 
Heartbeat CPU 0 instructions: 136000000 cycles: 156426712 heartbeat IPC: 0.803095 cumulative IPC: 0.656385 (Simulation time: 1 hr 39 min 14 sec) 
Heartbeat CPU 0 instructions: 137000003 cycles: 157721426 heartbeat IPC: 0.772374 cumulative IPC: 0.65752 (Simulation time: 1 hr 39 min 30 sec) 
Heartbeat CPU 0 instructions: 138000002 cycles: 158953539 heartbeat IPC: 0.811613 cumulative IPC: 0.658942 (Simulation time: 1 hr 39 min 43 sec) 
Heartbeat CPU 0 instructions: 139000000 cycles: 160216678 heartbeat IPC: 0.791677 cumulative IPC: 0.660185 (Simulation time: 1 hr 39 min 57 sec) 
Heartbeat CPU 0 instructions: 140000000 cycles: 161498993 heartbeat IPC: 0.77984 cumulative IPC: 0.661313 (Simulation time: 1 hr 40 min 11 sec) 
Heartbeat CPU 0 instructions: 141000001 cycles: 162740506 heartbeat IPC: 0.80547 cumulative IPC: 0.662616 (Simulation time: 1 hr 40 min 23 sec) 
Heartbeat CPU 0 instructions: 142000003 cycles: 164043981 heartbeat IPC: 0.767182 cumulative IPC: 0.663599 (Simulation time: 1 hr 40 min 35 sec) 
Heartbeat CPU 0 instructions: 143000003 cycles: 165287979 heartbeat IPC: 0.80386 cumulative IPC: 0.664846 (Simulation time: 1 hr 40 min 47 sec) 
Heartbeat CPU 0 instructions: 144000000 cycles: 166584173 heartbeat IPC: 0.771487 cumulative IPC: 0.665825 (Simulation time: 1 hr 40 min 58 sec) 
Heartbeat CPU 0 instructions: 145000002 cycles: 167848323 heartbeat IPC: 0.791047 cumulative IPC: 0.666937 (Simulation time: 1 hr 41 min 9 sec) 
Heartbeat CPU 0 instructions: 146000003 cycles: 169112903 heartbeat IPC: 0.790777 cumulative IPC: 0.668027 (Simulation time: 1 hr 41 min 20 sec) 
Heartbeat CPU 0 instructions: 147000003 cycles: 170393485 heartbeat IPC: 0.780895 cumulative IPC: 0.669023 (Simulation time: 1 hr 41 min 29 sec) 
Heartbeat CPU 0 instructions: 148000000 cycles: 171638831 heartbeat IPC: 0.802987 cumulative IPC: 0.670164 (Simulation time: 1 hr 41 min 39 sec) 
Heartbeat CPU 0 instructions: 149000000 cycles: 172926267 heartbeat IPC: 0.776738 cumulative IPC: 0.671094 (Simulation time: 1 hr 41 min 50 sec) 
Heartbeat CPU 0 instructions: 150000001 cycles: 174181864 heartbeat IPC: 0.796435 cumulative IPC: 0.672152 (Simulation time: 1 hr 41 min 59 sec) 
Finished CPU 0 instructions: 100000001 cycles: 148775818 cummulative IPC: 0.672152 (Simulation time: 1 hr 41 min 59 sec) 

ChampSim completed all CPUs

Region of Interest Statistics

CPU 0 cummulative IPC: 0.672152 instructions: 100000001 cycles: 148775818
LLC TOTAL     ACCESS:    4212029  HIT:    1336752  MISS:    2875277
LLC LOAD      ACCESS:     416983  HIT:     140978  MISS:     276005
LLC RFO       ACCESS:     595329  HIT:     159224  MISS:     436105
LLC PREFETCH  ACCESS:    2364348  HIT:     551413  MISS:    1812935
LLC WRITEBACK ACCESS:     835369  HIT:     485137  MISS:     350232
OPTgen accesses: 7091
OPTgen hits: 3491
OPTgen hit rate: 49.2314


