
*** ChampSim Multicore Out-of-Order Simulator ***

Warmup Instructions: 50000000
Simulation Instructions: 100000000
Configuration: 2
Number of CPUs: 1
LLC sets: 2048
LLC ways: 16
Off-chip DRAM Channels: 1 Width: 64-bit Data Rate: 1600 MT/s

CPU 0 runs /datasets/cs240c-wi22-a00-public/data/Assignment2-gz/perlbench_53B.trace.gz
CPU 0 L1D next line prefetcher
CPU 0 L2C IP-based stride prefetcher
Initialize Hawkeye state
Heartbeat CPU 0 instructions: 1000000 cycles: 615801 heartbeat IPC: 1.6239 cumulative IPC: 1.6239 (Simulation time: 0 hr 0 min 42 sec) 
Heartbeat CPU 0 instructions: 2000001 cycles: 1252973 heartbeat IPC: 1.56944 cumulative IPC: 1.5962 (Simulation time: 0 hr 1 min 22 sec) 
Heartbeat CPU 0 instructions: 3000002 cycles: 1908460 heartbeat IPC: 1.52558 cumulative IPC: 1.57195 (Simulation time: 0 hr 2 min 5 sec) 
Heartbeat CPU 0 instructions: 4000000 cycles: 2523963 heartbeat IPC: 1.62468 cumulative IPC: 1.58481 (Simulation time: 0 hr 2 min 42 sec) 
Heartbeat CPU 0 instructions: 5000001 cycles: 3151965 heartbeat IPC: 1.59235 cumulative IPC: 1.58631 (Simulation time: 0 hr 3 min 24 sec) 
Heartbeat CPU 0 instructions: 6000001 cycles: 3767465 heartbeat IPC: 1.6247 cumulative IPC: 1.59258 (Simulation time: 0 hr 4 min 5 sec) 
Heartbeat CPU 0 instructions: 7000002 cycles: 4390335 heartbeat IPC: 1.60547 cumulative IPC: 1.59441 (Simulation time: 0 hr 4 min 47 sec) 
Heartbeat CPU 0 instructions: 8000000 cycles: 5000735 heartbeat IPC: 1.63827 cumulative IPC: 1.59976 (Simulation time: 0 hr 5 min 25 sec) 
Heartbeat CPU 0 instructions: 9000000 cycles: 5652462 heartbeat IPC: 1.53438 cumulative IPC: 1.59223 (Simulation time: 0 hr 6 min 6 sec) 
Heartbeat CPU 0 instructions: 10000001 cycles: 6287753 heartbeat IPC: 1.57408 cumulative IPC: 1.59039 (Simulation time: 0 hr 6 min 42 sec) 
Heartbeat CPU 0 instructions: 11000000 cycles: 6904528 heartbeat IPC: 1.62134 cumulative IPC: 1.59316 (Simulation time: 0 hr 7 min 18 sec) 
Heartbeat CPU 0 instructions: 12000000 cycles: 7561743 heartbeat IPC: 1.52157 cumulative IPC: 1.58694 (Simulation time: 0 hr 7 min 54 sec) 
Heartbeat CPU 0 instructions: 13000000 cycles: 8151504 heartbeat IPC: 1.6956 cumulative IPC: 1.5948 (Simulation time: 0 hr 8 min 28 sec) 
Heartbeat CPU 0 instructions: 14000000 cycles: 8768423 heartbeat IPC: 1.62096 cumulative IPC: 1.59664 (Simulation time: 0 hr 9 min 5 sec) 
Heartbeat CPU 0 instructions: 15000001 cycles: 9380527 heartbeat IPC: 1.63371 cumulative IPC: 1.59906 (Simulation time: 0 hr 9 min 45 sec) 
Heartbeat CPU 0 instructions: 16000000 cycles: 9994646 heartbeat IPC: 1.62835 cumulative IPC: 1.60086 (Simulation time: 0 hr 10 min 21 sec) 
Heartbeat CPU 0 instructions: 17000002 cycles: 10626839 heartbeat IPC: 1.5818 cumulative IPC: 1.59972 (Simulation time: 0 hr 10 min 59 sec) 
Heartbeat CPU 0 instructions: 18000002 cycles: 11287265 heartbeat IPC: 1.51417 cumulative IPC: 1.59472 (Simulation time: 0 hr 11 min 36 sec) 
Heartbeat CPU 0 instructions: 19000001 cycles: 11894357 heartbeat IPC: 1.6472 cumulative IPC: 1.5974 (Simulation time: 0 hr 12 min 15 sec) 
Heartbeat CPU 0 instructions: 20000000 cycles: 12569816 heartbeat IPC: 1.48047 cumulative IPC: 1.59111 (Simulation time: 0 hr 13 min 3 sec) 
Heartbeat CPU 0 instructions: 21000000 cycles: 13182321 heartbeat IPC: 1.63264 cumulative IPC: 1.59304 (Simulation time: 0 hr 13 min 47 sec) 
Heartbeat CPU 0 instructions: 22000000 cycles: 13738050 heartbeat IPC: 1.79944 cumulative IPC: 1.60139 (Simulation time: 0 hr 14 min 27 sec) 
Heartbeat CPU 0 instructions: 23000001 cycles: 14277132 heartbeat IPC: 1.85501 cumulative IPC: 1.61097 (Simulation time: 0 hr 15 min 6 sec) 
Heartbeat CPU 0 instructions: 24000000 cycles: 14899996 heartbeat IPC: 1.60549 cumulative IPC: 1.61074 (Simulation time: 0 hr 15 min 51 sec) 
Heartbeat CPU 0 instructions: 25000000 cycles: 15452306 heartbeat IPC: 1.81058 cumulative IPC: 1.61788 (Simulation time: 0 hr 16 min 35 sec) 
Heartbeat CPU 0 instructions: 26000001 cycles: 16005907 heartbeat IPC: 1.80636 cumulative IPC: 1.6244 (Simulation time: 0 hr 17 min 19 sec) 
Heartbeat CPU 0 instructions: 27000001 cycles: 16598004 heartbeat IPC: 1.68891 cumulative IPC: 1.6267 (Simulation time: 0 hr 18 min 3 sec) 
Heartbeat CPU 0 instructions: 28000000 cycles: 17240759 heartbeat IPC: 1.5558 cumulative IPC: 1.62406 (Simulation time: 0 hr 18 min 49 sec) 
Heartbeat CPU 0 instructions: 29000000 cycles: 17852064 heartbeat IPC: 1.63584 cumulative IPC: 1.62446 (Simulation time: 0 hr 19 min 32 sec) 
Heartbeat CPU 0 instructions: 30000000 cycles: 18407049 heartbeat IPC: 1.80185 cumulative IPC: 1.62981 (Simulation time: 0 hr 20 min 10 sec) 
Heartbeat CPU 0 instructions: 31000001 cycles: 18958369 heartbeat IPC: 1.81383 cumulative IPC: 1.63516 (Simulation time: 0 hr 20 min 50 sec) 
Heartbeat CPU 0 instructions: 32000000 cycles: 19515089 heartbeat IPC: 1.79623 cumulative IPC: 1.63976 (Simulation time: 0 hr 21 min 32 sec) 
Heartbeat CPU 0 instructions: 33000003 cycles: 20104516 heartbeat IPC: 1.69657 cumulative IPC: 1.64142 (Simulation time: 0 hr 22 min 12 sec) 
Heartbeat CPU 0 instructions: 34000001 cycles: 20713101 heartbeat IPC: 1.64315 cumulative IPC: 1.64147 (Simulation time: 0 hr 22 min 55 sec) 
Heartbeat CPU 0 instructions: 35000001 cycles: 21324469 heartbeat IPC: 1.63568 cumulative IPC: 1.64131 (Simulation time: 0 hr 23 min 38 sec) 
Heartbeat CPU 0 instructions: 36000000 cycles: 21979692 heartbeat IPC: 1.5262 cumulative IPC: 1.63788 (Simulation time: 0 hr 24 min 22 sec) 
Heartbeat CPU 0 instructions: 37000002 cycles: 22613440 heartbeat IPC: 1.57792 cumulative IPC: 1.6362 (Simulation time: 0 hr 25 min 4 sec) 
Heartbeat CPU 0 instructions: 38000000 cycles: 23233491 heartbeat IPC: 1.61277 cumulative IPC: 1.63557 (Simulation time: 0 hr 25 min 43 sec) 
Heartbeat CPU 0 instructions: 39000001 cycles: 23863613 heartbeat IPC: 1.587 cumulative IPC: 1.63429 (Simulation time: 0 hr 26 min 26 sec) 
Heartbeat CPU 0 instructions: 40000000 cycles: 24486784 heartbeat IPC: 1.60469 cumulative IPC: 1.63353 (Simulation time: 0 hr 27 min 6 sec) 
Heartbeat CPU 0 instructions: 41000002 cycles: 25110768 heartbeat IPC: 1.60261 cumulative IPC: 1.63277 (Simulation time: 0 hr 27 min 47 sec) 
Heartbeat CPU 0 instructions: 42000000 cycles: 25724559 heartbeat IPC: 1.62922 cumulative IPC: 1.63268 (Simulation time: 0 hr 28 min 29 sec) 
Heartbeat CPU 0 instructions: 43000002 cycles: 26364407 heartbeat IPC: 1.56287 cumulative IPC: 1.63099 (Simulation time: 0 hr 29 min 12 sec) 
Heartbeat CPU 0 instructions: 44000000 cycles: 27024900 heartbeat IPC: 1.51402 cumulative IPC: 1.62813 (Simulation time: 0 hr 29 min 57 sec) 
Heartbeat CPU 0 instructions: 45000001 cycles: 27483432 heartbeat IPC: 2.18088 cumulative IPC: 1.63735 (Simulation time: 0 hr 30 min 27 sec) 
Heartbeat CPU 0 instructions: 46000000 cycles: 28034107 heartbeat IPC: 1.81595 cumulative IPC: 1.64086 (Simulation time: 0 hr 31 min 6 sec) 
Heartbeat CPU 0 instructions: 47000002 cycles: 28571960 heartbeat IPC: 1.85925 cumulative IPC: 1.64497 (Simulation time: 0 hr 31 min 43 sec) 
Heartbeat CPU 0 instructions: 48000000 cycles: 29109791 heartbeat IPC: 1.85932 cumulative IPC: 1.64893 (Simulation time: 0 hr 32 min 21 sec) 
Heartbeat CPU 0 instructions: 49000000 cycles: 29710609 heartbeat IPC: 1.6644 cumulative IPC: 1.64924 (Simulation time: 0 hr 33 min 4 sec) 
Heartbeat CPU 0 instructions: 50000002 cycles: 30241912 heartbeat IPC: 1.88217 cumulative IPC: 1.65333 (Simulation time: 0 hr 33 min 39 sec) 

Warmup complete CPU 0 instructions: 50000002 cycles: 30241912 (Simulation time: 0 hr 33 min 39 sec) 

Heartbeat CPU 0 instructions: 51000000 cycles: 32172337 heartbeat IPC: 0.51802 cumulative IPC: 0.51802 (Simulation time: 0 hr 34 min 21 sec) 
Heartbeat CPU 0 instructions: 52000000 cycles: 34087342 heartbeat IPC: 0.522192 cumulative IPC: 0.520097 (Simulation time: 0 hr 35 min 4 sec) 
Heartbeat CPU 0 instructions: 53000002 cycles: 36038352 heartbeat IPC: 0.512556 cumulative IPC: 0.517559 (Simulation time: 0 hr 35 min 46 sec) 
Heartbeat CPU 0 instructions: 54000000 cycles: 38971758 heartbeat IPC: 0.3409 cumulative IPC: 0.458198 (Simulation time: 0 hr 36 min 36 sec) 
Heartbeat CPU 0 instructions: 55000000 cycles: 41473751 heartbeat IPC: 0.399681 cumulative IPC: 0.445163 (Simulation time: 0 hr 37 min 24 sec) 
Heartbeat CPU 0 instructions: 56000000 cycles: 44289623 heartbeat IPC: 0.35513 cumulative IPC: 0.427116 (Simulation time: 0 hr 38 min 16 sec) 
Heartbeat CPU 0 instructions: 57000001 cycles: 47342207 heartbeat IPC: 0.327592 cumulative IPC: 0.40935 (Simulation time: 0 hr 39 min 8 sec) 
Heartbeat CPU 0 instructions: 58000003 cycles: 50315108 heartbeat IPC: 0.336372 cumulative IPC: 0.398541 (Simulation time: 0 hr 40 min 9 sec) 
Heartbeat CPU 0 instructions: 59000002 cycles: 53137181 heartbeat IPC: 0.354349 cumulative IPC: 0.393094 (Simulation time: 0 hr 41 min 1 sec) 
Heartbeat CPU 0 instructions: 60000000 cycles: 55899885 heartbeat IPC: 0.361964 cumulative IPC: 0.389742 (Simulation time: 0 hr 41 min 53 sec) 
Heartbeat CPU 0 instructions: 61000002 cycles: 58528835 heartbeat IPC: 0.380381 cumulative IPC: 0.388872 (Simulation time: 0 hr 42 min 42 sec) 
Heartbeat CPU 0 instructions: 62000002 cycles: 61206216 heartbeat IPC: 0.373499 cumulative IPC: 0.387543 (Simulation time: 0 hr 43 min 33 sec) 
Heartbeat CPU 0 instructions: 63000001 cycles: 63872408 heartbeat IPC: 0.375066 cumulative IPC: 0.386554 (Simulation time: 0 hr 44 min 19 sec) 
Heartbeat CPU 0 instructions: 64000000 cycles: 66527894 heartbeat IPC: 0.376579 cumulative IPC: 0.385824 (Simulation time: 0 hr 45 min 9 sec) 
Heartbeat CPU 0 instructions: 65000003 cycles: 69165755 heartbeat IPC: 0.379096 cumulative IPC: 0.385368 (Simulation time: 0 hr 45 min 56 sec) 
Heartbeat CPU 0 instructions: 66000001 cycles: 71793921 heartbeat IPC: 0.380493 cumulative IPC: 0.38506 (Simulation time: 0 hr 46 min 44 sec) 
Heartbeat CPU 0 instructions: 67000001 cycles: 74407070 heartbeat IPC: 0.38268 cumulative IPC: 0.384919 (Simulation time: 0 hr 47 min 34 sec) 
Heartbeat CPU 0 instructions: 68000000 cycles: 77073468 heartbeat IPC: 0.375037 cumulative IPC: 0.384356 (Simulation time: 0 hr 48 min 24 sec) 
Heartbeat CPU 0 instructions: 69000001 cycles: 79710239 heartbeat IPC: 0.379252 cumulative IPC: 0.384084 (Simulation time: 0 hr 49 min 16 sec) 
Heartbeat CPU 0 instructions: 70000001 cycles: 82320384 heartbeat IPC: 0.38312 cumulative IPC: 0.384036 (Simulation time: 0 hr 50 min 5 sec) 
Heartbeat CPU 0 instructions: 71000001 cycles: 85037406 heartbeat IPC: 0.36805 cumulative IPC: 0.383243 (Simulation time: 0 hr 50 min 59 sec) 
Heartbeat CPU 0 instructions: 72000000 cycles: 87658557 heartbeat IPC: 0.381511 cumulative IPC: 0.383164 (Simulation time: 0 hr 51 min 55 sec) 
Heartbeat CPU 0 instructions: 73000002 cycles: 90291955 heartbeat IPC: 0.379738 cumulative IPC: 0.383014 (Simulation time: 0 hr 52 min 46 sec) 
Heartbeat CPU 0 instructions: 74000001 cycles: 92968456 heartbeat IPC: 0.373622 cumulative IPC: 0.382613 (Simulation time: 0 hr 53 min 38 sec) 
Heartbeat CPU 0 instructions: 75000001 cycles: 95625617 heartbeat IPC: 0.376342 cumulative IPC: 0.382358 (Simulation time: 0 hr 54 min 29 sec) 
Heartbeat CPU 0 instructions: 76000000 cycles: 98266182 heartbeat IPC: 0.378706 cumulative IPC: 0.382216 (Simulation time: 0 hr 55 min 17 sec) 
Heartbeat CPU 0 instructions: 77000002 cycles: 100938603 heartbeat IPC: 0.374193 cumulative IPC: 0.381913 (Simulation time: 0 hr 56 min 5 sec) 
Heartbeat CPU 0 instructions: 78000000 cycles: 103592080 heartbeat IPC: 0.376863 cumulative IPC: 0.381731 (Simulation time: 0 hr 56 min 56 sec) 
Heartbeat CPU 0 instructions: 79000002 cycles: 106253190 heartbeat IPC: 0.375784 cumulative IPC: 0.381522 (Simulation time: 0 hr 57 min 47 sec) 
Heartbeat CPU 0 instructions: 80000000 cycles: 108887918 heartbeat IPC: 0.379545 cumulative IPC: 0.381456 (Simulation time: 0 hr 58 min 40 sec) 
Heartbeat CPU 0 instructions: 81000000 cycles: 111502264 heartbeat IPC: 0.382505 cumulative IPC: 0.38149 (Simulation time: 0 hr 59 min 36 sec) 
Heartbeat CPU 0 instructions: 82000002 cycles: 114178888 heartbeat IPC: 0.373606 cumulative IPC: 0.381238 (Simulation time: 1 hr 0 min 29 sec) 
Heartbeat CPU 0 instructions: 83000000 cycles: 116824347 heartbeat IPC: 0.378005 cumulative IPC: 0.38114 (Simulation time: 1 hr 1 min 16 sec) 
Heartbeat CPU 0 instructions: 84000000 cycles: 119479935 heartbeat IPC: 0.376564 cumulative IPC: 0.381003 (Simulation time: 1 hr 2 min 4 sec) 
Heartbeat CPU 0 instructions: 85000001 cycles: 122155790 heartbeat IPC: 0.373713 cumulative IPC: 0.380791 (Simulation time: 1 hr 2 min 56 sec) 
Heartbeat CPU 0 instructions: 86000000 cycles: 124650035 heartbeat IPC: 0.400923 cumulative IPC: 0.381323 (Simulation time: 1 hr 3 min 52 sec) 
Heartbeat CPU 0 instructions: 87000000 cycles: 126804180 heartbeat IPC: 0.464221 cumulative IPC: 0.383172 (Simulation time: 1 hr 4 min 37 sec) 
Heartbeat CPU 0 instructions: 88000000 cycles: 128801361 heartbeat IPC: 0.500706 cumulative IPC: 0.385554 (Simulation time: 1 hr 5 min 22 sec) 
Heartbeat CPU 0 instructions: 89000001 cycles: 130888723 heartbeat IPC: 0.479074 cumulative IPC: 0.387494 (Simulation time: 1 hr 6 min 4 sec) 
Heartbeat CPU 0 instructions: 90000000 cycles: 133600752 heartbeat IPC: 0.368727 cumulative IPC: 0.387001 (Simulation time: 1 hr 6 min 58 sec) 
Heartbeat CPU 0 instructions: 91000001 cycles: 136363438 heartbeat IPC: 0.361967 cumulative IPC: 0.386349 (Simulation time: 1 hr 7 min 54 sec) 
Heartbeat CPU 0 instructions: 92000000 cycles: 139044113 heartbeat IPC: 0.37304 cumulative IPC: 0.386022 (Simulation time: 1 hr 8 min 43 sec) 
Heartbeat CPU 0 instructions: 93000000 cycles: 141693783 heartbeat IPC: 0.377405 cumulative IPC: 0.385817 (Simulation time: 1 hr 9 min 29 sec) 
Heartbeat CPU 0 instructions: 94000002 cycles: 144340934 heartbeat IPC: 0.377765 cumulative IPC: 0.38563 (Simulation time: 1 hr 10 min 19 sec) 
Heartbeat CPU 0 instructions: 95000000 cycles: 146960335 heartbeat IPC: 0.381766 cumulative IPC: 0.385543 (Simulation time: 1 hr 11 min 8 sec) 
Heartbeat CPU 0 instructions: 96000000 cycles: 149624635 heartbeat IPC: 0.375333 cumulative IPC: 0.385315 (Simulation time: 1 hr 11 min 57 sec) 
Heartbeat CPU 0 instructions: 97000000 cycles: 152264910 heartbeat IPC: 0.378748 cumulative IPC: 0.385173 (Simulation time: 1 hr 12 min 47 sec) 
Heartbeat CPU 0 instructions: 98000000 cycles: 154887360 heartbeat IPC: 0.381323 cumulative IPC: 0.385092 (Simulation time: 1 hr 13 min 36 sec) 
Heartbeat CPU 0 instructions: 99000002 cycles: 157496385 heartbeat IPC: 0.383286 cumulative IPC: 0.385055 (Simulation time: 1 hr 14 min 25 sec) 
Heartbeat CPU 0 instructions: 100000000 cycles: 160123205 heartbeat IPC: 0.380688 cumulative IPC: 0.384967 (Simulation time: 1 hr 15 min 16 sec) 
Heartbeat CPU 0 instructions: 101000002 cycles: 162777634 heartbeat IPC: 0.37673 cumulative IPC: 0.384802 (Simulation time: 1 hr 16 min 6 sec) 
Heartbeat CPU 0 instructions: 102000000 cycles: 165408471 heartbeat IPC: 0.380106 cumulative IPC: 0.384711 (Simulation time: 1 hr 16 min 56 sec) 
Heartbeat CPU 0 instructions: 103000000 cycles: 168034043 heartbeat IPC: 0.380869 cumulative IPC: 0.384637 (Simulation time: 1 hr 17 min 42 sec) 
Heartbeat CPU 0 instructions: 104000000 cycles: 170696085 heartbeat IPC: 0.375651 cumulative IPC: 0.384467 (Simulation time: 1 hr 18 min 37 sec) 
Heartbeat CPU 0 instructions: 105000003 cycles: 172876371 heartbeat IPC: 0.458657 cumulative IPC: 0.385601 (Simulation time: 1 hr 19 min 20 sec) 
Heartbeat CPU 0 instructions: 106000000 cycles: 174853182 heartbeat IPC: 0.505864 cumulative IPC: 0.387245 (Simulation time: 1 hr 20 min 0 sec) 
Heartbeat CPU 0 instructions: 107000003 cycles: 176827506 heartbeat IPC: 0.506504 cumulative IPC: 0.388851 (Simulation time: 1 hr 20 min 39 sec) 
Heartbeat CPU 0 instructions: 108000000 cycles: 179643990 heartbeat IPC: 0.355052 cumulative IPC: 0.388214 (Simulation time: 1 hr 21 min 23 sec) 
Heartbeat CPU 0 instructions: 109000001 cycles: 182345562 heartbeat IPC: 0.370155 cumulative IPC: 0.387893 (Simulation time: 1 hr 22 min 9 sec) 
Heartbeat CPU 0 instructions: 110000000 cycles: 184888992 heartbeat IPC: 0.393169 cumulative IPC: 0.38798 (Simulation time: 1 hr 22 min 54 sec) 
Heartbeat CPU 0 instructions: 111000000 cycles: 187704626 heartbeat IPC: 0.35516 cumulative IPC: 0.387393 (Simulation time: 1 hr 23 min 41 sec) 
Heartbeat CPU 0 instructions: 112000000 cycles: 190715835 heartbeat IPC: 0.332093 cumulative IPC: 0.386356 (Simulation time: 1 hr 24 min 19 sec) 
Heartbeat CPU 0 instructions: 113000000 cycles: 193661312 heartbeat IPC: 0.339504 cumulative IPC: 0.385511 (Simulation time: 1 hr 24 min 58 sec) 
Heartbeat CPU 0 instructions: 114000000 cycles: 196305543 heartbeat IPC: 0.378182 cumulative IPC: 0.385394 (Simulation time: 1 hr 25 min 33 sec) 
Heartbeat CPU 0 instructions: 115000000 cycles: 199033692 heartbeat IPC: 0.366549 cumulative IPC: 0.38509 (Simulation time: 1 hr 26 min 10 sec) 
Heartbeat CPU 0 instructions: 116000000 cycles: 201739167 heartbeat IPC: 0.369621 cumulative IPC: 0.384846 (Simulation time: 1 hr 26 min 47 sec) 
Heartbeat CPU 0 instructions: 117000000 cycles: 204594077 heartbeat IPC: 0.350274 cumulative IPC: 0.38428 (Simulation time: 1 hr 27 min 23 sec) 
Heartbeat CPU 0 instructions: 118000003 cycles: 207147096 heartbeat IPC: 0.391694 cumulative IPC: 0.384387 (Simulation time: 1 hr 27 min 58 sec) 
Heartbeat CPU 0 instructions: 119000002 cycles: 208651846 heartbeat IPC: 0.664562 cumulative IPC: 0.38675 (Simulation time: 1 hr 28 min 26 sec) 
Heartbeat CPU 0 instructions: 120000000 cycles: 210687991 heartbeat IPC: 0.491123 cumulative IPC: 0.387928 (Simulation time: 1 hr 28 min 56 sec) 
Heartbeat CPU 0 instructions: 121000003 cycles: 212617133 heartbeat IPC: 0.518367 cumulative IPC: 0.389307 (Simulation time: 1 hr 29 min 21 sec) 
Heartbeat CPU 0 instructions: 122000000 cycles: 214544900 heartbeat IPC: 0.518733 cumulative IPC: 0.390661 (Simulation time: 1 hr 29 min 45 sec) 
Heartbeat CPU 0 instructions: 123000000 cycles: 216543794 heartbeat IPC: 0.500277 cumulative IPC: 0.391837 (Simulation time: 1 hr 30 min 9 sec) 
Heartbeat CPU 0 instructions: 124000000 cycles: 218932853 heartbeat IPC: 0.418575 cumulative IPC: 0.392176 (Simulation time: 1 hr 30 min 39 sec) 
Heartbeat CPU 0 instructions: 125000002 cycles: 220708625 heartbeat IPC: 0.563136 cumulative IPC: 0.39377 (Simulation time: 1 hr 31 min 2 sec) 
Heartbeat CPU 0 instructions: 126000001 cycles: 222636322 heartbeat IPC: 0.518753 cumulative IPC: 0.395022 (Simulation time: 1 hr 31 min 26 sec) 
Heartbeat CPU 0 instructions: 127000001 cycles: 224562685 heartbeat IPC: 0.519113 cumulative IPC: 0.396252 (Simulation time: 1 hr 31 min 49 sec) 
Heartbeat CPU 0 instructions: 128000000 cycles: 226738851 heartbeat IPC: 0.459523 cumulative IPC: 0.396953 (Simulation time: 1 hr 32 min 17 sec) 
Heartbeat CPU 0 instructions: 129000001 cycles: 229503409 heartbeat IPC: 0.361722 cumulative IPC: 0.396464 (Simulation time: 1 hr 32 min 50 sec) 
Heartbeat CPU 0 instructions: 130000002 cycles: 232021837 heartbeat IPC: 0.397073 cumulative IPC: 0.396472 (Simulation time: 1 hr 33 min 24 sec) 
Heartbeat CPU 0 instructions: 131000000 cycles: 234850436 heartbeat IPC: 0.353531 cumulative IPC: 0.395878 (Simulation time: 1 hr 33 min 54 sec) 
Heartbeat CPU 0 instructions: 132000000 cycles: 237589220 heartbeat IPC: 0.365126 cumulative IPC: 0.395472 (Simulation time: 1 hr 34 min 20 sec) 
Heartbeat CPU 0 instructions: 133000000 cycles: 240523040 heartbeat IPC: 0.340853 cumulative IPC: 0.39471 (Simulation time: 1 hr 34 min 45 sec) 
Heartbeat CPU 0 instructions: 134000000 cycles: 243229608 heartbeat IPC: 0.369472 cumulative IPC: 0.394389 (Simulation time: 1 hr 35 min 9 sec) 
Heartbeat CPU 0 instructions: 135000000 cycles: 246029944 heartbeat IPC: 0.3571 cumulative IPC: 0.393905 (Simulation time: 1 hr 35 min 33 sec) 
Heartbeat CPU 0 instructions: 136000000 cycles: 248953464 heartbeat IPC: 0.342053 cumulative IPC: 0.393212 (Simulation time: 1 hr 35 min 55 sec) 
Heartbeat CPU 0 instructions: 137000003 cycles: 251754170 heartbeat IPC: 0.357054 cumulative IPC: 0.392755 (Simulation time: 1 hr 36 min 20 sec) 
Heartbeat CPU 0 instructions: 138000000 cycles: 253895702 heartbeat IPC: 0.466954 cumulative IPC: 0.393465 (Simulation time: 1 hr 36 min 41 sec) 
Heartbeat CPU 0 instructions: 139000000 cycles: 256659704 heartbeat IPC: 0.361794 cumulative IPC: 0.393079 (Simulation time: 1 hr 37 min 3 sec) 
Heartbeat CPU 0 instructions: 140000000 cycles: 259501768 heartbeat IPC: 0.351857 cumulative IPC: 0.392568 (Simulation time: 1 hr 37 min 22 sec) 
Heartbeat CPU 0 instructions: 141000001 cycles: 262193074 heartbeat IPC: 0.371567 cumulative IPC: 0.392324 (Simulation time: 1 hr 37 min 42 sec) 
Heartbeat CPU 0 instructions: 142000002 cycles: 264805734 heartbeat IPC: 0.382752 cumulative IPC: 0.392217 (Simulation time: 1 hr 38 min 0 sec) 
Heartbeat CPU 0 instructions: 143000001 cycles: 267452190 heartbeat IPC: 0.377863 cumulative IPC: 0.392057 (Simulation time: 1 hr 38 min 18 sec) 
Heartbeat CPU 0 instructions: 144000000 cycles: 270035902 heartbeat IPC: 0.38704 cumulative IPC: 0.392003 (Simulation time: 1 hr 38 min 34 sec) 
Heartbeat CPU 0 instructions: 145000000 cycles: 272645224 heartbeat IPC: 0.383241 cumulative IPC: 0.391909 (Simulation time: 1 hr 38 min 51 sec) 
Heartbeat CPU 0 instructions: 146000000 cycles: 275261208 heartbeat IPC: 0.382265 cumulative IPC: 0.391806 (Simulation time: 1 hr 39 min 8 sec) 
Heartbeat CPU 0 instructions: 147000002 cycles: 277661967 heartbeat IPC: 0.416536 cumulative IPC: 0.392046 (Simulation time: 1 hr 39 min 25 sec) 
Heartbeat CPU 0 instructions: 148000000 cycles: 279730697 heartbeat IPC: 0.483387 cumulative IPC: 0.392803 (Simulation time: 1 hr 39 min 38 sec) 
Heartbeat CPU 0 instructions: 149000001 cycles: 282169982 heartbeat IPC: 0.409957 cumulative IPC: 0.392969 (Simulation time: 1 hr 39 min 53 sec) 
Heartbeat CPU 0 instructions: 150000002 cycles: 284901979 heartbeat IPC: 0.366033 cumulative IPC: 0.39268 (Simulation time: 1 hr 40 min 7 sec) 
Finished CPU 0 instructions: 100000000 cycles: 254660067 cummulative IPC: 0.39268 (Simulation time: 1 hr 40 min 7 sec) 

ChampSim completed all CPUs

Region of Interest Statistics

CPU 0 cummulative IPC: 0.39268 instructions: 100000000 cycles: 254660067
LLC TOTAL     ACCESS:     651894  HIT:     609478  MISS:      42416
LLC LOAD      ACCESS:     308408  HIT:     290297  MISS:      18111
LLC RFO       ACCESS:      29186  HIT:      23977  MISS:       5209
LLC PREFETCH  ACCESS:     213179  HIT:     194258  MISS:      18921
LLC WRITEBACK ACCESS:     101121  HIT:     100946  MISS:        175
OPTgen accesses: 1988
OPTgen hits: 2280
OPTgen hit rate: 114.688


