
*** ChampSim Multicore Out-of-Order Simulator ***

Warmup Instructions: 50000000
Simulation Instructions: 100000000
Configuration: 2
Number of CPUs: 1
LLC sets: 2048
LLC ways: 16
Off-chip DRAM Channels: 1 Width: 64-bit Data Rate: 1600 MT/s

CPU 0 runs /datasets/cs240c-wi22-a00-public/data/Assignment2-gz/omnetpp_17B.trace.gz
CPU 0 L1D next line prefetcher
CPU 0 L2C IP-based stride prefetcher
Initialize Hawkeye state
Heartbeat CPU 0 instructions: 1000000 cycles: 559562 heartbeat IPC: 1.78711 cumulative IPC: 1.78711 (Simulation time: 0 hr 0 min 33 sec) 
Heartbeat CPU 0 instructions: 2000002 cycles: 1133707 heartbeat IPC: 1.74172 cumulative IPC: 1.76413 (Simulation time: 0 hr 1 min 2 sec) 
Heartbeat CPU 0 instructions: 3000001 cycles: 1769020 heartbeat IPC: 1.57403 cumulative IPC: 1.69585 (Simulation time: 0 hr 1 min 31 sec) 
Heartbeat CPU 0 instructions: 4000000 cycles: 2333971 heartbeat IPC: 1.77006 cumulative IPC: 1.71382 (Simulation time: 0 hr 2 min 3 sec) 
Heartbeat CPU 0 instructions: 5000002 cycles: 2893056 heartbeat IPC: 1.78864 cumulative IPC: 1.72828 (Simulation time: 0 hr 2 min 33 sec) 
Heartbeat CPU 0 instructions: 6000000 cycles: 3471673 heartbeat IPC: 1.72826 cumulative IPC: 1.72827 (Simulation time: 0 hr 3 min 2 sec) 
Heartbeat CPU 0 instructions: 7000000 cycles: 4036047 heartbeat IPC: 1.77187 cumulative IPC: 1.73437 (Simulation time: 0 hr 3 min 37 sec) 
Heartbeat CPU 0 instructions: 8000000 cycles: 4697781 heartbeat IPC: 1.51118 cumulative IPC: 1.70293 (Simulation time: 0 hr 4 min 6 sec) 
Heartbeat CPU 0 instructions: 9000000 cycles: 5359586 heartbeat IPC: 1.51102 cumulative IPC: 1.67923 (Simulation time: 0 hr 4 min 33 sec) 
Heartbeat CPU 0 instructions: 10000001 cycles: 6021155 heartbeat IPC: 1.51156 cumulative IPC: 1.66081 (Simulation time: 0 hr 5 min 2 sec) 
Heartbeat CPU 0 instructions: 11000001 cycles: 6682545 heartbeat IPC: 1.51197 cumulative IPC: 1.64608 (Simulation time: 0 hr 5 min 29 sec) 
Heartbeat CPU 0 instructions: 12000000 cycles: 7343321 heartbeat IPC: 1.51337 cumulative IPC: 1.63414 (Simulation time: 0 hr 5 min 57 sec) 
Heartbeat CPU 0 instructions: 13000001 cycles: 8002021 heartbeat IPC: 1.51814 cumulative IPC: 1.62459 (Simulation time: 0 hr 6 min 22 sec) 
Heartbeat CPU 0 instructions: 14000000 cycles: 8663309 heartbeat IPC: 1.5122 cumulative IPC: 1.61601 (Simulation time: 0 hr 6 min 46 sec) 
Heartbeat CPU 0 instructions: 15000000 cycles: 9325023 heartbeat IPC: 1.51123 cumulative IPC: 1.60858 (Simulation time: 0 hr 7 min 12 sec) 
Heartbeat CPU 0 instructions: 16000000 cycles: 9986934 heartbeat IPC: 1.51078 cumulative IPC: 1.60209 (Simulation time: 0 hr 7 min 40 sec) 
Heartbeat CPU 0 instructions: 17000000 cycles: 10652661 heartbeat IPC: 1.50212 cumulative IPC: 1.59585 (Simulation time: 0 hr 8 min 9 sec) 
Heartbeat CPU 0 instructions: 18000001 cycles: 11319218 heartbeat IPC: 1.50025 cumulative IPC: 1.59022 (Simulation time: 0 hr 8 min 38 sec) 
Heartbeat CPU 0 instructions: 19000002 cycles: 11988025 heartbeat IPC: 1.4952 cumulative IPC: 1.58492 (Simulation time: 0 hr 9 min 4 sec) 
Heartbeat CPU 0 instructions: 20000000 cycles: 12559868 heartbeat IPC: 1.74873 cumulative IPC: 1.59237 (Simulation time: 0 hr 9 min 33 sec) 
Heartbeat CPU 0 instructions: 21000000 cycles: 13148963 heartbeat IPC: 1.69752 cumulative IPC: 1.59708 (Simulation time: 0 hr 9 min 59 sec) 
Heartbeat CPU 0 instructions: 22000001 cycles: 13760888 heartbeat IPC: 1.63419 cumulative IPC: 1.59873 (Simulation time: 0 hr 10 min 26 sec) 
Heartbeat CPU 0 instructions: 23000000 cycles: 14318802 heartbeat IPC: 1.79239 cumulative IPC: 1.60628 (Simulation time: 0 hr 10 min 56 sec) 
Heartbeat CPU 0 instructions: 24000000 cycles: 14878488 heartbeat IPC: 1.78672 cumulative IPC: 1.61307 (Simulation time: 0 hr 11 min 24 sec) 
Heartbeat CPU 0 instructions: 25000001 cycles: 15462052 heartbeat IPC: 1.71361 cumulative IPC: 1.61686 (Simulation time: 0 hr 11 min 50 sec) 
Heartbeat CPU 0 instructions: 26000001 cycles: 16078931 heartbeat IPC: 1.62106 cumulative IPC: 1.61702 (Simulation time: 0 hr 12 min 19 sec) 
Heartbeat CPU 0 instructions: 27000000 cycles: 16638580 heartbeat IPC: 1.78683 cumulative IPC: 1.62273 (Simulation time: 0 hr 12 min 53 sec) 
Heartbeat CPU 0 instructions: 28000000 cycles: 17196927 heartbeat IPC: 1.791 cumulative IPC: 1.6282 (Simulation time: 0 hr 13 min 28 sec) 
Heartbeat CPU 0 instructions: 29000000 cycles: 17775672 heartbeat IPC: 1.72788 cumulative IPC: 1.63144 (Simulation time: 0 hr 14 min 0 sec) 
Heartbeat CPU 0 instructions: 30000000 cycles: 18398214 heartbeat IPC: 1.60632 cumulative IPC: 1.63059 (Simulation time: 0 hr 14 min 32 sec) 
Heartbeat CPU 0 instructions: 31000000 cycles: 18959681 heartbeat IPC: 1.78105 cumulative IPC: 1.63505 (Simulation time: 0 hr 15 min 7 sec) 
Heartbeat CPU 0 instructions: 32000000 cycles: 19516985 heartbeat IPC: 1.79435 cumulative IPC: 1.6396 (Simulation time: 0 hr 15 min 45 sec) 
Heartbeat CPU 0 instructions: 33000001 cycles: 20088849 heartbeat IPC: 1.74867 cumulative IPC: 1.6427 (Simulation time: 0 hr 16 min 20 sec) 
Heartbeat CPU 0 instructions: 34000001 cycles: 20724555 heartbeat IPC: 1.57305 cumulative IPC: 1.64057 (Simulation time: 0 hr 16 min 52 sec) 
Heartbeat CPU 0 instructions: 35000002 cycles: 21289800 heartbeat IPC: 1.76915 cumulative IPC: 1.64398 (Simulation time: 0 hr 17 min 29 sec) 
Heartbeat CPU 0 instructions: 36000000 cycles: 21849582 heartbeat IPC: 1.78641 cumulative IPC: 1.64763 (Simulation time: 0 hr 18 min 5 sec) 
Heartbeat CPU 0 instructions: 37000001 cycles: 22427774 heartbeat IPC: 1.72953 cumulative IPC: 1.64974 (Simulation time: 0 hr 18 min 40 sec) 
Heartbeat CPU 0 instructions: 38000002 cycles: 23056815 heartbeat IPC: 1.58972 cumulative IPC: 1.6481 (Simulation time: 0 hr 19 min 11 sec) 
Heartbeat CPU 0 instructions: 39000000 cycles: 23619547 heartbeat IPC: 1.77704 cumulative IPC: 1.65117 (Simulation time: 0 hr 19 min 45 sec) 
Heartbeat CPU 0 instructions: 40000000 cycles: 24179680 heartbeat IPC: 1.78529 cumulative IPC: 1.65428 (Simulation time: 0 hr 20 min 20 sec) 
Heartbeat CPU 0 instructions: 41000002 cycles: 24762791 heartbeat IPC: 1.71494 cumulative IPC: 1.65571 (Simulation time: 0 hr 20 min 53 sec) 
Heartbeat CPU 0 instructions: 42000000 cycles: 25389774 heartbeat IPC: 1.59494 cumulative IPC: 1.65421 (Simulation time: 0 hr 21 min 25 sec) 
Heartbeat CPU 0 instructions: 43000001 cycles: 25877236 heartbeat IPC: 2.05144 cumulative IPC: 1.66169 (Simulation time: 0 hr 22 min 2 sec) 
Heartbeat CPU 0 instructions: 44000000 cycles: 26537933 heartbeat IPC: 1.51355 cumulative IPC: 1.658 (Simulation time: 0 hr 22 min 31 sec) 
Heartbeat CPU 0 instructions: 45000003 cycles: 27199576 heartbeat IPC: 1.51139 cumulative IPC: 1.65444 (Simulation time: 0 hr 23 min 0 sec) 
Heartbeat CPU 0 instructions: 46000000 cycles: 27861954 heartbeat IPC: 1.50971 cumulative IPC: 1.651 (Simulation time: 0 hr 23 min 31 sec) 
Heartbeat CPU 0 instructions: 47000001 cycles: 28524971 heartbeat IPC: 1.50826 cumulative IPC: 1.64768 (Simulation time: 0 hr 24 min 2 sec) 
Heartbeat CPU 0 instructions: 48000000 cycles: 29187722 heartbeat IPC: 1.50886 cumulative IPC: 1.64453 (Simulation time: 0 hr 24 min 31 sec) 
Heartbeat CPU 0 instructions: 49000000 cycles: 29849220 heartbeat IPC: 1.51172 cumulative IPC: 1.64158 (Simulation time: 0 hr 25 min 0 sec) 
Heartbeat CPU 0 instructions: 50000000 cycles: 30511411 heartbeat IPC: 1.51014 cumulative IPC: 1.63873 (Simulation time: 0 hr 25 min 28 sec) 

Warmup complete CPU 0 instructions: 50000002 cycles: 30511412 (Simulation time: 0 hr 25 min 28 sec) 

Heartbeat CPU 0 instructions: 51000002 cycles: 31554764 heartbeat IPC: 0.95845 cumulative IPC: 0.958449 (Simulation time: 0 hr 25 min 58 sec) 
Heartbeat CPU 0 instructions: 52000000 cycles: 32599023 heartbeat IPC: 0.957615 cumulative IPC: 0.958032 (Simulation time: 0 hr 26 min 26 sec) 
Heartbeat CPU 0 instructions: 53000001 cycles: 33641515 heartbeat IPC: 0.959241 cumulative IPC: 0.958435 (Simulation time: 0 hr 26 min 57 sec) 
Heartbeat CPU 0 instructions: 54000002 cycles: 34709770 heartbeat IPC: 0.936107 cumulative IPC: 0.952753 (Simulation time: 0 hr 27 min 26 sec) 
Heartbeat CPU 0 instructions: 55000003 cycles: 35750175 heartbeat IPC: 0.961165 cumulative IPC: 0.954424 (Simulation time: 0 hr 27 min 55 sec) 
Heartbeat CPU 0 instructions: 56000000 cycles: 38078727 heartbeat IPC: 0.42945 cumulative IPC: 0.792883 (Simulation time: 0 hr 28 min 31 sec) 
Heartbeat CPU 0 instructions: 57000003 cycles: 40148162 heartbeat IPC: 0.483225 cumulative IPC: 0.726386 (Simulation time: 0 hr 29 min 6 sec) 
Heartbeat CPU 0 instructions: 58000000 cycles: 43531188 heartbeat IPC: 0.295592 cumulative IPC: 0.61445 (Simulation time: 0 hr 29 min 47 sec) 
Heartbeat CPU 0 instructions: 59000003 cycles: 46903004 heartbeat IPC: 0.296577 cumulative IPC: 0.549062 (Simulation time: 0 hr 30 min 26 sec) 
Heartbeat CPU 0 instructions: 60000000 cycles: 49394985 heartbeat IPC: 0.401286 cumulative IPC: 0.529561 (Simulation time: 0 hr 31 min 0 sec) 
Heartbeat CPU 0 instructions: 61000001 cycles: 51293231 heartbeat IPC: 0.526803 cumulative IPC: 0.529309 (Simulation time: 0 hr 31 min 34 sec) 
Heartbeat CPU 0 instructions: 62000001 cycles: 54660670 heartbeat IPC: 0.296962 cumulative IPC: 0.49691 (Simulation time: 0 hr 32 min 15 sec) 
Heartbeat CPU 0 instructions: 63000000 cycles: 58023882 heartbeat IPC: 0.297335 cumulative IPC: 0.472513 (Simulation time: 0 hr 32 min 56 sec) 
Heartbeat CPU 0 instructions: 64000000 cycles: 60682686 heartbeat IPC: 0.376109 cumulative IPC: 0.464017 (Simulation time: 0 hr 33 min 31 sec) 
Heartbeat CPU 0 instructions: 65000000 cycles: 62406490 heartbeat IPC: 0.580112 cumulative IPC: 0.470292 (Simulation time: 0 hr 34 min 4 sec) 
Heartbeat CPU 0 instructions: 66000000 cycles: 65762405 heartbeat IPC: 0.297981 cumulative IPC: 0.453888 (Simulation time: 0 hr 34 min 44 sec) 
Heartbeat CPU 0 instructions: 67000001 cycles: 69134491 heartbeat IPC: 0.296553 cumulative IPC: 0.440151 (Simulation time: 0 hr 35 min 21 sec) 
Heartbeat CPU 0 instructions: 68000000 cycles: 71987737 heartbeat IPC: 0.350478 cumulative IPC: 0.433982 (Simulation time: 0 hr 35 min 57 sec) 
Heartbeat CPU 0 instructions: 69000001 cycles: 73529245 heartbeat IPC: 0.648716 cumulative IPC: 0.441677 (Simulation time: 0 hr 36 min 29 sec) 
Heartbeat CPU 0 instructions: 70000001 cycles: 76916421 heartbeat IPC: 0.295231 cumulative IPC: 0.430988 (Simulation time: 0 hr 37 min 7 sec) 
Heartbeat CPU 0 instructions: 71000001 cycles: 80287892 heartbeat IPC: 0.296606 cumulative IPC: 0.421886 (Simulation time: 0 hr 37 min 47 sec) 
Heartbeat CPU 0 instructions: 72000000 cycles: 83142504 heartbeat IPC: 0.35031 cumulative IPC: 0.418004 (Simulation time: 0 hr 38 min 24 sec) 
Heartbeat CPU 0 instructions: 73000000 cycles: 84687187 heartbeat IPC: 0.647382 cumulative IPC: 0.424544 (Simulation time: 0 hr 38 min 56 sec) 
Heartbeat CPU 0 instructions: 74000003 cycles: 88049703 heartbeat IPC: 0.297397 cumulative IPC: 0.417114 (Simulation time: 0 hr 39 min 37 sec) 
Heartbeat CPU 0 instructions: 75000001 cycles: 91405754 heartbeat IPC: 0.297969 cumulative IPC: 0.410547 (Simulation time: 0 hr 40 min 20 sec) 
Heartbeat CPU 0 instructions: 76000000 cycles: 94144615 heartbeat IPC: 0.365115 cumulative IPC: 0.408592 (Simulation time: 0 hr 40 min 58 sec) 
Heartbeat CPU 0 instructions: 77000001 cycles: 95793918 heartbeat IPC: 0.606317 cumulative IPC: 0.413587 (Simulation time: 0 hr 41 min 31 sec) 
Heartbeat CPU 0 instructions: 78000000 cycles: 99187122 heartbeat IPC: 0.294706 cumulative IPC: 0.407713 (Simulation time: 0 hr 42 min 11 sec) 
Heartbeat CPU 0 instructions: 79000000 cycles: 102754098 heartbeat IPC: 0.28035 cumulative IPC: 0.401425 (Simulation time: 0 hr 42 min 54 sec) 
Heartbeat CPU 0 instructions: 80000000 cycles: 104652922 heartbeat IPC: 0.526642 cumulative IPC: 0.404632 (Simulation time: 0 hr 43 min 26 sec) 
Heartbeat CPU 0 instructions: 81000001 cycles: 107135896 heartbeat IPC: 0.402743 cumulative IPC: 0.40457 (Simulation time: 0 hr 44 min 0 sec) 
Heartbeat CPU 0 instructions: 82000000 cycles: 110505501 heartbeat IPC: 0.29677 cumulative IPC: 0.40003 (Simulation time: 0 hr 44 min 39 sec) 
Heartbeat CPU 0 instructions: 83000000 cycles: 113865433 heartbeat IPC: 0.297625 cumulative IPC: 0.395902 (Simulation time: 0 hr 45 min 21 sec) 
Heartbeat CPU 0 instructions: 84000000 cycles: 115725378 heartbeat IPC: 0.53765 cumulative IPC: 0.398996 (Simulation time: 0 hr 45 min 53 sec) 
Heartbeat CPU 0 instructions: 85000003 cycles: 118246043 heartbeat IPC: 0.396722 cumulative IPC: 0.39893 (Simulation time: 0 hr 46 min 28 sec) 
Heartbeat CPU 0 instructions: 86000001 cycles: 121616250 heartbeat IPC: 0.296717 cumulative IPC: 0.395149 (Simulation time: 0 hr 47 min 10 sec) 
Heartbeat CPU 0 instructions: 87000000 cycles: 125011043 heartbeat IPC: 0.294568 cumulative IPC: 0.391536 (Simulation time: 0 hr 47 min 49 sec) 
Heartbeat CPU 0 instructions: 88000000 cycles: 126748901 heartbeat IPC: 0.575421 cumulative IPC: 0.394857 (Simulation time: 0 hr 48 min 23 sec) 
Heartbeat CPU 0 instructions: 89000000 cycles: 131690921 heartbeat IPC: 0.202346 cumulative IPC: 0.385454 (Simulation time: 0 hr 49 min 11 sec) 
Heartbeat CPU 0 instructions: 90000002 cycles: 132734365 heartbeat IPC: 0.958367 cumulative IPC: 0.391302 (Simulation time: 0 hr 49 min 40 sec) 
Heartbeat CPU 0 instructions: 91000001 cycles: 133778758 heartbeat IPC: 0.957493 cumulative IPC: 0.397028 (Simulation time: 0 hr 50 min 10 sec) 
Heartbeat CPU 0 instructions: 92000000 cycles: 134822404 heartbeat IPC: 0.958178 cumulative IPC: 0.402642 (Simulation time: 0 hr 50 min 41 sec) 
Heartbeat CPU 0 instructions: 93000002 cycles: 135866744 heartbeat IPC: 0.957545 cumulative IPC: 0.408143 (Simulation time: 0 hr 51 min 11 sec) 
Heartbeat CPU 0 instructions: 94000001 cycles: 136910591 heartbeat IPC: 0.957994 cumulative IPC: 0.413537 (Simulation time: 0 hr 51 min 41 sec) 
Heartbeat CPU 0 instructions: 95000000 cycles: 137954876 heartbeat IPC: 0.957592 cumulative IPC: 0.418825 (Simulation time: 0 hr 52 min 11 sec) 
Heartbeat CPU 0 instructions: 96000000 cycles: 138999746 heartbeat IPC: 0.957057 cumulative IPC: 0.424009 (Simulation time: 0 hr 52 min 42 sec) 
Heartbeat CPU 0 instructions: 97000002 cycles: 140070638 heartbeat IPC: 0.933803 cumulative IPC: 0.428992 (Simulation time: 0 hr 53 min 11 sec) 
Heartbeat CPU 0 instructions: 98000000 cycles: 141116283 heartbeat IPC: 0.956346 cumulative IPC: 0.433977 (Simulation time: 0 hr 53 min 42 sec) 
Heartbeat CPU 0 instructions: 99000003 cycles: 142154620 heartbeat IPC: 0.963081 cumulative IPC: 0.438898 (Simulation time: 0 hr 54 min 11 sec) 
Heartbeat CPU 0 instructions: 100000000 cycles: 143191094 heartbeat IPC: 0.964807 cumulative IPC: 0.443736 (Simulation time: 0 hr 54 min 40 sec) 
Heartbeat CPU 0 instructions: 101000001 cycles: 144232184 heartbeat IPC: 0.960533 cumulative IPC: 0.448467 (Simulation time: 0 hr 55 min 10 sec) 
Heartbeat CPU 0 instructions: 102000001 cycles: 147566957 heartbeat IPC: 0.29987 cumulative IPC: 0.444234 (Simulation time: 0 hr 55 min 49 sec) 
Heartbeat CPU 0 instructions: 103000001 cycles: 148987173 heartbeat IPC: 0.704118 cumulative IPC: 0.447349 (Simulation time: 0 hr 56 min 21 sec) 
Heartbeat CPU 0 instructions: 104000000 cycles: 152009782 heartbeat IPC: 0.33084 cumulative IPC: 0.44445 (Simulation time: 0 hr 56 min 59 sec) 
Heartbeat CPU 0 instructions: 105000000 cycles: 155372165 heartbeat IPC: 0.297408 cumulative IPC: 0.440491 (Simulation time: 0 hr 57 min 36 sec) 
Heartbeat CPU 0 instructions: 106000000 cycles: 158677918 heartbeat IPC: 0.302503 cumulative IPC: 0.436932 (Simulation time: 0 hr 58 min 14 sec) 
Heartbeat CPU 0 instructions: 107000001 cycles: 160263007 heartbeat IPC: 0.63088 cumulative IPC: 0.439301 (Simulation time: 0 hr 58 min 45 sec) 
Heartbeat CPU 0 instructions: 108000000 cycles: 163116144 heartbeat IPC: 0.350491 cumulative IPC: 0.43739 (Simulation time: 0 hr 59 min 22 sec) 
Heartbeat CPU 0 instructions: 109000000 cycles: 166504292 heartbeat IPC: 0.295146 cumulative IPC: 0.433846 (Simulation time: 1 hr 0 min 2 sec) 
Heartbeat CPU 0 instructions: 110000000 cycles: 169869099 heartbeat IPC: 0.297194 cumulative IPC: 0.430547 (Simulation time: 1 hr 0 min 41 sec) 
Heartbeat CPU 0 instructions: 111000000 cycles: 171604733 heartbeat IPC: 0.576158 cumulative IPC: 0.432338 (Simulation time: 1 hr 1 min 14 sec) 
Heartbeat CPU 0 instructions: 112000000 cycles: 174298758 heartbeat IPC: 0.371192 cumulative IPC: 0.431192 (Simulation time: 1 hr 1 min 51 sec) 
Heartbeat CPU 0 instructions: 113000001 cycles: 177682295 heartbeat IPC: 0.295549 cumulative IPC: 0.428074 (Simulation time: 1 hr 2 min 31 sec) 
Heartbeat CPU 0 instructions: 114000001 cycles: 181074944 heartbeat IPC: 0.294755 cumulative IPC: 0.42507 (Simulation time: 1 hr 3 min 11 sec) 
Heartbeat CPU 0 instructions: 115000002 cycles: 182999491 heartbeat IPC: 0.519603 cumulative IPC: 0.426263 (Simulation time: 1 hr 3 min 43 sec) 
Heartbeat CPU 0 instructions: 116000000 cycles: 185496318 heartbeat IPC: 0.400508 cumulative IPC: 0.425848 (Simulation time: 1 hr 4 min 20 sec) 
Heartbeat CPU 0 instructions: 117000000 cycles: 188875027 heartbeat IPC: 0.295971 cumulative IPC: 0.423077 (Simulation time: 1 hr 5 min 0 sec) 
Heartbeat CPU 0 instructions: 118000001 cycles: 192292951 heartbeat IPC: 0.292576 cumulative IPC: 0.42032 (Simulation time: 1 hr 5 min 39 sec) 
Heartbeat CPU 0 instructions: 119000002 cycles: 194107938 heartbeat IPC: 0.550969 cumulative IPC: 0.421769 (Simulation time: 1 hr 6 min 11 sec) 
Heartbeat CPU 0 instructions: 120000000 cycles: 196712053 heartbeat IPC: 0.384007 cumulative IPC: 0.421178 (Simulation time: 1 hr 6 min 47 sec) 
Heartbeat CPU 0 instructions: 121000000 cycles: 200106181 heartbeat IPC: 0.294626 cumulative IPC: 0.418645 (Simulation time: 1 hr 7 min 27 sec) 
Heartbeat CPU 0 instructions: 122000000 cycles: 203487549 heartbeat IPC: 0.295738 cumulative IPC: 0.416242 (Simulation time: 1 hr 8 min 6 sec) 
Heartbeat CPU 0 instructions: 123000002 cycles: 205204150 heartbeat IPC: 0.582548 cumulative IPC: 0.417877 (Simulation time: 1 hr 8 min 39 sec) 
Heartbeat CPU 0 instructions: 124000000 cycles: 207897875 heartbeat IPC: 0.371232 cumulative IPC: 0.417168 (Simulation time: 1 hr 9 min 17 sec) 
Heartbeat CPU 0 instructions: 125000000 cycles: 211451994 heartbeat IPC: 0.281364 cumulative IPC: 0.414501 (Simulation time: 1 hr 9 min 57 sec) 
Heartbeat CPU 0 instructions: 126000001 cycles: 214709661 heartbeat IPC: 0.306968 cumulative IPC: 0.412599 (Simulation time: 1 hr 10 min 34 sec) 
Heartbeat CPU 0 instructions: 127000002 cycles: 215869015 heartbeat IPC: 0.86255 cumulative IPC: 0.415413 (Simulation time: 1 hr 11 min 5 sec) 
Heartbeat CPU 0 instructions: 128000000 cycles: 219258675 heartbeat IPC: 0.295014 cumulative IPC: 0.413251 (Simulation time: 1 hr 11 min 45 sec) 
Heartbeat CPU 0 instructions: 129000000 cycles: 222643627 heartbeat IPC: 0.295425 cumulative IPC: 0.411175 (Simulation time: 1 hr 12 min 26 sec) 
Heartbeat CPU 0 instructions: 130000001 cycles: 225862612 heartbeat IPC: 0.310657 cumulative IPC: 0.409519 (Simulation time: 1 hr 13 min 5 sec) 
Heartbeat CPU 0 instructions: 131000002 cycles: 227060645 heartbeat IPC: 0.834702 cumulative IPC: 0.41211 (Simulation time: 1 hr 13 min 36 sec) 
Heartbeat CPU 0 instructions: 132000000 cycles: 230441765 heartbeat IPC: 0.295759 cumulative IPC: 0.410143 (Simulation time: 1 hr 14 min 15 sec) 
Heartbeat CPU 0 instructions: 133000000 cycles: 233813711 heartbeat IPC: 0.296565 cumulative IPC: 0.408259 (Simulation time: 1 hr 14 min 54 sec) 
Heartbeat CPU 0 instructions: 134000000 cycles: 236885663 heartbeat IPC: 0.325526 cumulative IPC: 0.407028 (Simulation time: 1 hr 15 min 33 sec) 
Heartbeat CPU 0 instructions: 135000001 cycles: 240404598 heartbeat IPC: 0.284177 cumulative IPC: 0.404968 (Simulation time: 1 hr 16 min 14 sec) 
Heartbeat CPU 0 instructions: 136000000 cycles: 241448769 heartbeat IPC: 0.957697 cumulative IPC: 0.407704 (Simulation time: 1 hr 16 min 43 sec) 
Heartbeat CPU 0 instructions: 137000001 cycles: 242493954 heartbeat IPC: 0.956769 cumulative IPC: 0.410411 (Simulation time: 1 hr 17 min 14 sec) 
Heartbeat CPU 0 instructions: 138000001 cycles: 243538658 heartbeat IPC: 0.957209 cumulative IPC: 0.413093 (Simulation time: 1 hr 17 min 42 sec) 
Heartbeat CPU 0 instructions: 139000001 cycles: 244584059 heartbeat IPC: 0.956571 cumulative IPC: 0.415747 (Simulation time: 1 hr 18 min 11 sec) 
Heartbeat CPU 0 instructions: 140000000 cycles: 245630583 heartbeat IPC: 0.955543 cumulative IPC: 0.418373 (Simulation time: 1 hr 18 min 38 sec) 
Heartbeat CPU 0 instructions: 141000001 cycles: 246701333 heartbeat IPC: 0.933926 cumulative IPC: 0.420926 (Simulation time: 1 hr 19 min 7 sec) 
Heartbeat CPU 0 instructions: 142000002 cycles: 247745317 heartbeat IPC: 0.95787 cumulative IPC: 0.423507 (Simulation time: 1 hr 19 min 36 sec) 
Heartbeat CPU 0 instructions: 143000001 cycles: 248790471 heartbeat IPC: 0.956796 cumulative IPC: 0.42606 (Simulation time: 1 hr 20 min 5 sec) 
Heartbeat CPU 0 instructions: 144000000 cycles: 249834135 heartbeat IPC: 0.958162 cumulative IPC: 0.428592 (Simulation time: 1 hr 20 min 33 sec) 
Heartbeat CPU 0 instructions: 145000003 cycles: 250876844 heartbeat IPC: 0.959043 cumulative IPC: 0.431102 (Simulation time: 1 hr 21 min 0 sec) 
Heartbeat CPU 0 instructions: 146000001 cycles: 251918170 heartbeat IPC: 0.960312 cumulative IPC: 0.433591 (Simulation time: 1 hr 21 min 26 sec) 
Heartbeat CPU 0 instructions: 147000000 cycles: 252959967 heartbeat IPC: 0.959879 cumulative IPC: 0.436056 (Simulation time: 1 hr 21 min 55 sec) 
Heartbeat CPU 0 instructions: 148000000 cycles: 256334419 heartbeat IPC: 0.296344 cumulative IPC: 0.433968 (Simulation time: 1 hr 22 min 32 sec) 
Heartbeat CPU 0 instructions: 149000000 cycles: 259054953 heartbeat IPC: 0.367575 cumulative IPC: 0.433178 (Simulation time: 1 hr 23 min 5 sec) 
Heartbeat CPU 0 instructions: 150000000 cycles: 260744967 heartbeat IPC: 0.591711 cumulative IPC: 0.434342 (Simulation time: 1 hr 23 min 32 sec) 
Finished CPU 0 instructions: 100000002 cycles: 230233561 cummulative IPC: 0.434342 (Simulation time: 1 hr 23 min 32 sec) 

ChampSim completed all CPUs

Region of Interest Statistics

CPU 0 cummulative IPC: 0.434342 instructions: 100000002 cycles: 230233561
LLC TOTAL     ACCESS:    3408588  HIT:    1071438  MISS:    2337150
LLC LOAD      ACCESS:    1623078  HIT:     990217  MISS:     632861
LLC RFO       ACCESS:       5352  HIT:       2126  MISS:       3226
LLC PREFETCH  ACCESS:    1762757  HIT:      71150  MISS:    1691607
LLC WRITEBACK ACCESS:      17401  HIT:       7945  MISS:       9456
OPTgen accesses: 8949
OPTgen hits: 7751
OPTgen hit rate: 86.613


