
*** ChampSim Multicore Out-of-Order Simulator ***

Warmup Instructions: 50000000
Simulation Instructions: 100000000
Configuration: 2
Number of CPUs: 1
LLC sets: 2048
LLC ways: 16
Off-chip DRAM Channels: 1 Width: 64-bit Data Rate: 1600 MT/s

CPU 0 runs /datasets/cs240c-wi22-a00-public/data/Assignment2-gz/soplex_66B.trace.gz
CPU 0 L1D next line prefetcher
CPU 0 L2C IP-based stride prefetcher
Initialize Hawkeye state
Heartbeat CPU 0 instructions: 1000003 cycles: 415064 heartbeat IPC: 2.40927 cumulative IPC: 2.40927 (Simulation time: 0 hr 0 min 33 sec) 
Heartbeat CPU 0 instructions: 2000003 cycles: 837389 heartbeat IPC: 2.36784 cumulative IPC: 2.38838 (Simulation time: 0 hr 1 min 3 sec) 
Heartbeat CPU 0 instructions: 3000003 cycles: 1242539 heartbeat IPC: 2.46822 cumulative IPC: 2.41441 (Simulation time: 0 hr 1 min 36 sec) 
Heartbeat CPU 0 instructions: 4000000 cycles: 1626652 heartbeat IPC: 2.60339 cumulative IPC: 2.45904 (Simulation time: 0 hr 2 min 9 sec) 
Heartbeat CPU 0 instructions: 5000000 cycles: 2037588 heartbeat IPC: 2.43347 cumulative IPC: 2.45388 (Simulation time: 0 hr 2 min 38 sec) 
Heartbeat CPU 0 instructions: 6000000 cycles: 2509736 heartbeat IPC: 2.11798 cumulative IPC: 2.39069 (Simulation time: 0 hr 3 min 9 sec) 
Heartbeat CPU 0 instructions: 7000002 cycles: 2881833 heartbeat IPC: 2.68748 cumulative IPC: 2.42901 (Simulation time: 0 hr 3 min 42 sec) 
Heartbeat CPU 0 instructions: 8000000 cycles: 3307189 heartbeat IPC: 2.35097 cumulative IPC: 2.41897 (Simulation time: 0 hr 4 min 20 sec) 
Heartbeat CPU 0 instructions: 9000001 cycles: 3745689 heartbeat IPC: 2.2805 cumulative IPC: 2.40276 (Simulation time: 0 hr 4 min 48 sec) 
Heartbeat CPU 0 instructions: 10000002 cycles: 4157816 heartbeat IPC: 2.42644 cumulative IPC: 2.40511 (Simulation time: 0 hr 5 min 18 sec) 
Heartbeat CPU 0 instructions: 11000001 cycles: 4568777 heartbeat IPC: 2.43332 cumulative IPC: 2.40765 (Simulation time: 0 hr 5 min 53 sec) 
Heartbeat CPU 0 instructions: 12000000 cycles: 4952712 heartbeat IPC: 2.6046 cumulative IPC: 2.42291 (Simulation time: 0 hr 6 min 23 sec) 
Heartbeat CPU 0 instructions: 13000003 cycles: 5351795 heartbeat IPC: 2.50575 cumulative IPC: 2.42909 (Simulation time: 0 hr 6 min 51 sec) 
Heartbeat CPU 0 instructions: 14000002 cycles: 5841626 heartbeat IPC: 2.04152 cumulative IPC: 2.39659 (Simulation time: 0 hr 7 min 20 sec) 
Heartbeat CPU 0 instructions: 15000003 cycles: 6215969 heartbeat IPC: 2.67135 cumulative IPC: 2.41314 (Simulation time: 0 hr 7 min 54 sec) 
Heartbeat CPU 0 instructions: 16000000 cycles: 6624123 heartbeat IPC: 2.45005 cumulative IPC: 2.41541 (Simulation time: 0 hr 8 min 26 sec) 
Heartbeat CPU 0 instructions: 17000001 cycles: 7078325 heartbeat IPC: 2.20167 cumulative IPC: 2.4017 (Simulation time: 0 hr 8 min 55 sec) 
Heartbeat CPU 0 instructions: 18000003 cycles: 7487365 heartbeat IPC: 2.44475 cumulative IPC: 2.40405 (Simulation time: 0 hr 9 min 23 sec) 
Heartbeat CPU 0 instructions: 19000002 cycles: 7905558 heartbeat IPC: 2.39124 cumulative IPC: 2.40337 (Simulation time: 0 hr 9 min 57 sec) 
Heartbeat CPU 0 instructions: 20000000 cycles: 8289526 heartbeat IPC: 2.60438 cumulative IPC: 2.41268 (Simulation time: 0 hr 10 min 24 sec) 
Heartbeat CPU 0 instructions: 21000000 cycles: 8683617 heartbeat IPC: 2.53748 cumulative IPC: 2.41835 (Simulation time: 0 hr 10 min 55 sec) 
Heartbeat CPU 0 instructions: 22000000 cycles: 9177519 heartbeat IPC: 2.02469 cumulative IPC: 2.39716 (Simulation time: 0 hr 11 min 26 sec) 
Heartbeat CPU 0 instructions: 23000002 cycles: 9550589 heartbeat IPC: 2.68047 cumulative IPC: 2.40823 (Simulation time: 0 hr 11 min 58 sec) 
Heartbeat CPU 0 instructions: 24000000 cycles: 9942018 heartbeat IPC: 2.55474 cumulative IPC: 2.414 (Simulation time: 0 hr 12 min 35 sec) 
Heartbeat CPU 0 instructions: 25000003 cycles: 10420148 heartbeat IPC: 2.09149 cumulative IPC: 2.3992 (Simulation time: 0 hr 13 min 13 sec) 
Heartbeat CPU 0 instructions: 26000001 cycles: 10819004 heartbeat IPC: 2.50717 cumulative IPC: 2.40318 (Simulation time: 0 hr 13 min 48 sec) 
Heartbeat CPU 0 instructions: 27000002 cycles: 11237203 heartbeat IPC: 2.39121 cumulative IPC: 2.40273 (Simulation time: 0 hr 14 min 29 sec) 
Heartbeat CPU 0 instructions: 28000000 cycles: 11621392 heartbeat IPC: 2.60288 cumulative IPC: 2.40935 (Simulation time: 0 hr 15 min 2 sec) 
Heartbeat CPU 0 instructions: 29000000 cycles: 12011275 heartbeat IPC: 2.56487 cumulative IPC: 2.4144 (Simulation time: 0 hr 15 min 33 sec) 
Heartbeat CPU 0 instructions: 30000003 cycles: 12510178 heartbeat IPC: 2.0044 cumulative IPC: 2.39805 (Simulation time: 0 hr 16 min 7 sec) 
Heartbeat CPU 0 instructions: 31000001 cycles: 12882162 heartbeat IPC: 2.68828 cumulative IPC: 2.40643 (Simulation time: 0 hr 16 min 41 sec) 
Heartbeat CPU 0 instructions: 32000000 cycles: 13262159 heartbeat IPC: 2.6316 cumulative IPC: 2.41288 (Simulation time: 0 hr 17 min 15 sec) 
Heartbeat CPU 0 instructions: 33000002 cycles: 13685051 heartbeat IPC: 2.36467 cumulative IPC: 2.41139 (Simulation time: 0 hr 17 min 54 sec) 
Heartbeat CPU 0 instructions: 34000003 cycles: 14096741 heartbeat IPC: 2.42901 cumulative IPC: 2.41191 (Simulation time: 0 hr 18 min 31 sec) 
Heartbeat CPU 0 instructions: 35000003 cycles: 14507678 heartbeat IPC: 2.43346 cumulative IPC: 2.41252 (Simulation time: 0 hr 19 min 8 sec) 
Heartbeat CPU 0 instructions: 36000000 cycles: 14891432 heartbeat IPC: 2.60583 cumulative IPC: 2.4175 (Simulation time: 0 hr 19 min 39 sec) 
Heartbeat CPU 0 instructions: 37000000 cycles: 15289440 heartbeat IPC: 2.51251 cumulative IPC: 2.41997 (Simulation time: 0 hr 20 min 12 sec) 
Heartbeat CPU 0 instructions: 38000000 cycles: 15778069 heartbeat IPC: 2.04654 cumulative IPC: 2.40841 (Simulation time: 0 hr 20 min 45 sec) 
Heartbeat CPU 0 instructions: 39000002 cycles: 16149335 heartbeat IPC: 2.69349 cumulative IPC: 2.41496 (Simulation time: 0 hr 21 min 20 sec) 
Heartbeat CPU 0 instructions: 40000000 cycles: 16558515 heartbeat IPC: 2.44391 cumulative IPC: 2.41568 (Simulation time: 0 hr 21 min 55 sec) 
Heartbeat CPU 0 instructions: 41000001 cycles: 17013060 heartbeat IPC: 2.2 cumulative IPC: 2.40991 (Simulation time: 0 hr 22 min 29 sec) 
Heartbeat CPU 0 instructions: 42000000 cycles: 17422070 heartbeat IPC: 2.44493 cumulative IPC: 2.41074 (Simulation time: 0 hr 23 min 3 sec) 
Heartbeat CPU 0 instructions: 43000000 cycles: 17840475 heartbeat IPC: 2.39003 cumulative IPC: 2.41025 (Simulation time: 0 hr 23 min 43 sec) 
Heartbeat CPU 0 instructions: 44000000 cycles: 18224190 heartbeat IPC: 2.6061 cumulative IPC: 2.41437 (Simulation time: 0 hr 24 min 14 sec) 
Heartbeat CPU 0 instructions: 45000003 cycles: 18617849 heartbeat IPC: 2.54028 cumulative IPC: 2.41704 (Simulation time: 0 hr 24 min 46 sec) 
Heartbeat CPU 0 instructions: 46000001 cycles: 19113202 heartbeat IPC: 2.01876 cumulative IPC: 2.40671 (Simulation time: 0 hr 25 min 20 sec) 
Heartbeat CPU 0 instructions: 47000001 cycles: 19487242 heartbeat IPC: 2.67351 cumulative IPC: 2.41183 (Simulation time: 0 hr 25 min 53 sec) 
Heartbeat CPU 0 instructions: 48000000 cycles: 19877222 heartbeat IPC: 2.56423 cumulative IPC: 2.41482 (Simulation time: 0 hr 26 min 27 sec) 
Heartbeat CPU 0 instructions: 49000000 cycles: 20533055 heartbeat IPC: 1.52478 cumulative IPC: 2.3864 (Simulation time: 0 hr 27 min 6 sec) 
Heartbeat CPU 0 instructions: 50000003 cycles: 21058181 heartbeat IPC: 1.90431 cumulative IPC: 2.37437 (Simulation time: 0 hr 27 min 49 sec) 

Warmup complete CPU 0 instructions: 50000003 cycles: 21058181 (Simulation time: 0 hr 27 min 49 sec) 

Heartbeat CPU 0 instructions: 51000002 cycles: 23538996 heartbeat IPC: 0.403093 cumulative IPC: 0.403093 (Simulation time: 0 hr 28 min 46 sec) 
Heartbeat CPU 0 instructions: 52000000 cycles: 27293042 heartbeat IPC: 0.266379 cumulative IPC: 0.320777 (Simulation time: 0 hr 29 min 39 sec) 
Heartbeat CPU 0 instructions: 53000003 cycles: 29946086 heartbeat IPC: 0.376927 cumulative IPC: 0.337537 (Simulation time: 0 hr 30 min 28 sec) 
Heartbeat CPU 0 instructions: 54000000 cycles: 32429622 heartbeat IPC: 0.402651 cumulative IPC: 0.351758 (Simulation time: 0 hr 31 min 18 sec) 
Heartbeat CPU 0 instructions: 55000002 cycles: 35828051 heartbeat IPC: 0.294254 cumulative IPC: 0.338527 (Simulation time: 0 hr 32 min 4 sec) 
Heartbeat CPU 0 instructions: 56000000 cycles: 39064186 heartbeat IPC: 0.30901 cumulative IPC: 0.333222 (Simulation time: 0 hr 32 min 54 sec) 
Heartbeat CPU 0 instructions: 57000003 cycles: 41630786 heartbeat IPC: 0.389622 cumulative IPC: 0.340258 (Simulation time: 0 hr 33 min 37 sec) 
Heartbeat CPU 0 instructions: 58000002 cycles: 43817115 heartbeat IPC: 0.457387 cumulative IPC: 0.35151 (Simulation time: 0 hr 34 min 26 sec) 
Heartbeat CPU 0 instructions: 59000002 cycles: 45340877 heartbeat IPC: 0.65627 cumulative IPC: 0.370634 (Simulation time: 0 hr 35 min 8 sec) 
Heartbeat CPU 0 instructions: 60000000 cycles: 46759243 heartbeat IPC: 0.705035 cumulative IPC: 0.389089 (Simulation time: 0 hr 35 min 45 sec) 
Heartbeat CPU 0 instructions: 61000002 cycles: 49501088 heartbeat IPC: 0.364719 cumulative IPC: 0.38674 (Simulation time: 0 hr 36 min 35 sec) 
Heartbeat CPU 0 instructions: 62000000 cycles: 51916799 heartbeat IPC: 0.413956 cumulative IPC: 0.38887 (Simulation time: 0 hr 37 min 25 sec) 
Heartbeat CPU 0 instructions: 63000002 cycles: 53828479 heartbeat IPC: 0.523101 cumulative IPC: 0.396701 (Simulation time: 0 hr 38 min 10 sec) 
Heartbeat CPU 0 instructions: 64000000 cycles: 56272657 heartbeat IPC: 0.409135 cumulative IPC: 0.397564 (Simulation time: 0 hr 38 min 52 sec) 
Heartbeat CPU 0 instructions: 65000000 cycles: 59638246 heartbeat IPC: 0.297125 cumulative IPC: 0.388802 (Simulation time: 0 hr 39 min 43 sec) 
Heartbeat CPU 0 instructions: 66000001 cycles: 60860302 heartbeat IPC: 0.818294 cumulative IPC: 0.401989 (Simulation time: 0 hr 40 min 11 sec) 
Heartbeat CPU 0 instructions: 67000000 cycles: 62090209 heartbeat IPC: 0.813069 cumulative IPC: 0.41431 (Simulation time: 0 hr 40 min 44 sec) 
Heartbeat CPU 0 instructions: 68000000 cycles: 65715337 heartbeat IPC: 0.275852 cumulative IPC: 0.403071 (Simulation time: 0 hr 41 min 35 sec) 
Heartbeat CPU 0 instructions: 69000000 cycles: 68303086 heartbeat IPC: 0.386436 cumulative IPC: 0.40216 (Simulation time: 0 hr 42 min 10 sec) 
Heartbeat CPU 0 instructions: 70000003 cycles: 70816174 heartbeat IPC: 0.397918 cumulative IPC: 0.401945 (Simulation time: 0 hr 42 min 48 sec) 
Heartbeat CPU 0 instructions: 71000000 cycles: 73139503 heartbeat IPC: 0.430416 cumulative IPC: 0.403216 (Simulation time: 0 hr 43 min 36 sec) 
Heartbeat CPU 0 instructions: 72000000 cycles: 75944017 heartbeat IPC: 0.356568 cumulative IPC: 0.400832 (Simulation time: 0 hr 44 min 19 sec) 
Heartbeat CPU 0 instructions: 73000001 cycles: 78714576 heartbeat IPC: 0.360938 cumulative IPC: 0.398915 (Simulation time: 0 hr 45 min 10 sec) 
Heartbeat CPU 0 instructions: 74000000 cycles: 80581644 heartbeat IPC: 0.535599 cumulative IPC: 0.403202 (Simulation time: 0 hr 45 min 43 sec) 
Heartbeat CPU 0 instructions: 75000002 cycles: 81857478 heartbeat IPC: 0.783803 cumulative IPC: 0.411189 (Simulation time: 0 hr 46 min 12 sec) 
Heartbeat CPU 0 instructions: 76000000 cycles: 85264562 heartbeat IPC: 0.293506 cumulative IPC: 0.404944 (Simulation time: 0 hr 47 min 0 sec) 
Heartbeat CPU 0 instructions: 77000000 cycles: 87675583 heartbeat IPC: 0.414762 cumulative IPC: 0.405299 (Simulation time: 0 hr 47 min 35 sec) 
Heartbeat CPU 0 instructions: 78000003 cycles: 90146760 heartbeat IPC: 0.404667 cumulative IPC: 0.405277 (Simulation time: 0 hr 48 min 9 sec) 
Heartbeat CPU 0 instructions: 79000001 cycles: 93464071 heartbeat IPC: 0.301448 cumulative IPC: 0.40052 (Simulation time: 0 hr 48 min 59 sec) 
Heartbeat CPU 0 instructions: 80000000 cycles: 95939789 heartbeat IPC: 0.403923 cumulative IPC: 0.400632 (Simulation time: 0 hr 49 min 44 sec) 
Heartbeat CPU 0 instructions: 81000003 cycles: 98910752 heartbeat IPC: 0.336592 cumulative IPC: 0.398189 (Simulation time: 0 hr 50 min 36 sec) 
Heartbeat CPU 0 instructions: 82000000 cycles: 100526760 heartbeat IPC: 0.618807 cumulative IPC: 0.402675 (Simulation time: 0 hr 51 min 7 sec) 
Heartbeat CPU 0 instructions: 83000001 cycles: 101735085 heartbeat IPC: 0.827593 cumulative IPC: 0.409039 (Simulation time: 0 hr 51 min 36 sec) 
Heartbeat CPU 0 instructions: 84000000 cycles: 105174209 heartbeat IPC: 0.290771 cumulative IPC: 0.404204 (Simulation time: 0 hr 52 min 23 sec) 
Heartbeat CPU 0 instructions: 85000002 cycles: 107571616 heartbeat IPC: 0.417118 cumulative IPC: 0.404561 (Simulation time: 0 hr 52 min 57 sec) 
Heartbeat CPU 0 instructions: 86000000 cycles: 110142773 heartbeat IPC: 0.388929 cumulative IPC: 0.40411 (Simulation time: 0 hr 53 min 30 sec) 
Heartbeat CPU 0 instructions: 87000003 cycles: 113296534 heartbeat IPC: 0.317083 cumulative IPC: 0.401135 (Simulation time: 0 hr 54 min 26 sec) 
Heartbeat CPU 0 instructions: 88000000 cycles: 115433378 heartbeat IPC: 0.467978 cumulative IPC: 0.402648 (Simulation time: 0 hr 55 min 6 sec) 
Heartbeat CPU 0 instructions: 89000001 cycles: 118685242 heartbeat IPC: 0.307516 cumulative IPC: 0.399479 (Simulation time: 0 hr 55 min 58 sec) 
Heartbeat CPU 0 instructions: 90000002 cycles: 119903975 heartbeat IPC: 0.820525 cumulative IPC: 0.404671 (Simulation time: 0 hr 56 min 27 sec) 
Heartbeat CPU 0 instructions: 91000000 cycles: 121327608 heartbeat IPC: 0.702427 cumulative IPC: 0.408898 (Simulation time: 0 hr 56 min 59 sec) 
Heartbeat CPU 0 instructions: 92000000 cycles: 124728233 heartbeat IPC: 0.294064 cumulative IPC: 0.405131 (Simulation time: 0 hr 57 min 44 sec) 
Heartbeat CPU 0 instructions: 93000000 cycles: 127347427 heartbeat IPC: 0.381797 cumulative IPC: 0.404556 (Simulation time: 0 hr 58 min 19 sec) 
Heartbeat CPU 0 instructions: 94000001 cycles: 129858203 heartbeat IPC: 0.398284 cumulative IPC: 0.404412 (Simulation time: 0 hr 58 min 53 sec) 
Heartbeat CPU 0 instructions: 95000003 cycles: 133117994 heartbeat IPC: 0.306769 cumulative IPC: 0.401571 (Simulation time: 0 hr 59 min 44 sec) 
Heartbeat CPU 0 instructions: 96000000 cycles: 134969741 heartbeat IPC: 0.540029 cumulative IPC: 0.403822 (Simulation time: 1 hr 0 min 27 sec) 
Heartbeat CPU 0 instructions: 97000003 cycles: 138086947 heartbeat IPC: 0.320801 cumulative IPC: 0.401611 (Simulation time: 1 hr 1 min 12 sec) 
Heartbeat CPU 0 instructions: 98000003 cycles: 139318947 heartbeat IPC: 0.811688 cumulative IPC: 0.405883 (Simulation time: 1 hr 1 min 41 sec) 
Heartbeat CPU 0 instructions: 99000000 cycles: 141764455 heartbeat IPC: 0.408912 cumulative IPC: 0.405944 (Simulation time: 1 hr 2 min 17 sec) 
Heartbeat CPU 0 instructions: 100000000 cycles: 144377511 heartbeat IPC: 0.382694 cumulative IPC: 0.405451 (Simulation time: 1 hr 2 min 58 sec) 
Heartbeat CPU 0 instructions: 101000001 cycles: 146875304 heartbeat IPC: 0.400354 cumulative IPC: 0.40535 (Simulation time: 1 hr 3 min 33 sec) 
Heartbeat CPU 0 instructions: 102000002 cycles: 149591892 heartbeat IPC: 0.368109 cumulative IPC: 0.404563 (Simulation time: 1 hr 4 min 12 sec) 
Heartbeat CPU 0 instructions: 103000002 cycles: 152851941 heartbeat IPC: 0.306744 cumulative IPC: 0.402143 (Simulation time: 1 hr 5 min 6 sec) 
Heartbeat CPU 0 instructions: 104000000 cycles: 155035953 heartbeat IPC: 0.457872 cumulative IPC: 0.403052 (Simulation time: 1 hr 5 min 52 sec) 
Heartbeat CPU 0 instructions: 105000000 cycles: 157337138 heartbeat IPC: 0.434559 cumulative IPC: 0.403584 (Simulation time: 1 hr 6 min 29 sec) 
Heartbeat CPU 0 instructions: 106000001 cycles: 158548177 heartbeat IPC: 0.825738 cumulative IPC: 0.407302 (Simulation time: 1 hr 6 min 58 sec) 
Heartbeat CPU 0 instructions: 107000001 cycles: 161742069 heartbeat IPC: 0.313098 cumulative IPC: 0.405164 (Simulation time: 1 hr 7 min 43 sec) 
Heartbeat CPU 0 instructions: 108000000 cycles: 164034333 heartbeat IPC: 0.436249 cumulative IPC: 0.405662 (Simulation time: 1 hr 8 min 18 sec) 
Heartbeat CPU 0 instructions: 109000003 cycles: 166630149 heartbeat IPC: 0.385236 cumulative IPC: 0.405298 (Simulation time: 1 hr 8 min 53 sec) 
Heartbeat CPU 0 instructions: 110000001 cycles: 169850052 heartbeat IPC: 0.310568 cumulative IPC: 0.403248 (Simulation time: 1 hr 9 min 43 sec) 
Heartbeat CPU 0 instructions: 111000001 cycles: 171935008 heartbeat IPC: 0.479626 cumulative IPC: 0.404303 (Simulation time: 1 hr 10 min 23 sec) 
Heartbeat CPU 0 instructions: 112000000 cycles: 173968417 heartbeat IPC: 0.491784 cumulative IPC: 0.405467 (Simulation time: 1 hr 11 min 8 sec) 
Heartbeat CPU 0 instructions: 113000000 cycles: 176608511 heartbeat IPC: 0.378774 cumulative IPC: 0.405014 (Simulation time: 1 hr 11 min 50 sec) 
Heartbeat CPU 0 instructions: 114000000 cycles: 177851605 heartbeat IPC: 0.804444 cumulative IPC: 0.40818 (Simulation time: 1 hr 12 min 19 sec) 
Heartbeat CPU 0 instructions: 115000003 cycles: 180779359 heartbeat IPC: 0.34156 cumulative IPC: 0.406959 (Simulation time: 1 hr 12 min 59 sec) 
Heartbeat CPU 0 instructions: 116000000 cycles: 183069023 heartbeat IPC: 0.436744 cumulative IPC: 0.40738 (Simulation time: 1 hr 13 min 38 sec) 
Heartbeat CPU 0 instructions: 117000000 cycles: 185656109 heartbeat IPC: 0.386535 cumulative IPC: 0.407052 (Simulation time: 1 hr 14 min 14 sec) 
Heartbeat CPU 0 instructions: 118000003 cycles: 189020879 heartbeat IPC: 0.297198 cumulative IPC: 0.404852 (Simulation time: 1 hr 15 min 5 sec) 
Heartbeat CPU 0 instructions: 119000002 cycles: 190955435 heartbeat IPC: 0.516914 cumulative IPC: 0.406128 (Simulation time: 1 hr 15 min 47 sec) 
Heartbeat CPU 0 instructions: 120000000 cycles: 192909809 heartbeat IPC: 0.511672 cumulative IPC: 0.407328 (Simulation time: 1 hr 16 min 30 sec) 
Heartbeat CPU 0 instructions: 121000000 cycles: 195750582 heartbeat IPC: 0.352017 cumulative IPC: 0.406429 (Simulation time: 1 hr 17 min 13 sec) 
Heartbeat CPU 0 instructions: 122000000 cycles: 196956772 heartbeat IPC: 0.829057 cumulative IPC: 0.409327 (Simulation time: 1 hr 17 min 40 sec) 
Heartbeat CPU 0 instructions: 123000000 cycles: 199697615 heartbeat IPC: 0.364851 cumulative IPC: 0.408644 (Simulation time: 1 hr 18 min 15 sec) 
Heartbeat CPU 0 instructions: 124000000 cycles: 202196727 heartbeat IPC: 0.400142 cumulative IPC: 0.408527 (Simulation time: 1 hr 18 min 53 sec) 
Heartbeat CPU 0 instructions: 125000001 cycles: 204707404 heartbeat IPC: 0.398299 cumulative IPC: 0.408387 (Simulation time: 1 hr 19 min 27 sec) 
Heartbeat CPU 0 instructions: 126000000 cycles: 207546159 heartbeat IPC: 0.352267 cumulative IPC: 0.407533 (Simulation time: 1 hr 20 min 8 sec) 
Heartbeat CPU 0 instructions: 127000002 cycles: 210515788 heartbeat IPC: 0.336743 cumulative IPC: 0.406423 (Simulation time: 1 hr 20 min 53 sec) 
Heartbeat CPU 0 instructions: 128000000 cycles: 212930778 heartbeat IPC: 0.41408 cumulative IPC: 0.40652 (Simulation time: 1 hr 21 min 32 sec) 
Heartbeat CPU 0 instructions: 129000000 cycles: 215049063 heartbeat IPC: 0.47208 cumulative IPC: 0.407236 (Simulation time: 1 hr 22 min 5 sec) 
Heartbeat CPU 0 instructions: 130000000 cycles: 216317014 heartbeat IPC: 0.788674 cumulative IPC: 0.409713 (Simulation time: 1 hr 22 min 33 sec) 
Heartbeat CPU 0 instructions: 131000000 cycles: 219555745 heartbeat IPC: 0.308763 cumulative IPC: 0.408065 (Simulation time: 1 hr 23 min 11 sec) 
Heartbeat CPU 0 instructions: 132000000 cycles: 221921534 heartbeat IPC: 0.422692 cumulative IPC: 0.408238 (Simulation time: 1 hr 23 min 43 sec) 
Heartbeat CPU 0 instructions: 133000000 cycles: 224461654 heartbeat IPC: 0.393682 cumulative IPC: 0.408056 (Simulation time: 1 hr 24 min 12 sec) 
Heartbeat CPU 0 instructions: 134000001 cycles: 227858001 heartbeat IPC: 0.294434 cumulative IPC: 0.40619 (Simulation time: 1 hr 24 min 57 sec) 
Heartbeat CPU 0 instructions: 135000003 cycles: 229806053 heartbeat IPC: 0.513334 cumulative IPC: 0.40719 (Simulation time: 1 hr 25 min 27 sec) 
Heartbeat CPU 0 instructions: 136000000 cycles: 231805892 heartbeat IPC: 0.500039 cumulative IPC: 0.408071 (Simulation time: 1 hr 26 min 3 sec) 
Heartbeat CPU 0 instructions: 137000000 cycles: 234514877 heartbeat IPC: 0.369142 cumulative IPC: 0.407577 (Simulation time: 1 hr 26 min 35 sec) 
Heartbeat CPU 0 instructions: 138000000 cycles: 235763796 heartbeat IPC: 0.800692 cumulative IPC: 0.409864 (Simulation time: 1 hr 26 min 56 sec) 
Heartbeat CPU 0 instructions: 139000001 cycles: 238782890 heartbeat IPC: 0.331226 cumulative IPC: 0.408773 (Simulation time: 1 hr 27 min 24 sec) 
Heartbeat CPU 0 instructions: 140000000 cycles: 241116857 heartbeat IPC: 0.428455 cumulative IPC: 0.408982 (Simulation time: 1 hr 27 min 50 sec) 
Heartbeat CPU 0 instructions: 141000003 cycles: 243692186 heartbeat IPC: 0.388301 cumulative IPC: 0.408743 (Simulation time: 1 hr 28 min 12 sec) 
Heartbeat CPU 0 instructions: 142000003 cycles: 246888358 heartbeat IPC: 0.312874 cumulative IPC: 0.407386 (Simulation time: 1 hr 28 min 40 sec) 
Heartbeat CPU 0 instructions: 143000001 cycles: 251572309 heartbeat IPC: 0.213495 cumulative IPC: 0.403446 (Simulation time: 1 hr 29 min 12 sec) 
Heartbeat CPU 0 instructions: 144000000 cycles: 255425580 heartbeat IPC: 0.25952 cumulative IPC: 0.40108 (Simulation time: 1 hr 29 min 41 sec) 
Heartbeat CPU 0 instructions: 145000001 cycles: 258320284 heartbeat IPC: 0.345459 cumulative IPC: 0.400401 (Simulation time: 1 hr 30 min 10 sec) 
Heartbeat CPU 0 instructions: 146000000 cycles: 262218348 heartbeat IPC: 0.256537 cumulative IPC: 0.398076 (Simulation time: 1 hr 30 min 39 sec) 
Heartbeat CPU 0 instructions: 147000000 cycles: 264773768 heartbeat IPC: 0.391325 cumulative IPC: 0.398005 (Simulation time: 1 hr 31 min 7 sec) 
Heartbeat CPU 0 instructions: 148000000 cycles: 267706636 heartbeat IPC: 0.340963 cumulative IPC: 0.397327 (Simulation time: 1 hr 31 min 36 sec) 
Heartbeat CPU 0 instructions: 149000000 cycles: 270644036 heartbeat IPC: 0.340437 cumulative IPC: 0.396657 (Simulation time: 1 hr 32 min 0 sec) 
Heartbeat CPU 0 instructions: 150000001 cycles: 273454289 heartbeat IPC: 0.35584 cumulative IPC: 0.396203 (Simulation time: 1 hr 32 min 25 sec) 
Finished CPU 0 instructions: 100000001 cycles: 252396112 cummulative IPC: 0.396203 (Simulation time: 1 hr 32 min 25 sec) 

ChampSim completed all CPUs

Region of Interest Statistics

CPU 0 cummulative IPC: 0.396203 instructions: 100000001 cycles: 252396112
LLC TOTAL     ACCESS:    6715499  HIT:    3453407  MISS:    3262092
LLC LOAD      ACCESS:    1680911  HIT:     716544  MISS:     964367
LLC RFO       ACCESS:     736911  HIT:     270362  MISS:     466549
LLC PREFETCH  ACCESS:    2657517  HIT:    1157547  MISS:    1499970
LLC WRITEBACK ACCESS:    1640160  HIT:    1308954  MISS:     331206
OPTgen accesses: 13619
OPTgen hits: 9755
OPTgen hit rate: 71.6279


