
*** ChampSim Multicore Out-of-Order Simulator ***

Warmup Instructions: 50000000
Simulation Instructions: 100000000
Configuration: 2
Number of CPUs: 1
LLC sets: 2048
LLC ways: 16
Off-chip DRAM Channels: 1 Width: 64-bit Data Rate: 1600 MT/s

CPU 0 runs /datasets/cs240c-wi22-a00-public/data/Assignment2-gz/libquantum_964B.trace.gz
CPU 0 L1D next line prefetcher
CPU 0 L2C IP-based stride prefetcher
Initialize Hawkeye state
Heartbeat CPU 0 instructions: 1000002 cycles: 333341 heartbeat IPC: 2.99994 cumulative IPC: 2.99994 (Simulation time: 0 hr 0 min 21 sec) 
Heartbeat CPU 0 instructions: 2000001 cycles: 666674 heartbeat IPC: 3 cumulative IPC: 2.99997 (Simulation time: 0 hr 0 min 39 sec) 
Heartbeat CPU 0 instructions: 3000000 cycles: 1000007 heartbeat IPC: 3 cumulative IPC: 2.99998 (Simulation time: 0 hr 0 min 58 sec) 
Heartbeat CPU 0 instructions: 4000000 cycles: 1333341 heartbeat IPC: 2.99999 cumulative IPC: 2.99998 (Simulation time: 0 hr 1 min 18 sec) 
Heartbeat CPU 0 instructions: 5000000 cycles: 1666674 heartbeat IPC: 3 cumulative IPC: 2.99999 (Simulation time: 0 hr 1 min 39 sec) 
Heartbeat CPU 0 instructions: 6000002 cycles: 2000008 heartbeat IPC: 3 cumulative IPC: 2.99999 (Simulation time: 0 hr 1 min 57 sec) 
Heartbeat CPU 0 instructions: 7000001 cycles: 2331518 heartbeat IPC: 3.0165 cumulative IPC: 3.00234 (Simulation time: 0 hr 2 min 18 sec) 
Heartbeat CPU 0 instructions: 8000000 cycles: 2662240 heartbeat IPC: 3.02368 cumulative IPC: 3.00499 (Simulation time: 0 hr 2 min 37 sec) 
Heartbeat CPU 0 instructions: 9000001 cycles: 2992962 heartbeat IPC: 3.02369 cumulative IPC: 3.00705 (Simulation time: 0 hr 2 min 57 sec) 
Heartbeat CPU 0 instructions: 10000001 cycles: 3323684 heartbeat IPC: 3.02369 cumulative IPC: 3.00871 (Simulation time: 0 hr 3 min 19 sec) 
Heartbeat CPU 0 instructions: 11000000 cycles: 3654406 heartbeat IPC: 3.02368 cumulative IPC: 3.01007 (Simulation time: 0 hr 3 min 42 sec) 
Heartbeat CPU 0 instructions: 12000000 cycles: 3985113 heartbeat IPC: 3.02382 cumulative IPC: 3.01121 (Simulation time: 0 hr 4 min 4 sec) 
Heartbeat CPU 0 instructions: 13000001 cycles: 4315818 heartbeat IPC: 3.02385 cumulative IPC: 3.01218 (Simulation time: 0 hr 4 min 24 sec) 
Heartbeat CPU 0 instructions: 14000000 cycles: 4646523 heartbeat IPC: 3.02384 cumulative IPC: 3.01301 (Simulation time: 0 hr 4 min 45 sec) 
Heartbeat CPU 0 instructions: 15000003 cycles: 4977229 heartbeat IPC: 3.02384 cumulative IPC: 3.01373 (Simulation time: 0 hr 5 min 10 sec) 
Heartbeat CPU 0 instructions: 16000000 cycles: 5307934 heartbeat IPC: 3.02383 cumulative IPC: 3.01436 (Simulation time: 0 hr 5 min 33 sec) 
Heartbeat CPU 0 instructions: 17000000 cycles: 5638642 heartbeat IPC: 3.02382 cumulative IPC: 3.01491 (Simulation time: 0 hr 5 min 52 sec) 
Heartbeat CPU 0 instructions: 18000003 cycles: 5969365 heartbeat IPC: 3.02369 cumulative IPC: 3.0154 (Simulation time: 0 hr 6 min 13 sec) 
Heartbeat CPU 0 instructions: 19000002 cycles: 6300087 heartbeat IPC: 3.02368 cumulative IPC: 3.01583 (Simulation time: 0 hr 6 min 31 sec) 
Heartbeat CPU 0 instructions: 20000000 cycles: 6630808 heartbeat IPC: 3.02369 cumulative IPC: 3.01622 (Simulation time: 0 hr 6 min 51 sec) 
Heartbeat CPU 0 instructions: 21000003 cycles: 6961531 heartbeat IPC: 3.02369 cumulative IPC: 3.01658 (Simulation time: 0 hr 7 min 14 sec) 
Heartbeat CPU 0 instructions: 22000002 cycles: 7292253 heartbeat IPC: 3.02368 cumulative IPC: 3.0169 (Simulation time: 0 hr 7 min 34 sec) 
Heartbeat CPU 0 instructions: 23000000 cycles: 7622968 heartbeat IPC: 3.02375 cumulative IPC: 3.0172 (Simulation time: 0 hr 7 min 55 sec) 
Heartbeat CPU 0 instructions: 24000000 cycles: 7953674 heartbeat IPC: 3.02383 cumulative IPC: 3.01747 (Simulation time: 0 hr 8 min 12 sec) 
Heartbeat CPU 0 instructions: 25000000 cycles: 8284379 heartbeat IPC: 3.02384 cumulative IPC: 3.01773 (Simulation time: 0 hr 8 min 29 sec) 
Heartbeat CPU 0 instructions: 26000002 cycles: 8675744 heartbeat IPC: 2.55516 cumulative IPC: 2.99686 (Simulation time: 0 hr 8 min 54 sec) 
Heartbeat CPU 0 instructions: 27000000 cycles: 9096050 heartbeat IPC: 2.37921 cumulative IPC: 2.96832 (Simulation time: 0 hr 9 min 24 sec) 
Heartbeat CPU 0 instructions: 28000000 cycles: 9516352 heartbeat IPC: 2.37924 cumulative IPC: 2.9423 (Simulation time: 0 hr 9 min 53 sec) 
Heartbeat CPU 0 instructions: 29000002 cycles: 9936683 heartbeat IPC: 2.37908 cumulative IPC: 2.91848 (Simulation time: 0 hr 10 min 23 sec) 
Heartbeat CPU 0 instructions: 30000002 cycles: 10356994 heartbeat IPC: 2.37919 cumulative IPC: 2.89659 (Simulation time: 0 hr 10 min 56 sec) 
Heartbeat CPU 0 instructions: 31000000 cycles: 10777300 heartbeat IPC: 2.37921 cumulative IPC: 2.87642 (Simulation time: 0 hr 11 min 23 sec) 
Heartbeat CPU 0 instructions: 32000000 cycles: 11197602 heartbeat IPC: 2.37924 cumulative IPC: 2.85775 (Simulation time: 0 hr 11 min 53 sec) 
Heartbeat CPU 0 instructions: 33000002 cycles: 11617933 heartbeat IPC: 2.37908 cumulative IPC: 2.84044 (Simulation time: 0 hr 12 min 24 sec) 
Heartbeat CPU 0 instructions: 34000002 cycles: 12038244 heartbeat IPC: 2.37919 cumulative IPC: 2.82433 (Simulation time: 0 hr 13 min 2 sec) 
Heartbeat CPU 0 instructions: 35000000 cycles: 12458550 heartbeat IPC: 2.37921 cumulative IPC: 2.80932 (Simulation time: 0 hr 13 min 41 sec) 
Heartbeat CPU 0 instructions: 36000000 cycles: 12862260 heartbeat IPC: 2.47703 cumulative IPC: 2.79889 (Simulation time: 0 hr 14 min 13 sec) 
Heartbeat CPU 0 instructions: 37000001 cycles: 13195593 heartbeat IPC: 3.00001 cumulative IPC: 2.80397 (Simulation time: 0 hr 14 min 37 sec) 
Heartbeat CPU 0 instructions: 38000000 cycles: 13528926 heartbeat IPC: 3 cumulative IPC: 2.8088 (Simulation time: 0 hr 15 min 0 sec) 
Heartbeat CPU 0 instructions: 39000003 cycles: 13862260 heartbeat IPC: 3 cumulative IPC: 2.81339 (Simulation time: 0 hr 15 min 24 sec) 
Heartbeat CPU 0 instructions: 40000000 cycles: 14195593 heartbeat IPC: 2.99999 cumulative IPC: 2.81778 (Simulation time: 0 hr 15 min 49 sec) 
Heartbeat CPU 0 instructions: 41000001 cycles: 14528926 heartbeat IPC: 3.00001 cumulative IPC: 2.82196 (Simulation time: 0 hr 16 min 14 sec) 
Heartbeat CPU 0 instructions: 42000000 cycles: 14862259 heartbeat IPC: 3 cumulative IPC: 2.82595 (Simulation time: 0 hr 16 min 38 sec) 
Heartbeat CPU 0 instructions: 43000001 cycles: 15195593 heartbeat IPC: 3 cumulative IPC: 2.82977 (Simulation time: 0 hr 17 min 1 sec) 
Heartbeat CPU 0 instructions: 44000000 cycles: 15528926 heartbeat IPC: 3 cumulative IPC: 2.83342 (Simulation time: 0 hr 17 min 25 sec) 
Heartbeat CPU 0 instructions: 45000002 cycles: 15862260 heartbeat IPC: 3 cumulative IPC: 2.83692 (Simulation time: 0 hr 17 min 49 sec) 
Heartbeat CPU 0 instructions: 46000001 cycles: 16195593 heartbeat IPC: 3 cumulative IPC: 2.84028 (Simulation time: 0 hr 18 min 13 sec) 
Heartbeat CPU 0 instructions: 47000000 cycles: 16528926 heartbeat IPC: 3 cumulative IPC: 2.8435 (Simulation time: 0 hr 18 min 36 sec) 
Heartbeat CPU 0 instructions: 48000000 cycles: 16862260 heartbeat IPC: 2.99999 cumulative IPC: 2.84659 (Simulation time: 0 hr 19 min 0 sec) 
Heartbeat CPU 0 instructions: 49000003 cycles: 17195596 heartbeat IPC: 2.99998 cumulative IPC: 2.84957 (Simulation time: 0 hr 19 min 23 sec) 
Heartbeat CPU 0 instructions: 50000001 cycles: 17528926 heartbeat IPC: 3.00002 cumulative IPC: 2.85243 (Simulation time: 0 hr 19 min 46 sec) 

Warmup complete CPU 0 instructions: 50000001 cycles: 17528926 (Simulation time: 0 hr 19 min 46 sec) 

Heartbeat CPU 0 instructions: 51000000 cycles: 18995168 heartbeat IPC: 0.682015 cumulative IPC: 0.682015 (Simulation time: 0 hr 20 min 26 sec) 
Heartbeat CPU 0 instructions: 52000000 cycles: 20461433 heartbeat IPC: 0.682005 cumulative IPC: 0.68201 (Simulation time: 0 hr 21 min 7 sec) 
Heartbeat CPU 0 instructions: 53000000 cycles: 21924343 heartbeat IPC: 0.683569 cumulative IPC: 0.682529 (Simulation time: 0 hr 21 min 48 sec) 
Heartbeat CPU 0 instructions: 54000002 cycles: 23146723 heartbeat IPC: 0.818078 cumulative IPC: 0.712023 (Simulation time: 0 hr 22 min 30 sec) 
Heartbeat CPU 0 instructions: 55000002 cycles: 24319161 heartbeat IPC: 0.852924 cumulative IPC: 0.736352 (Simulation time: 0 hr 23 min 10 sec) 
Heartbeat CPU 0 instructions: 56000000 cycles: 26060930 heartbeat IPC: 0.574128 cumulative IPC: 0.703234 (Simulation time: 0 hr 23 min 49 sec) 
Heartbeat CPU 0 instructions: 57000001 cycles: 27812262 heartbeat IPC: 0.570995 cumulative IPC: 0.680713 (Simulation time: 0 hr 24 min 28 sec) 
Heartbeat CPU 0 instructions: 58000000 cycles: 29562371 heartbeat IPC: 0.571392 cumulative IPC: 0.664814 (Simulation time: 0 hr 25 min 8 sec) 
Heartbeat CPU 0 instructions: 59000003 cycles: 31313211 heartbeat IPC: 0.571156 cumulative IPC: 0.652918 (Simulation time: 0 hr 25 min 55 sec) 
Heartbeat CPU 0 instructions: 60000000 cycles: 33060631 heartbeat IPC: 0.572271 cumulative IPC: 0.643844 (Simulation time: 0 hr 26 min 47 sec) 
Heartbeat CPU 0 instructions: 61000002 cycles: 34810645 heartbeat IPC: 0.571425 cumulative IPC: 0.636511 (Simulation time: 0 hr 27 min 36 sec) 
Heartbeat CPU 0 instructions: 62000001 cycles: 36563754 heartbeat IPC: 0.570415 cumulative IPC: 0.630423 (Simulation time: 0 hr 28 min 23 sec) 
Heartbeat CPU 0 instructions: 63000001 cycles: 38311687 heartbeat IPC: 0.572104 cumulative IPC: 0.625518 (Simulation time: 0 hr 29 min 13 sec) 
Heartbeat CPU 0 instructions: 64000000 cycles: 40066823 heartbeat IPC: 0.569756 cumulative IPC: 0.621176 (Simulation time: 0 hr 30 min 4 sec) 
Heartbeat CPU 0 instructions: 65000002 cycles: 41816791 heartbeat IPC: 0.57144 cumulative IPC: 0.617592 (Simulation time: 0 hr 30 min 47 sec) 
Heartbeat CPU 0 instructions: 66000002 cycles: 43564103 heartbeat IPC: 0.572308 cumulative IPC: 0.614553 (Simulation time: 0 hr 31 min 27 sec) 
Heartbeat CPU 0 instructions: 67000000 cycles: 45314031 heartbeat IPC: 0.571451 cumulative IPC: 0.611839 (Simulation time: 0 hr 32 min 5 sec) 
Heartbeat CPU 0 instructions: 68000000 cycles: 47065141 heartbeat IPC: 0.571066 cumulative IPC: 0.609421 (Simulation time: 0 hr 32 min 41 sec) 
Heartbeat CPU 0 instructions: 69000000 cycles: 48816174 heartbeat IPC: 0.571091 cumulative IPC: 0.607276 (Simulation time: 0 hr 33 min 15 sec) 
Heartbeat CPU 0 instructions: 70000002 cycles: 50563798 heartbeat IPC: 0.572207 cumulative IPC: 0.605421 (Simulation time: 0 hr 33 min 49 sec) 
Heartbeat CPU 0 instructions: 71000001 cycles: 52315955 heartbeat IPC: 0.570725 cumulative IPC: 0.603673 (Simulation time: 0 hr 34 min 27 sec) 
Heartbeat CPU 0 instructions: 72000000 cycles: 54051193 heartbeat IPC: 0.576289 cumulative IPC: 0.602372 (Simulation time: 0 hr 35 min 1 sec) 
Heartbeat CPU 0 instructions: 73000000 cycles: 55484992 heartbeat IPC: 0.697448 cumulative IPC: 0.605964 (Simulation time: 0 hr 35 min 37 sec) 
Heartbeat CPU 0 instructions: 74000000 cycles: 56830116 heartbeat IPC: 0.743426 cumulative IPC: 0.610668 (Simulation time: 0 hr 36 min 10 sec) 
Heartbeat CPU 0 instructions: 75000000 cycles: 59157464 heartbeat IPC: 0.429674 cumulative IPC: 0.60055 (Simulation time: 0 hr 36 min 57 sec) 
Heartbeat CPU 0 instructions: 76000000 cycles: 61498444 heartbeat IPC: 0.427172 cumulative IPC: 0.591319 (Simulation time: 0 hr 37 min 45 sec) 
Heartbeat CPU 0 instructions: 77000000 cycles: 63835105 heartbeat IPC: 0.427961 cumulative IPC: 0.583076 (Simulation time: 0 hr 38 min 35 sec) 
Heartbeat CPU 0 instructions: 78000000 cycles: 66197903 heartbeat IPC: 0.423227 cumulative IPC: 0.575315 (Simulation time: 0 hr 39 min 22 sec) 
Heartbeat CPU 0 instructions: 79000000 cycles: 68527722 heartbeat IPC: 0.429218 cumulative IPC: 0.568641 (Simulation time: 0 hr 40 min 12 sec) 
Heartbeat CPU 0 instructions: 80000000 cycles: 70875024 heartbeat IPC: 0.426021 cumulative IPC: 0.562365 (Simulation time: 0 hr 41 min 3 sec) 
Heartbeat CPU 0 instructions: 81000000 cycles: 73209032 heartbeat IPC: 0.428448 cumulative IPC: 0.556752 (Simulation time: 0 hr 41 min 50 sec) 
Heartbeat CPU 0 instructions: 82000000 cycles: 75546248 heartbeat IPC: 0.427859 cumulative IPC: 0.551559 (Simulation time: 0 hr 42 min 35 sec) 
Heartbeat CPU 0 instructions: 83000000 cycles: 77890305 heartbeat IPC: 0.426611 cumulative IPC: 0.546707 (Simulation time: 0 hr 43 min 23 sec) 
Heartbeat CPU 0 instructions: 84000000 cycles: 79635502 heartbeat IPC: 0.573001 cumulative IPC: 0.547446 (Simulation time: 0 hr 44 min 2 sec) 
Heartbeat CPU 0 instructions: 85000001 cycles: 81034493 heartbeat IPC: 0.714802 cumulative IPC: 0.551133 (Simulation time: 0 hr 44 min 39 sec) 
Heartbeat CPU 0 instructions: 86000000 cycles: 82539465 heartbeat IPC: 0.664464 cumulative IPC: 0.553756 (Simulation time: 0 hr 45 min 15 sec) 
Heartbeat CPU 0 instructions: 87000003 cycles: 84049393 heartbeat IPC: 0.662285 cumulative IPC: 0.55622 (Simulation time: 0 hr 45 min 53 sec) 
Heartbeat CPU 0 instructions: 88000000 cycles: 85559385 heartbeat IPC: 0.662253 cumulative IPC: 0.558573 (Simulation time: 0 hr 46 min 30 sec) 
Heartbeat CPU 0 instructions: 89000001 cycles: 87069432 heartbeat IPC: 0.662232 cumulative IPC: 0.560824 (Simulation time: 0 hr 47 min 10 sec) 
Heartbeat CPU 0 instructions: 90000000 cycles: 88579552 heartbeat IPC: 0.662198 cumulative IPC: 0.562979 (Simulation time: 0 hr 47 min 49 sec) 
Heartbeat CPU 0 instructions: 91000001 cycles: 90089475 heartbeat IPC: 0.662286 cumulative IPC: 0.565045 (Simulation time: 0 hr 48 min 27 sec) 
Heartbeat CPU 0 instructions: 92000000 cycles: 91599583 heartbeat IPC: 0.662204 cumulative IPC: 0.567026 (Simulation time: 0 hr 49 min 4 sec) 
Heartbeat CPU 0 instructions: 93000002 cycles: 93109737 heartbeat IPC: 0.662185 cumulative IPC: 0.568927 (Simulation time: 0 hr 49 min 41 sec) 
Heartbeat CPU 0 instructions: 94000001 cycles: 94614137 heartbeat IPC: 0.664716 cumulative IPC: 0.570797 (Simulation time: 0 hr 50 min 17 sec) 
Heartbeat CPU 0 instructions: 95000000 cycles: 96124061 heartbeat IPC: 0.662284 cumulative IPC: 0.572555 (Simulation time: 0 hr 50 min 53 sec) 
Heartbeat CPU 0 instructions: 96000000 cycles: 97634055 heartbeat IPC: 0.662254 cumulative IPC: 0.574245 (Simulation time: 0 hr 51 min 30 sec) 
Heartbeat CPU 0 instructions: 97000002 cycles: 99142813 heartbeat IPC: 0.662798 cumulative IPC: 0.575882 (Simulation time: 0 hr 52 min 8 sec) 
Heartbeat CPU 0 instructions: 98000001 cycles: 100643903 heartbeat IPC: 0.666182 cumulative IPC: 0.577513 (Simulation time: 0 hr 52 min 45 sec) 
Heartbeat CPU 0 instructions: 99000000 cycles: 102153897 heartbeat IPC: 0.662254 cumulative IPC: 0.579025 (Simulation time: 0 hr 53 min 20 sec) 
Heartbeat CPU 0 instructions: 100000000 cycles: 103663818 heartbeat IPC: 0.662286 cumulative IPC: 0.580485 (Simulation time: 0 hr 53 min 56 sec) 
Heartbeat CPU 0 instructions: 101000000 cycles: 105172369 heartbeat IPC: 0.662888 cumulative IPC: 0.581903 (Simulation time: 0 hr 54 min 32 sec) 
Heartbeat CPU 0 instructions: 102000002 cycles: 106573204 heartbeat IPC: 0.713861 cumulative IPC: 0.583979 (Simulation time: 0 hr 55 min 7 sec) 
Heartbeat CPU 0 instructions: 103000001 cycles: 107515185 heartbeat IPC: 1.06159 cumulative IPC: 0.588979 (Simulation time: 0 hr 55 min 38 sec) 
Heartbeat CPU 0 instructions: 104000000 cycles: 109715166 heartbeat IPC: 0.454549 cumulative IPC: 0.585771 (Simulation time: 0 hr 56 min 21 sec) 
Heartbeat CPU 0 instructions: 105000000 cycles: 112059896 heartbeat IPC: 0.426488 cumulative IPC: 0.58182 (Simulation time: 0 hr 57 min 6 sec) 
Heartbeat CPU 0 instructions: 106000000 cycles: 114412592 heartbeat IPC: 0.425044 cumulative IPC: 0.578013 (Simulation time: 0 hr 57 min 49 sec) 
Heartbeat CPU 0 instructions: 107000000 cycles: 116769565 heartbeat IPC: 0.424273 cumulative IPC: 0.574361 (Simulation time: 0 hr 58 min 32 sec) 
Heartbeat CPU 0 instructions: 108000000 cycles: 119129440 heartbeat IPC: 0.423751 cumulative IPC: 0.570863 (Simulation time: 0 hr 59 min 16 sec) 
Heartbeat CPU 0 instructions: 109000000 cycles: 121476636 heartbeat IPC: 0.42604 cumulative IPC: 0.567593 (Simulation time: 1 hr 0 min 3 sec) 
Heartbeat CPU 0 instructions: 110000000 cycles: 123809839 heartbeat IPC: 0.428595 cumulative IPC: 0.564542 (Simulation time: 1 hr 0 min 48 sec) 
Heartbeat CPU 0 instructions: 111000000 cycles: 126159479 heartbeat IPC: 0.425597 cumulative IPC: 0.561536 (Simulation time: 1 hr 1 min 31 sec) 
Heartbeat CPU 0 instructions: 112000000 cycles: 128513223 heartbeat IPC: 0.424855 cumulative IPC: 0.558638 (Simulation time: 1 hr 2 min 15 sec) 
Heartbeat CPU 0 instructions: 113000000 cycles: 130692269 heartbeat IPC: 0.458916 cumulative IPC: 0.556717 (Simulation time: 1 hr 2 min 58 sec) 
Heartbeat CPU 0 instructions: 114000002 cycles: 132105513 heartbeat IPC: 0.707593 cumulative IPC: 0.558578 (Simulation time: 1 hr 3 min 32 sec) 
Heartbeat CPU 0 instructions: 115000001 cycles: 133852873 heartbeat IPC: 0.572291 cumulative IPC: 0.558784 (Simulation time: 1 hr 4 min 3 sec) 
Heartbeat CPU 0 instructions: 116000000 cycles: 135599627 heartbeat IPC: 0.57249 cumulative IPC: 0.558987 (Simulation time: 1 hr 4 min 36 sec) 
Heartbeat CPU 0 instructions: 117000002 cycles: 137349958 heartbeat IPC: 0.571322 cumulative IPC: 0.559167 (Simulation time: 1 hr 5 min 8 sec) 
Heartbeat CPU 0 instructions: 118000002 cycles: 139098526 heartbeat IPC: 0.571897 cumulative IPC: 0.55935 (Simulation time: 1 hr 5 min 41 sec) 
Heartbeat CPU 0 instructions: 119000002 cycles: 140849040 heartbeat IPC: 0.571261 cumulative IPC: 0.559519 (Simulation time: 1 hr 6 min 13 sec) 
Heartbeat CPU 0 instructions: 120000000 cycles: 142599358 heartbeat IPC: 0.571324 cumulative IPC: 0.559685 (Simulation time: 1 hr 6 min 44 sec) 
Heartbeat CPU 0 instructions: 121000000 cycles: 144351519 heartbeat IPC: 0.570724 cumulative IPC: 0.559837 (Simulation time: 1 hr 7 min 18 sec) 
Heartbeat CPU 0 instructions: 122000001 cycles: 146101916 heartbeat IPC: 0.5713 cumulative IPC: 0.559993 (Simulation time: 1 hr 7 min 52 sec) 
Heartbeat CPU 0 instructions: 123000000 cycles: 147852078 heartbeat IPC: 0.571375 cumulative IPC: 0.560146 (Simulation time: 1 hr 8 min 26 sec) 
Heartbeat CPU 0 instructions: 124000000 cycles: 149606882 heartbeat IPC: 0.569864 cumulative IPC: 0.560275 (Simulation time: 1 hr 8 min 59 sec) 
Heartbeat CPU 0 instructions: 125000001 cycles: 151353541 heartbeat IPC: 0.572522 cumulative IPC: 0.560435 (Simulation time: 1 hr 9 min 31 sec) 
Heartbeat CPU 0 instructions: 126000000 cycles: 153103222 heartbeat IPC: 0.571532 cumulative IPC: 0.560578 (Simulation time: 1 hr 10 min 4 sec) 
Heartbeat CPU 0 instructions: 127000003 cycles: 154852188 heartbeat IPC: 0.571768 cumulative IPC: 0.560721 (Simulation time: 1 hr 10 min 38 sec) 
Heartbeat CPU 0 instructions: 128000000 cycles: 156600055 heartbeat IPC: 0.572124 cumulative IPC: 0.560864 (Simulation time: 1 hr 11 min 11 sec) 
Heartbeat CPU 0 instructions: 129000000 cycles: 158351844 heartbeat IPC: 0.570845 cumulative IPC: 0.560988 (Simulation time: 1 hr 11 min 44 sec) 
Heartbeat CPU 0 instructions: 130000001 cycles: 160099934 heartbeat IPC: 0.572053 cumulative IPC: 0.561124 (Simulation time: 1 hr 12 min 18 sec) 
Heartbeat CPU 0 instructions: 131000000 cycles: 161832949 heartbeat IPC: 0.577028 cumulative IPC: 0.561315 (Simulation time: 1 hr 12 min 53 sec) 
Heartbeat CPU 0 instructions: 132000000 cycles: 163195302 heartbeat IPC: 0.734024 cumulative IPC: 0.56293 (Simulation time: 1 hr 13 min 24 sec) 
Heartbeat CPU 0 instructions: 133000000 cycles: 164703047 heartbeat IPC: 0.663242 cumulative IPC: 0.563958 (Simulation time: 1 hr 14 min 1 sec) 
Heartbeat CPU 0 instructions: 134000000 cycles: 167002230 heartbeat IPC: 0.434937 cumulative IPC: 0.561973 (Simulation time: 1 hr 14 min 45 sec) 
Heartbeat CPU 0 instructions: 135000000 cycles: 169316717 heartbeat IPC: 0.432061 cumulative IPC: 0.559992 (Simulation time: 1 hr 15 min 31 sec) 
Heartbeat CPU 0 instructions: 136000000 cycles: 171636259 heartbeat IPC: 0.43112 cumulative IPC: 0.558053 (Simulation time: 1 hr 16 min 16 sec) 
Heartbeat CPU 0 instructions: 137000000 cycles: 173960646 heartbeat IPC: 0.430221 cumulative IPC: 0.556153 (Simulation time: 1 hr 16 min 58 sec) 
Heartbeat CPU 0 instructions: 138000000 cycles: 176272939 heartbeat IPC: 0.432471 cumulative IPC: 0.554352 (Simulation time: 1 hr 17 min 40 sec) 
Heartbeat CPU 0 instructions: 139000000 cycles: 178587443 heartbeat IPC: 0.432058 cumulative IPC: 0.552594 (Simulation time: 1 hr 18 min 19 sec) 
Heartbeat CPU 0 instructions: 140000000 cycles: 180893660 heartbeat IPC: 0.433611 cumulative IPC: 0.550914 (Simulation time: 1 hr 19 min 2 sec) 
Heartbeat CPU 0 instructions: 141000000 cycles: 183205397 heartbeat IPC: 0.432575 cumulative IPC: 0.549263 (Simulation time: 1 hr 19 min 45 sec) 
Heartbeat CPU 0 instructions: 142000000 cycles: 185515307 heartbeat IPC: 0.432917 cumulative IPC: 0.547663 (Simulation time: 1 hr 20 min 28 sec) 
Heartbeat CPU 0 instructions: 143000000 cycles: 187061367 heartbeat IPC: 0.646805 cumulative IPC: 0.548568 (Simulation time: 1 hr 21 min 4 sec) 
Heartbeat CPU 0 instructions: 144000000 cycles: 188784943 heartbeat IPC: 0.580189 cumulative IPC: 0.548886 (Simulation time: 1 hr 21 min 35 sec) 
Heartbeat CPU 0 instructions: 145000002 cycles: 190533394 heartbeat IPC: 0.571936 cumulative IPC: 0.549119 (Simulation time: 1 hr 22 min 7 sec) 
Heartbeat CPU 0 instructions: 146000001 cycles: 192280536 heartbeat IPC: 0.572363 cumulative IPC: 0.549351 (Simulation time: 1 hr 22 min 40 sec) 
Heartbeat CPU 0 instructions: 147000000 cycles: 194030168 heartbeat IPC: 0.571548 cumulative IPC: 0.549571 (Simulation time: 1 hr 23 min 14 sec) 
Heartbeat CPU 0 instructions: 148000000 cycles: 195780480 heartbeat IPC: 0.571327 cumulative IPC: 0.549785 (Simulation time: 1 hr 23 min 44 sec) 
Heartbeat CPU 0 instructions: 149000002 cycles: 197529540 heartbeat IPC: 0.571737 cumulative IPC: 0.549998 (Simulation time: 1 hr 24 min 11 sec) 
Heartbeat CPU 0 instructions: 150000000 cycles: 199278718 heartbeat IPC: 0.571696 cumulative IPC: 0.550207 (Simulation time: 1 hr 24 min 39 sec) 
Finished CPU 0 instructions: 100000001 cycles: 181749793 cummulative IPC: 0.550207 (Simulation time: 1 hr 24 min 39 sec) 

ChampSim completed all CPUs

Region of Interest Statistics

CPU 0 cummulative IPC: 0.550207 instructions: 100000001 cycles: 181749793
LLC TOTAL     ACCESS:    5216164  HIT:     347918  MISS:    4868246
LLC LOAD      ACCESS:    1223340  HIT:      83717  MISS:    1139623
LLC RFO       ACCESS:         28  HIT:         28  MISS:          0
LLC PREFETCH  ACCESS:    2243743  HIT:     131025  MISS:    2112718
LLC WRITEBACK ACCESS:    1749053  HIT:     133148  MISS:    1615905
OPTgen accesses: 7281
OPTgen hits: 523
OPTgen hit rate: 7.18308


