
*** ChampSim Multicore Out-of-Order Simulator ***

Warmup Instructions: 50000000
Simulation Instructions: 100000000
Configuration: 2
Number of CPUs: 1
LLC sets: 2048
LLC ways: 16
Off-chip DRAM Channels: 1 Width: 64-bit Data Rate: 1600 MT/s

CPU 0 runs /datasets/cs240c-wi22-a00-public/data/Assignment2-gz/wrf_1228B.trace.gz
CPU 0 L1D next line prefetcher
CPU 0 L2C IP-based stride prefetcher
Initialize Hawkeye state
Heartbeat CPU 0 instructions: 1000003 cycles: 591062 heartbeat IPC: 1.69187 cumulative IPC: 1.69187 (Simulation time: 0 hr 0 min 41 sec) 
Heartbeat CPU 0 instructions: 2000003 cycles: 1111216 heartbeat IPC: 1.92251 cumulative IPC: 1.79983 (Simulation time: 0 hr 1 min 19 sec) 
Heartbeat CPU 0 instructions: 3000000 cycles: 1729182 heartbeat IPC: 1.61821 cumulative IPC: 1.73492 (Simulation time: 0 hr 2 min 2 sec) 
Heartbeat CPU 0 instructions: 4000000 cycles: 2349837 heartbeat IPC: 1.6112 cumulative IPC: 1.70225 (Simulation time: 0 hr 2 min 40 sec) 
Heartbeat CPU 0 instructions: 5000000 cycles: 3052202 heartbeat IPC: 1.42376 cumulative IPC: 1.63816 (Simulation time: 0 hr 3 min 23 sec) 
Heartbeat CPU 0 instructions: 6000000 cycles: 3612294 heartbeat IPC: 1.78542 cumulative IPC: 1.66099 (Simulation time: 0 hr 4 min 1 sec) 
Heartbeat CPU 0 instructions: 7000001 cycles: 4165060 heartbeat IPC: 1.80909 cumulative IPC: 1.68065 (Simulation time: 0 hr 4 min 41 sec) 
Heartbeat CPU 0 instructions: 8000000 cycles: 4716426 heartbeat IPC: 1.81368 cumulative IPC: 1.6962 (Simulation time: 0 hr 5 min 17 sec) 
Heartbeat CPU 0 instructions: 9000002 cycles: 5266613 heartbeat IPC: 1.81757 cumulative IPC: 1.70888 (Simulation time: 0 hr 5 min 54 sec) 
Heartbeat CPU 0 instructions: 10000001 cycles: 5819512 heartbeat IPC: 1.80865 cumulative IPC: 1.71836 (Simulation time: 0 hr 6 min 34 sec) 
Heartbeat CPU 0 instructions: 11000002 cycles: 6373255 heartbeat IPC: 1.80589 cumulative IPC: 1.72596 (Simulation time: 0 hr 7 min 15 sec) 
Heartbeat CPU 0 instructions: 12000000 cycles: 6924105 heartbeat IPC: 1.81537 cumulative IPC: 1.73308 (Simulation time: 0 hr 7 min 53 sec) 
Heartbeat CPU 0 instructions: 13000003 cycles: 7475135 heartbeat IPC: 1.81479 cumulative IPC: 1.7391 (Simulation time: 0 hr 8 min 32 sec) 
Heartbeat CPU 0 instructions: 14000000 cycles: 7938777 heartbeat IPC: 2.15683 cumulative IPC: 1.7635 (Simulation time: 0 hr 9 min 6 sec) 
Heartbeat CPU 0 instructions: 15000002 cycles: 8329255 heartbeat IPC: 2.56097 cumulative IPC: 1.80088 (Simulation time: 0 hr 9 min 38 sec) 
Heartbeat CPU 0 instructions: 16000000 cycles: 8719715 heartbeat IPC: 2.56108 cumulative IPC: 1.83492 (Simulation time: 0 hr 10 min 6 sec) 
Heartbeat CPU 0 instructions: 17000001 cycles: 9108874 heartbeat IPC: 2.56965 cumulative IPC: 1.86631 (Simulation time: 0 hr 10 min 35 sec) 
Heartbeat CPU 0 instructions: 18000003 cycles: 9499604 heartbeat IPC: 2.55932 cumulative IPC: 1.89482 (Simulation time: 0 hr 11 min 9 sec) 
Heartbeat CPU 0 instructions: 19000001 cycles: 9889950 heartbeat IPC: 2.56182 cumulative IPC: 1.92114 (Simulation time: 0 hr 11 min 37 sec) 
Heartbeat CPU 0 instructions: 20000000 cycles: 10279462 heartbeat IPC: 2.56731 cumulative IPC: 1.94563 (Simulation time: 0 hr 12 min 9 sec) 
Heartbeat CPU 0 instructions: 21000003 cycles: 10669405 heartbeat IPC: 2.56449 cumulative IPC: 1.96825 (Simulation time: 0 hr 12 min 43 sec) 
Heartbeat CPU 0 instructions: 22000000 cycles: 11071735 heartbeat IPC: 2.48551 cumulative IPC: 1.98704 (Simulation time: 0 hr 13 min 17 sec) 
Heartbeat CPU 0 instructions: 23000003 cycles: 11599083 heartbeat IPC: 1.89629 cumulative IPC: 1.98292 (Simulation time: 0 hr 13 min 57 sec) 
Heartbeat CPU 0 instructions: 24000000 cycles: 12126800 heartbeat IPC: 1.89495 cumulative IPC: 1.97909 (Simulation time: 0 hr 14 min 39 sec) 
Heartbeat CPU 0 instructions: 25000000 cycles: 12654079 heartbeat IPC: 1.89653 cumulative IPC: 1.97565 (Simulation time: 0 hr 15 min 18 sec) 
Heartbeat CPU 0 instructions: 26000003 cycles: 13181054 heartbeat IPC: 1.89763 cumulative IPC: 1.97253 (Simulation time: 0 hr 15 min 54 sec) 
Heartbeat CPU 0 instructions: 27000001 cycles: 13707957 heartbeat IPC: 1.89788 cumulative IPC: 1.96966 (Simulation time: 0 hr 16 min 33 sec) 
Heartbeat CPU 0 instructions: 28000000 cycles: 14235014 heartbeat IPC: 1.89733 cumulative IPC: 1.96698 (Simulation time: 0 hr 17 min 14 sec) 
Heartbeat CPU 0 instructions: 29000003 cycles: 14865546 heartbeat IPC: 1.58597 cumulative IPC: 1.95082 (Simulation time: 0 hr 17 min 55 sec) 
Heartbeat CPU 0 instructions: 30000003 cycles: 15479006 heartbeat IPC: 1.6301 cumulative IPC: 1.93811 (Simulation time: 0 hr 18 min 41 sec) 
Heartbeat CPU 0 instructions: 31000001 cycles: 16036309 heartbeat IPC: 1.79435 cumulative IPC: 1.93311 (Simulation time: 0 hr 19 min 22 sec) 
Heartbeat CPU 0 instructions: 32000000 cycles: 16591894 heartbeat IPC: 1.7999 cumulative IPC: 1.92865 (Simulation time: 0 hr 20 min 5 sec) 
Heartbeat CPU 0 instructions: 33000001 cycles: 17212713 heartbeat IPC: 1.61078 cumulative IPC: 1.91719 (Simulation time: 0 hr 20 min 50 sec) 
Heartbeat CPU 0 instructions: 34000003 cycles: 17833275 heartbeat IPC: 1.61145 cumulative IPC: 1.90655 (Simulation time: 0 hr 21 min 33 sec) 
Heartbeat CPU 0 instructions: 35000002 cycles: 18516713 heartbeat IPC: 1.46319 cumulative IPC: 1.89018 (Simulation time: 0 hr 22 min 16 sec) 
Heartbeat CPU 0 instructions: 36000000 cycles: 19069531 heartbeat IPC: 1.80891 cumulative IPC: 1.88783 (Simulation time: 0 hr 22 min 56 sec) 
Heartbeat CPU 0 instructions: 37000001 cycles: 19623037 heartbeat IPC: 1.80667 cumulative IPC: 1.88554 (Simulation time: 0 hr 23 min 39 sec) 
Heartbeat CPU 0 instructions: 38000001 cycles: 20173227 heartbeat IPC: 1.81755 cumulative IPC: 1.88368 (Simulation time: 0 hr 24 min 18 sec) 
Heartbeat CPU 0 instructions: 39000002 cycles: 20724691 heartbeat IPC: 1.81336 cumulative IPC: 1.88181 (Simulation time: 0 hr 24 min 57 sec) 
Heartbeat CPU 0 instructions: 40000000 cycles: 21277157 heartbeat IPC: 1.81006 cumulative IPC: 1.87995 (Simulation time: 0 hr 25 min 37 sec) 
Heartbeat CPU 0 instructions: 41000000 cycles: 21829676 heartbeat IPC: 1.80989 cumulative IPC: 1.87818 (Simulation time: 0 hr 26 min 15 sec) 
Heartbeat CPU 0 instructions: 42000000 cycles: 22382151 heartbeat IPC: 1.81004 cumulative IPC: 1.8765 (Simulation time: 0 hr 26 min 53 sec) 
Heartbeat CPU 0 instructions: 43000000 cycles: 22932643 heartbeat IPC: 1.81656 cumulative IPC: 1.87506 (Simulation time: 0 hr 27 min 31 sec) 
Heartbeat CPU 0 instructions: 44000000 cycles: 23336500 heartbeat IPC: 2.47612 cumulative IPC: 1.88546 (Simulation time: 0 hr 28 min 5 sec) 
Heartbeat CPU 0 instructions: 45000000 cycles: 23726019 heartbeat IPC: 2.56727 cumulative IPC: 1.89665 (Simulation time: 0 hr 28 min 38 sec) 
Heartbeat CPU 0 instructions: 46000000 cycles: 24116158 heartbeat IPC: 2.56319 cumulative IPC: 1.90743 (Simulation time: 0 hr 29 min 11 sec) 
Heartbeat CPU 0 instructions: 47000002 cycles: 24506670 heartbeat IPC: 2.56075 cumulative IPC: 1.91785 (Simulation time: 0 hr 29 min 45 sec) 
Heartbeat CPU 0 instructions: 48000000 cycles: 24896795 heartbeat IPC: 2.56328 cumulative IPC: 1.92796 (Simulation time: 0 hr 30 min 20 sec) 
Heartbeat CPU 0 instructions: 49000001 cycles: 25286060 heartbeat IPC: 2.56895 cumulative IPC: 1.93783 (Simulation time: 0 hr 30 min 53 sec) 
Heartbeat CPU 0 instructions: 50000003 cycles: 25676734 heartbeat IPC: 2.55968 cumulative IPC: 1.94729 (Simulation time: 0 hr 31 min 27 sec) 

Warmup complete CPU 0 instructions: 50000003 cycles: 25676734 (Simulation time: 0 hr 31 min 27 sec) 

Heartbeat CPU 0 instructions: 51000001 cycles: 26514501 heartbeat IPC: 1.19365 cumulative IPC: 1.19365 (Simulation time: 0 hr 32 min 4 sec) 
Heartbeat CPU 0 instructions: 52000000 cycles: 27424304 heartbeat IPC: 1.09914 cumulative IPC: 1.14444 (Simulation time: 0 hr 32 min 42 sec) 
Heartbeat CPU 0 instructions: 53000002 cycles: 28441972 heartbeat IPC: 0.982641 cumulative IPC: 1.0849 (Simulation time: 0 hr 33 min 21 sec) 
Heartbeat CPU 0 instructions: 54000001 cycles: 29444077 heartbeat IPC: 0.997898 cumulative IPC: 1.06176 (Simulation time: 0 hr 34 min 0 sec) 
Heartbeat CPU 0 instructions: 55000003 cycles: 30418946 heartbeat IPC: 1.02578 cumulative IPC: 1.05436 (Simulation time: 0 hr 34 min 39 sec) 
Heartbeat CPU 0 instructions: 56000000 cycles: 31392032 heartbeat IPC: 1.02766 cumulative IPC: 1.04981 (Simulation time: 0 hr 35 min 18 sec) 
Heartbeat CPU 0 instructions: 57000001 cycles: 32350038 heartbeat IPC: 1.04384 cumulative IPC: 1.04896 (Simulation time: 0 hr 35 min 56 sec) 
Heartbeat CPU 0 instructions: 58000000 cycles: 33298316 heartbeat IPC: 1.05454 cumulative IPC: 1.04965 (Simulation time: 0 hr 36 min 34 sec) 
Heartbeat CPU 0 instructions: 59000002 cycles: 35176788 heartbeat IPC: 0.532349 cumulative IPC: 0.947363 (Simulation time: 0 hr 37 min 23 sec) 
Heartbeat CPU 0 instructions: 60000000 cycles: 37092411 heartbeat IPC: 0.522022 cumulative IPC: 0.875988 (Simulation time: 0 hr 38 min 10 sec) 
Heartbeat CPU 0 instructions: 61000000 cycles: 39440355 heartbeat IPC: 0.425905 cumulative IPC: 0.799208 (Simulation time: 0 hr 39 min 1 sec) 
Heartbeat CPU 0 instructions: 62000000 cycles: 41149160 heartbeat IPC: 0.585204 cumulative IPC: 0.775573 (Simulation time: 0 hr 39 min 48 sec) 
Heartbeat CPU 0 instructions: 63000001 cycles: 42656224 heartbeat IPC: 0.663543 cumulative IPC: 0.765629 (Simulation time: 0 hr 40 min 34 sec) 
Heartbeat CPU 0 instructions: 64000000 cycles: 44202385 heartbeat IPC: 0.646763 cumulative IPC: 0.755709 (Simulation time: 0 hr 41 min 21 sec) 
Heartbeat CPU 0 instructions: 65000003 cycles: 45697208 heartbeat IPC: 0.668978 cumulative IPC: 0.749233 (Simulation time: 0 hr 42 min 9 sec) 
Heartbeat CPU 0 instructions: 66000000 cycles: 47192773 heartbeat IPC: 0.668642 cumulative IPC: 0.743631 (Simulation time: 0 hr 42 min 55 sec) 
Heartbeat CPU 0 instructions: 67000000 cycles: 48687299 heartbeat IPC: 0.669108 cumulative IPC: 0.738791 (Simulation time: 0 hr 43 min 41 sec) 
Heartbeat CPU 0 instructions: 68000000 cycles: 50181913 heartbeat IPC: 0.669069 cumulative IPC: 0.734538 (Simulation time: 0 hr 44 min 27 sec) 
Heartbeat CPU 0 instructions: 69000000 cycles: 51689382 heartbeat IPC: 0.663364 cumulative IPC: 0.730414 (Simulation time: 0 hr 45 min 14 sec) 
Heartbeat CPU 0 instructions: 70000001 cycles: 53185958 heartbeat IPC: 0.668193 cumulative IPC: 0.727029 (Simulation time: 0 hr 46 min 1 sec) 
Heartbeat CPU 0 instructions: 71000001 cycles: 54680105 heartbeat IPC: 0.669278 cumulative IPC: 0.724054 (Simulation time: 0 hr 46 min 47 sec) 
Heartbeat CPU 0 instructions: 72000000 cycles: 56163472 heartbeat IPC: 0.674141 cumulative IPC: 0.721625 (Simulation time: 0 hr 47 min 34 sec) 
Heartbeat CPU 0 instructions: 73000003 cycles: 57651535 heartbeat IPC: 0.672017 cumulative IPC: 0.719316 (Simulation time: 0 hr 48 min 20 sec) 
Heartbeat CPU 0 instructions: 74000000 cycles: 59149065 heartbeat IPC: 0.667764 cumulative IPC: 0.71701 (Simulation time: 0 hr 49 min 8 sec) 
Heartbeat CPU 0 instructions: 75000001 cycles: 60642906 heartbeat IPC: 0.669416 cumulative IPC: 0.714977 (Simulation time: 0 hr 49 min 57 sec) 
Heartbeat CPU 0 instructions: 76000000 cycles: 62139336 heartbeat IPC: 0.668256 cumulative IPC: 0.713059 (Simulation time: 0 hr 50 min 46 sec) 
Heartbeat CPU 0 instructions: 77000003 cycles: 63633129 heartbeat IPC: 0.669439 cumulative IPC: 0.711343 (Simulation time: 0 hr 51 min 33 sec) 
Heartbeat CPU 0 instructions: 78000001 cycles: 65127821 heartbeat IPC: 0.669033 cumulative IPC: 0.70974 (Simulation time: 0 hr 52 min 20 sec) 
Heartbeat CPU 0 instructions: 79000000 cycles: 66624256 heartbeat IPC: 0.668254 cumulative IPC: 0.708223 (Simulation time: 0 hr 53 min 7 sec) 
Heartbeat CPU 0 instructions: 80000000 cycles: 68114637 heartbeat IPC: 0.670969 cumulative IPC: 0.706915 (Simulation time: 0 hr 53 min 54 sec) 
Heartbeat CPU 0 instructions: 81000001 cycles: 69598573 heartbeat IPC: 0.673884 cumulative IPC: 0.705799 (Simulation time: 0 hr 54 min 40 sec) 
Heartbeat CPU 0 instructions: 82000000 cycles: 71081395 heartbeat IPC: 0.674389 cumulative IPC: 0.704773 (Simulation time: 0 hr 55 min 27 sec) 
Heartbeat CPU 0 instructions: 83000000 cycles: 72564745 heartbeat IPC: 0.67415 cumulative IPC: 0.703805 (Simulation time: 0 hr 56 min 13 sec) 
Heartbeat CPU 0 instructions: 84000000 cycles: 74059531 heartbeat IPC: 0.668992 cumulative IPC: 0.702729 (Simulation time: 0 hr 56 min 59 sec) 
Heartbeat CPU 0 instructions: 85000000 cycles: 75554412 heartbeat IPC: 0.66895 cumulative IPC: 0.701717 (Simulation time: 0 hr 57 min 48 sec) 
Heartbeat CPU 0 instructions: 86000000 cycles: 77048502 heartbeat IPC: 0.669304 cumulative IPC: 0.700774 (Simulation time: 0 hr 58 min 34 sec) 
Heartbeat CPU 0 instructions: 87000000 cycles: 78543352 heartbeat IPC: 0.668963 cumulative IPC: 0.699874 (Simulation time: 0 hr 59 min 20 sec) 
Heartbeat CPU 0 instructions: 88000000 cycles: 80038566 heartbeat IPC: 0.668801 cumulative IPC: 0.69902 (Simulation time: 1 hr 0 min 6 sec) 
Heartbeat CPU 0 instructions: 89000002 cycles: 81534195 heartbeat IPC: 0.668616 cumulative IPC: 0.698206 (Simulation time: 1 hr 0 min 53 sec) 
Heartbeat CPU 0 instructions: 90000000 cycles: 83018596 heartbeat IPC: 0.673671 cumulative IPC: 0.697571 (Simulation time: 1 hr 1 min 39 sec) 
Heartbeat CPU 0 instructions: 91000000 cycles: 84502055 heartbeat IPC: 0.6741 cumulative IPC: 0.696979 (Simulation time: 1 hr 2 min 26 sec) 
Heartbeat CPU 0 instructions: 92000000 cycles: 85985891 heartbeat IPC: 0.673929 cumulative IPC: 0.696412 (Simulation time: 1 hr 3 min 11 sec) 
Heartbeat CPU 0 instructions: 93000000 cycles: 87475628 heartbeat IPC: 0.671259 cumulative IPC: 0.695805 (Simulation time: 1 hr 3 min 57 sec) 
Heartbeat CPU 0 instructions: 94000003 cycles: 88969761 heartbeat IPC: 0.669286 cumulative IPC: 0.695179 (Simulation time: 1 hr 4 min 45 sec) 
Heartbeat CPU 0 instructions: 95000000 cycles: 90465526 heartbeat IPC: 0.668552 cumulative IPC: 0.694565 (Simulation time: 1 hr 5 min 33 sec) 
Heartbeat CPU 0 instructions: 96000000 cycles: 91959477 heartbeat IPC: 0.669366 cumulative IPC: 0.693997 (Simulation time: 1 hr 6 min 18 sec) 
Heartbeat CPU 0 instructions: 97000001 cycles: 93455022 heartbeat IPC: 0.668653 cumulative IPC: 0.693437 (Simulation time: 1 hr 7 min 4 sec) 
Heartbeat CPU 0 instructions: 98000003 cycles: 94950364 heartbeat IPC: 0.668745 cumulative IPC: 0.692904 (Simulation time: 1 hr 7 min 50 sec) 
Heartbeat CPU 0 instructions: 99000000 cycles: 96439685 heartbeat IPC: 0.671445 cumulative IPC: 0.692453 (Simulation time: 1 hr 8 min 38 sec) 
Heartbeat CPU 0 instructions: 100000000 cycles: 97923389 heartbeat IPC: 0.673989 cumulative IPC: 0.692074 (Simulation time: 1 hr 9 min 24 sec) 
Heartbeat CPU 0 instructions: 101000000 cycles: 99406598 heartbeat IPC: 0.674214 cumulative IPC: 0.691714 (Simulation time: 1 hr 10 min 11 sec) 
Heartbeat CPU 0 instructions: 102000003 cycles: 100890181 heartbeat IPC: 0.674046 cumulative IPC: 0.691366 (Simulation time: 1 hr 10 min 56 sec) 
Heartbeat CPU 0 instructions: 103000003 cycles: 102386443 heartbeat IPC: 0.668332 cumulative IPC: 0.690916 (Simulation time: 1 hr 11 min 43 sec) 
Heartbeat CPU 0 instructions: 104000000 cycles: 103880977 heartbeat IPC: 0.669103 cumulative IPC: 0.6905 (Simulation time: 1 hr 12 min 30 sec) 
Heartbeat CPU 0 instructions: 105000000 cycles: 105375895 heartbeat IPC: 0.668933 cumulative IPC: 0.690095 (Simulation time: 1 hr 13 min 17 sec) 
Heartbeat CPU 0 instructions: 106000000 cycles: 106870955 heartbeat IPC: 0.668869 cumulative IPC: 0.689704 (Simulation time: 1 hr 14 min 5 sec) 
Heartbeat CPU 0 instructions: 107000000 cycles: 108366796 heartbeat IPC: 0.66852 cumulative IPC: 0.689321 (Simulation time: 1 hr 14 min 52 sec) 
Heartbeat CPU 0 instructions: 108000000 cycles: 109862192 heartbeat IPC: 0.668719 cumulative IPC: 0.688955 (Simulation time: 1 hr 15 min 39 sec) 
Heartbeat CPU 0 instructions: 109000003 cycles: 111345051 heartbeat IPC: 0.674375 cumulative IPC: 0.688703 (Simulation time: 1 hr 16 min 23 sec) 
Heartbeat CPU 0 instructions: 110000001 cycles: 112828250 heartbeat IPC: 0.674217 cumulative IPC: 0.688456 (Simulation time: 1 hr 17 min 11 sec) 
Heartbeat CPU 0 instructions: 111000000 cycles: 114311829 heartbeat IPC: 0.674045 cumulative IPC: 0.688215 (Simulation time: 1 hr 17 min 54 sec) 
Heartbeat CPU 0 instructions: 112000000 cycles: 115803201 heartbeat IPC: 0.670524 cumulative IPC: 0.687922 (Simulation time: 1 hr 18 min 38 sec) 
Heartbeat CPU 0 instructions: 113000000 cycles: 117297196 heartbeat IPC: 0.669346 cumulative IPC: 0.687619 (Simulation time: 1 hr 19 min 20 sec) 
Heartbeat CPU 0 instructions: 114000000 cycles: 118792966 heartbeat IPC: 0.668552 cumulative IPC: 0.687313 (Simulation time: 1 hr 20 min 4 sec) 
Heartbeat CPU 0 instructions: 115000003 cycles: 120287074 heartbeat IPC: 0.669298 cumulative IPC: 0.687029 (Simulation time: 1 hr 20 min 49 sec) 
Heartbeat CPU 0 instructions: 116000000 cycles: 121783147 heartbeat IPC: 0.668415 cumulative IPC: 0.686739 (Simulation time: 1 hr 21 min 32 sec) 
Heartbeat CPU 0 instructions: 117000000 cycles: 123278740 heartbeat IPC: 0.668631 cumulative IPC: 0.686461 (Simulation time: 1 hr 22 min 15 sec) 
Heartbeat CPU 0 instructions: 118000000 cycles: 124766531 heartbeat IPC: 0.672137 cumulative IPC: 0.686246 (Simulation time: 1 hr 22 min 59 sec) 
Heartbeat CPU 0 instructions: 119000001 cycles: 126250449 heartbeat IPC: 0.673892 cumulative IPC: 0.686064 (Simulation time: 1 hr 23 min 42 sec) 
Heartbeat CPU 0 instructions: 120000000 cycles: 127733713 heartbeat IPC: 0.674188 cumulative IPC: 0.685891 (Simulation time: 1 hr 24 min 19 sec) 
Heartbeat CPU 0 instructions: 121000000 cycles: 129218425 heartbeat IPC: 0.673531 cumulative IPC: 0.685714 (Simulation time: 1 hr 24 min 54 sec) 
Heartbeat CPU 0 instructions: 122000002 cycles: 130716706 heartbeat IPC: 0.667433 cumulative IPC: 0.685453 (Simulation time: 1 hr 25 min 32 sec) 
Heartbeat CPU 0 instructions: 123000002 cycles: 132218279 heartbeat IPC: 0.665968 cumulative IPC: 0.685179 (Simulation time: 1 hr 26 min 10 sec) 
Heartbeat CPU 0 instructions: 124000000 cycles: 133715497 heartbeat IPC: 0.667904 cumulative IPC: 0.684939 (Simulation time: 1 hr 26 min 46 sec) 
Heartbeat CPU 0 instructions: 125000000 cycles: 135211290 heartbeat IPC: 0.668542 cumulative IPC: 0.684715 (Simulation time: 1 hr 27 min 16 sec) 
Heartbeat CPU 0 instructions: 126000000 cycles: 136724398 heartbeat IPC: 0.660891 cumulative IPC: 0.684391 (Simulation time: 1 hr 27 min 46 sec) 
Heartbeat CPU 0 instructions: 127000000 cycles: 138221317 heartbeat IPC: 0.668039 cumulative IPC: 0.684173 (Simulation time: 1 hr 28 min 15 sec) 
Heartbeat CPU 0 instructions: 128000000 cycles: 139712286 heartbeat IPC: 0.670705 cumulative IPC: 0.683997 (Simulation time: 1 hr 28 min 43 sec) 
Heartbeat CPU 0 instructions: 129000000 cycles: 141195930 heartbeat IPC: 0.674016 cumulative IPC: 0.683869 (Simulation time: 1 hr 29 min 9 sec) 
Heartbeat CPU 0 instructions: 130000001 cycles: 142686351 heartbeat IPC: 0.670952 cumulative IPC: 0.683704 (Simulation time: 1 hr 29 min 36 sec) 
Heartbeat CPU 0 instructions: 131000001 cycles: 144181503 heartbeat IPC: 0.668828 cumulative IPC: 0.683517 (Simulation time: 1 hr 30 min 3 sec) 
Heartbeat CPU 0 instructions: 132000000 cycles: 145677086 heartbeat IPC: 0.668635 cumulative IPC: 0.683331 (Simulation time: 1 hr 30 min 30 sec) 
Heartbeat CPU 0 instructions: 133000000 cycles: 147175309 heartbeat IPC: 0.667457 cumulative IPC: 0.683136 (Simulation time: 1 hr 30 min 59 sec) 
Heartbeat CPU 0 instructions: 134000000 cycles: 148669879 heartbeat IPC: 0.669089 cumulative IPC: 0.682965 (Simulation time: 1 hr 31 min 25 sec) 
Heartbeat CPU 0 instructions: 135000001 cycles: 150165116 heartbeat IPC: 0.668791 cumulative IPC: 0.682795 (Simulation time: 1 hr 31 min 53 sec) 
Heartbeat CPU 0 instructions: 136000000 cycles: 151662782 heartbeat IPC: 0.667705 cumulative IPC: 0.682615 (Simulation time: 1 hr 32 min 22 sec) 
Heartbeat CPU 0 instructions: 137000002 cycles: 153149443 heartbeat IPC: 0.67265 cumulative IPC: 0.682499 (Simulation time: 1 hr 32 min 48 sec) 
Heartbeat CPU 0 instructions: 138000001 cycles: 154634245 heartbeat IPC: 0.67349 cumulative IPC: 0.682395 (Simulation time: 1 hr 33 min 17 sec) 
Heartbeat CPU 0 instructions: 139000001 cycles: 156117934 heartbeat IPC: 0.673996 cumulative IPC: 0.6823 (Simulation time: 1 hr 33 min 42 sec) 
Heartbeat CPU 0 instructions: 140000000 cycles: 157603930 heartbeat IPC: 0.672949 cumulative IPC: 0.682194 (Simulation time: 1 hr 34 min 8 sec) 
Heartbeat CPU 0 instructions: 141000002 cycles: 159100053 heartbeat IPC: 0.668396 cumulative IPC: 0.68204 (Simulation time: 1 hr 34 min 31 sec) 
Heartbeat CPU 0 instructions: 142000000 cycles: 160595135 heartbeat IPC: 0.668858 cumulative IPC: 0.681894 (Simulation time: 1 hr 34 min 54 sec) 
Heartbeat CPU 0 instructions: 143000000 cycles: 162089538 heartbeat IPC: 0.669164 cumulative IPC: 0.681754 (Simulation time: 1 hr 35 min 17 sec) 
Heartbeat CPU 0 instructions: 144000000 cycles: 163584324 heartbeat IPC: 0.668992 cumulative IPC: 0.681616 (Simulation time: 1 hr 35 min 39 sec) 
Heartbeat CPU 0 instructions: 145000000 cycles: 165080566 heartbeat IPC: 0.668341 cumulative IPC: 0.681473 (Simulation time: 1 hr 36 min 0 sec) 
Heartbeat CPU 0 instructions: 146000000 cycles: 166572293 heartbeat IPC: 0.670364 cumulative IPC: 0.681356 (Simulation time: 1 hr 36 min 19 sec) 
Heartbeat CPU 0 instructions: 147000003 cycles: 168055476 heartbeat IPC: 0.674228 cumulative IPC: 0.681282 (Simulation time: 1 hr 36 min 38 sec) 
Heartbeat CPU 0 instructions: 148000000 cycles: 169539573 heartbeat IPC: 0.673808 cumulative IPC: 0.681204 (Simulation time: 1 hr 36 min 56 sec) 
Heartbeat CPU 0 instructions: 149000002 cycles: 171023057 heartbeat IPC: 0.67409 cumulative IPC: 0.681132 (Simulation time: 1 hr 37 min 15 sec) 
Heartbeat CPU 0 instructions: 150000001 cycles: 172516588 heartbeat IPC: 0.669554 cumulative IPC: 0.681014 (Simulation time: 1 hr 37 min 33 sec) 
Finished CPU 0 instructions: 100000001 cycles: 146839858 cummulative IPC: 0.681014 (Simulation time: 1 hr 37 min 33 sec) 

ChampSim completed all CPUs

Region of Interest Statistics

CPU 0 cummulative IPC: 0.681014 instructions: 100000001 cycles: 146839858
LLC TOTAL     ACCESS:     644567  HIT:     149055  MISS:     495512
LLC LOAD      ACCESS:      35119  HIT:       5580  MISS:      29539
LLC RFO       ACCESS:     120254  HIT:      24917  MISS:      95337
LLC PREFETCH  ACCESS:     306571  HIT:      34202  MISS:     272369
LLC WRITEBACK ACCESS:     182623  HIT:      84356  MISS:      98267
OPTgen accesses: 1755
OPTgen hits: 679
OPTgen hit rate: 38.6895


