
*** ChampSim Multicore Out-of-Order Simulator ***

Warmup Instructions: 50000000
Simulation Instructions: 100000000
Configuration: 2
Number of CPUs: 1
LLC sets: 2048
LLC ways: 16
Off-chip DRAM Channels: 1 Width: 64-bit Data Rate: 1600 MT/s

CPU 0 runs /datasets/cs240c-wi22-a00-public/data/Assignment2-gz/zeusmp_100B.trace.gz
CPU 0 L1D next line prefetcher
CPU 0 L2C IP-based stride prefetcher
Initialize Hawkeye state
Heartbeat CPU 0 instructions: 1000002 cycles: 462679 heartbeat IPC: 2.16133 cumulative IPC: 2.16133 (Simulation time: 0 hr 0 min 32 sec) 
Heartbeat CPU 0 instructions: 2000001 cycles: 925469 heartbeat IPC: 2.16081 cumulative IPC: 2.16107 (Simulation time: 0 hr 1 min 3 sec) 
Heartbeat CPU 0 instructions: 3000003 cycles: 1388509 heartbeat IPC: 2.15964 cumulative IPC: 2.16059 (Simulation time: 0 hr 1 min 33 sec) 
Heartbeat CPU 0 instructions: 4000000 cycles: 1851236 heartbeat IPC: 2.16109 cumulative IPC: 2.16072 (Simulation time: 0 hr 2 min 7 sec) 
Heartbeat CPU 0 instructions: 5000003 cycles: 2314175 heartbeat IPC: 2.16012 cumulative IPC: 2.1606 (Simulation time: 0 hr 2 min 43 sec) 
Heartbeat CPU 0 instructions: 6000001 cycles: 2777031 heartbeat IPC: 2.16049 cumulative IPC: 2.16058 (Simulation time: 0 hr 3 min 13 sec) 
Heartbeat CPU 0 instructions: 7000001 cycles: 3239712 heartbeat IPC: 2.16132 cumulative IPC: 2.16069 (Simulation time: 0 hr 3 min 44 sec) 
Heartbeat CPU 0 instructions: 8000000 cycles: 3702577 heartbeat IPC: 2.16045 cumulative IPC: 2.16066 (Simulation time: 0 hr 4 min 16 sec) 
Heartbeat CPU 0 instructions: 9000003 cycles: 4165353 heartbeat IPC: 2.16088 cumulative IPC: 2.16068 (Simulation time: 0 hr 4 min 44 sec) 
Heartbeat CPU 0 instructions: 10000001 cycles: 4628684 heartbeat IPC: 2.15828 cumulative IPC: 2.16044 (Simulation time: 0 hr 5 min 18 sec) 
Heartbeat CPU 0 instructions: 11000000 cycles: 5092321 heartbeat IPC: 2.15686 cumulative IPC: 2.16012 (Simulation time: 0 hr 5 min 49 sec) 
Heartbeat CPU 0 instructions: 12000000 cycles: 5556020 heartbeat IPC: 2.15657 cumulative IPC: 2.15982 (Simulation time: 0 hr 6 min 19 sec) 
Heartbeat CPU 0 instructions: 13000001 cycles: 6019144 heartbeat IPC: 2.15925 cumulative IPC: 2.15978 (Simulation time: 0 hr 6 min 49 sec) 
Heartbeat CPU 0 instructions: 14000002 cycles: 6481967 heartbeat IPC: 2.16066 cumulative IPC: 2.15984 (Simulation time: 0 hr 7 min 16 sec) 
Heartbeat CPU 0 instructions: 15000002 cycles: 6944930 heartbeat IPC: 2.16 cumulative IPC: 2.15985 (Simulation time: 0 hr 7 min 49 sec) 
Heartbeat CPU 0 instructions: 16000000 cycles: 7407642 heartbeat IPC: 2.16117 cumulative IPC: 2.15993 (Simulation time: 0 hr 8 min 19 sec) 
Heartbeat CPU 0 instructions: 17000000 cycles: 7838304 heartbeat IPC: 2.32201 cumulative IPC: 2.16884 (Simulation time: 0 hr 8 min 49 sec) 
Heartbeat CPU 0 instructions: 18000001 cycles: 8265972 heartbeat IPC: 2.33826 cumulative IPC: 2.1776 (Simulation time: 0 hr 9 min 16 sec) 
Heartbeat CPU 0 instructions: 19000002 cycles: 8693174 heartbeat IPC: 2.34082 cumulative IPC: 2.18562 (Simulation time: 0 hr 9 min 45 sec) 
Heartbeat CPU 0 instructions: 20000000 cycles: 9120591 heartbeat IPC: 2.33963 cumulative IPC: 2.19284 (Simulation time: 0 hr 10 min 15 sec) 
Heartbeat CPU 0 instructions: 21000001 cycles: 9547870 heartbeat IPC: 2.34039 cumulative IPC: 2.19944 (Simulation time: 0 hr 10 min 46 sec) 
Heartbeat CPU 0 instructions: 22000001 cycles: 9975298 heartbeat IPC: 2.33958 cumulative IPC: 2.20545 (Simulation time: 0 hr 11 min 16 sec) 
Heartbeat CPU 0 instructions: 23000000 cycles: 10403353 heartbeat IPC: 2.33615 cumulative IPC: 2.21083 (Simulation time: 0 hr 11 min 47 sec) 
Heartbeat CPU 0 instructions: 24000000 cycles: 10830668 heartbeat IPC: 2.34019 cumulative IPC: 2.21593 (Simulation time: 0 hr 12 min 16 sec) 
Heartbeat CPU 0 instructions: 25000002 cycles: 11257911 heartbeat IPC: 2.34059 cumulative IPC: 2.22066 (Simulation time: 0 hr 12 min 50 sec) 
Heartbeat CPU 0 instructions: 26000001 cycles: 11685356 heartbeat IPC: 2.33948 cumulative IPC: 2.22501 (Simulation time: 0 hr 13 min 25 sec) 
Heartbeat CPU 0 instructions: 27000003 cycles: 12113181 heartbeat IPC: 2.33741 cumulative IPC: 2.22898 (Simulation time: 0 hr 14 min 1 sec) 
Heartbeat CPU 0 instructions: 28000000 cycles: 12540683 heartbeat IPC: 2.33916 cumulative IPC: 2.23273 (Simulation time: 0 hr 14 min 36 sec) 
Heartbeat CPU 0 instructions: 29000002 cycles: 12967851 heartbeat IPC: 2.341 cumulative IPC: 2.2363 (Simulation time: 0 hr 15 min 11 sec) 
Heartbeat CPU 0 instructions: 30000003 cycles: 13395289 heartbeat IPC: 2.33952 cumulative IPC: 2.23959 (Simulation time: 0 hr 15 min 45 sec) 
Heartbeat CPU 0 instructions: 31000001 cycles: 13822970 heartbeat IPC: 2.33819 cumulative IPC: 2.24264 (Simulation time: 0 hr 16 min 19 sec) 
Heartbeat CPU 0 instructions: 32000000 cycles: 14250676 heartbeat IPC: 2.33805 cumulative IPC: 2.24551 (Simulation time: 0 hr 16 min 52 sec) 
Heartbeat CPU 0 instructions: 33000002 cycles: 14677668 heartbeat IPC: 2.34197 cumulative IPC: 2.24831 (Simulation time: 0 hr 17 min 24 sec) 
Heartbeat CPU 0 instructions: 34000001 cycles: 15104854 heartbeat IPC: 2.3409 cumulative IPC: 2.25093 (Simulation time: 0 hr 17 min 56 sec) 
Heartbeat CPU 0 instructions: 35000003 cycles: 15532291 heartbeat IPC: 2.33953 cumulative IPC: 2.25337 (Simulation time: 0 hr 18 min 30 sec) 
Heartbeat CPU 0 instructions: 36000000 cycles: 15959913 heartbeat IPC: 2.33851 cumulative IPC: 2.25565 (Simulation time: 0 hr 19 min 4 sec) 
Heartbeat CPU 0 instructions: 37000001 cycles: 16387358 heartbeat IPC: 2.33948 cumulative IPC: 2.25784 (Simulation time: 0 hr 19 min 38 sec) 
Heartbeat CPU 0 instructions: 38000003 cycles: 16814833 heartbeat IPC: 2.33932 cumulative IPC: 2.25991 (Simulation time: 0 hr 20 min 12 sec) 
Heartbeat CPU 0 instructions: 39000000 cycles: 17242429 heartbeat IPC: 2.33865 cumulative IPC: 2.26186 (Simulation time: 0 hr 20 min 46 sec) 
Heartbeat CPU 0 instructions: 40000000 cycles: 17669765 heartbeat IPC: 2.34008 cumulative IPC: 2.26375 (Simulation time: 0 hr 21 min 20 sec) 
Heartbeat CPU 0 instructions: 41000003 cycles: 18097683 heartbeat IPC: 2.3369 cumulative IPC: 2.26548 (Simulation time: 0 hr 21 min 53 sec) 
Heartbeat CPU 0 instructions: 42000000 cycles: 18524777 heartbeat IPC: 2.3414 cumulative IPC: 2.26723 (Simulation time: 0 hr 22 min 29 sec) 
Heartbeat CPU 0 instructions: 43000003 cycles: 18952195 heartbeat IPC: 2.33964 cumulative IPC: 2.26887 (Simulation time: 0 hr 23 min 3 sec) 
Heartbeat CPU 0 instructions: 44000000 cycles: 19379650 heartbeat IPC: 2.33942 cumulative IPC: 2.27042 (Simulation time: 0 hr 23 min 38 sec) 
Heartbeat CPU 0 instructions: 45000001 cycles: 19807253 heartbeat IPC: 2.33862 cumulative IPC: 2.2719 (Simulation time: 0 hr 24 min 13 sec) 
Heartbeat CPU 0 instructions: 46000000 cycles: 20234854 heartbeat IPC: 2.33863 cumulative IPC: 2.27331 (Simulation time: 0 hr 24 min 46 sec) 
Heartbeat CPU 0 instructions: 47000003 cycles: 20662100 heartbeat IPC: 2.34058 cumulative IPC: 2.2747 (Simulation time: 0 hr 25 min 17 sec) 
Heartbeat CPU 0 instructions: 48000000 cycles: 21089545 heartbeat IPC: 2.33948 cumulative IPC: 2.27601 (Simulation time: 0 hr 25 min 51 sec) 
Heartbeat CPU 0 instructions: 49000001 cycles: 21516634 heartbeat IPC: 2.34143 cumulative IPC: 2.27731 (Simulation time: 0 hr 26 min 24 sec) 
Heartbeat CPU 0 instructions: 50000000 cycles: 21944658 heartbeat IPC: 2.33632 cumulative IPC: 2.27846 (Simulation time: 0 hr 26 min 56 sec) 

Warmup complete CPU 0 instructions: 50000003 cycles: 21944659 (Simulation time: 0 hr 26 min 56 sec) 

Heartbeat CPU 0 instructions: 51000002 cycles: 22635082 heartbeat IPC: 1.44839 cumulative IPC: 1.44839 (Simulation time: 0 hr 27 min 32 sec) 
Heartbeat CPU 0 instructions: 52000000 cycles: 23316354 heartbeat IPC: 1.46784 cumulative IPC: 1.45805 (Simulation time: 0 hr 28 min 10 sec) 
Heartbeat CPU 0 instructions: 53000001 cycles: 24009504 heartbeat IPC: 1.44269 cumulative IPC: 1.45289 (Simulation time: 0 hr 28 min 50 sec) 
Heartbeat CPU 0 instructions: 54000003 cycles: 24693432 heartbeat IPC: 1.46215 cumulative IPC: 1.45519 (Simulation time: 0 hr 29 min 27 sec) 
Heartbeat CPU 0 instructions: 55000003 cycles: 25379718 heartbeat IPC: 1.45712 cumulative IPC: 1.45558 (Simulation time: 0 hr 30 min 5 sec) 
Heartbeat CPU 0 instructions: 56000000 cycles: 26071021 heartbeat IPC: 1.44654 cumulative IPC: 1.45406 (Simulation time: 0 hr 30 min 40 sec) 
Heartbeat CPU 0 instructions: 57000003 cycles: 26752045 heartbeat IPC: 1.46838 cumulative IPC: 1.45609 (Simulation time: 0 hr 31 min 17 sec) 
Heartbeat CPU 0 instructions: 58000003 cycles: 27444224 heartbeat IPC: 1.44471 cumulative IPC: 1.45466 (Simulation time: 0 hr 31 min 55 sec) 
Heartbeat CPU 0 instructions: 59000000 cycles: 28128106 heartbeat IPC: 1.46224 cumulative IPC: 1.4555 (Simulation time: 0 hr 32 min 32 sec) 
Heartbeat CPU 0 instructions: 60000000 cycles: 28824437 heartbeat IPC: 1.4361 cumulative IPC: 1.45353 (Simulation time: 0 hr 33 min 10 sec) 
Heartbeat CPU 0 instructions: 61000000 cycles: 29507284 heartbeat IPC: 1.46446 cumulative IPC: 1.45452 (Simulation time: 0 hr 33 min 45 sec) 
Heartbeat CPU 0 instructions: 62000001 cycles: 30204621 heartbeat IPC: 1.43403 cumulative IPC: 1.45279 (Simulation time: 0 hr 34 min 23 sec) 
Heartbeat CPU 0 instructions: 63000001 cycles: 30889095 heartbeat IPC: 1.46098 cumulative IPC: 1.45342 (Simulation time: 0 hr 35 min 2 sec) 
Heartbeat CPU 0 instructions: 64000000 cycles: 31585312 heartbeat IPC: 1.43633 cumulative IPC: 1.45218 (Simulation time: 0 hr 35 min 40 sec) 
Heartbeat CPU 0 instructions: 65000003 cycles: 32266615 heartbeat IPC: 1.46778 cumulative IPC: 1.45321 (Simulation time: 0 hr 36 min 15 sec) 
Heartbeat CPU 0 instructions: 66000003 cycles: 32959003 heartbeat IPC: 1.44428 cumulative IPC: 1.45265 (Simulation time: 0 hr 36 min 51 sec) 
Heartbeat CPU 0 instructions: 67000000 cycles: 33642825 heartbeat IPC: 1.46236 cumulative IPC: 1.45322 (Simulation time: 0 hr 37 min 25 sec) 
Heartbeat CPU 0 instructions: 68000000 cycles: 34334676 heartbeat IPC: 1.4454 cumulative IPC: 1.45278 (Simulation time: 0 hr 38 min 3 sec) 
Heartbeat CPU 0 instructions: 69000000 cycles: 35019424 heartbeat IPC: 1.46039 cumulative IPC: 1.45318 (Simulation time: 0 hr 38 min 40 sec) 
Heartbeat CPU 0 instructions: 70000003 cycles: 35698181 heartbeat IPC: 1.47329 cumulative IPC: 1.45417 (Simulation time: 0 hr 39 min 16 sec) 
Heartbeat CPU 0 instructions: 71000003 cycles: 36389781 heartbeat IPC: 1.44592 cumulative IPC: 1.45378 (Simulation time: 0 hr 39 min 51 sec) 
Heartbeat CPU 0 instructions: 72000000 cycles: 37070130 heartbeat IPC: 1.46983 cumulative IPC: 1.4545 (Simulation time: 0 hr 40 min 27 sec) 
Heartbeat CPU 0 instructions: 73000002 cycles: 37765342 heartbeat IPC: 1.43841 cumulative IPC: 1.45379 (Simulation time: 0 hr 41 min 4 sec) 
Heartbeat CPU 0 instructions: 74000003 cycles: 38444308 heartbeat IPC: 1.47283 cumulative IPC: 1.45458 (Simulation time: 0 hr 41 min 41 sec) 
Heartbeat CPU 0 instructions: 75000003 cycles: 39135473 heartbeat IPC: 1.44683 cumulative IPC: 1.45426 (Simulation time: 0 hr 42 min 17 sec) 
Heartbeat CPU 0 instructions: 76000000 cycles: 39818844 heartbeat IPC: 1.46333 cumulative IPC: 1.45461 (Simulation time: 0 hr 42 min 54 sec) 
Heartbeat CPU 0 instructions: 77000003 cycles: 40516153 heartbeat IPC: 1.43409 cumulative IPC: 1.45384 (Simulation time: 0 hr 43 min 31 sec) 
Heartbeat CPU 0 instructions: 78000002 cycles: 41202856 heartbeat IPC: 1.45623 cumulative IPC: 1.45393 (Simulation time: 0 hr 44 min 6 sec) 
Heartbeat CPU 0 instructions: 79000000 cycles: 41894881 heartbeat IPC: 1.44503 cumulative IPC: 1.45362 (Simulation time: 0 hr 44 min 41 sec) 
Heartbeat CPU 0 instructions: 80000000 cycles: 42574254 heartbeat IPC: 1.47195 cumulative IPC: 1.45422 (Simulation time: 0 hr 45 min 18 sec) 
Heartbeat CPU 0 instructions: 81000003 cycles: 43268123 heartbeat IPC: 1.4412 cumulative IPC: 1.4538 (Simulation time: 0 hr 45 min 53 sec) 
Heartbeat CPU 0 instructions: 82000000 cycles: 43952282 heartbeat IPC: 1.46164 cumulative IPC: 1.45404 (Simulation time: 0 hr 46 min 30 sec) 
Heartbeat CPU 0 instructions: 83000002 cycles: 44633597 heartbeat IPC: 1.46775 cumulative IPC: 1.45445 (Simulation time: 0 hr 47 min 8 sec) 
Heartbeat CPU 0 instructions: 84000000 cycles: 45326770 heartbeat IPC: 1.44264 cumulative IPC: 1.4541 (Simulation time: 0 hr 47 min 46 sec) 
Heartbeat CPU 0 instructions: 85000001 cycles: 46006535 heartbeat IPC: 1.4711 cumulative IPC: 1.45458 (Simulation time: 0 hr 48 min 22 sec) 
Heartbeat CPU 0 instructions: 86000001 cycles: 46700774 heartbeat IPC: 1.44043 cumulative IPC: 1.45419 (Simulation time: 0 hr 48 min 58 sec) 
Heartbeat CPU 0 instructions: 87000001 cycles: 47385002 heartbeat IPC: 1.4615 cumulative IPC: 1.45438 (Simulation time: 0 hr 49 min 35 sec) 
Heartbeat CPU 0 instructions: 88000000 cycles: 48074666 heartbeat IPC: 1.44998 cumulative IPC: 1.45427 (Simulation time: 0 hr 50 min 14 sec) 
Heartbeat CPU 0 instructions: 89000003 cycles: 48757925 heartbeat IPC: 1.46358 cumulative IPC: 1.4545 (Simulation time: 0 hr 50 min 50 sec) 
Heartbeat CPU 0 instructions: 90000001 cycles: 49453518 heartbeat IPC: 1.43762 cumulative IPC: 1.45408 (Simulation time: 0 hr 51 min 27 sec) 
Heartbeat CPU 0 instructions: 91000002 cycles: 50140078 heartbeat IPC: 1.45654 cumulative IPC: 1.45414 (Simulation time: 0 hr 52 min 6 sec) 
Heartbeat CPU 0 instructions: 92000000 cycles: 50836148 heartbeat IPC: 1.43663 cumulative IPC: 1.45372 (Simulation time: 0 hr 52 min 43 sec) 
Heartbeat CPU 0 instructions: 93000001 cycles: 51518159 heartbeat IPC: 1.46625 cumulative IPC: 1.454 (Simulation time: 0 hr 53 min 19 sec) 
Heartbeat CPU 0 instructions: 94000003 cycles: 52213919 heartbeat IPC: 1.43728 cumulative IPC: 1.45362 (Simulation time: 0 hr 53 min 55 sec) 
Heartbeat CPU 0 instructions: 95000003 cycles: 52901604 heartbeat IPC: 1.45415 cumulative IPC: 1.45363 (Simulation time: 0 hr 54 min 33 sec) 
Heartbeat CPU 0 instructions: 96000000 cycles: 53588979 heartbeat IPC: 1.45481 cumulative IPC: 1.45366 (Simulation time: 0 hr 55 min 9 sec) 
Heartbeat CPU 0 instructions: 97000000 cycles: 54280796 heartbeat IPC: 1.44547 cumulative IPC: 1.45348 (Simulation time: 0 hr 55 min 45 sec) 
Heartbeat CPU 0 instructions: 98000001 cycles: 54961982 heartbeat IPC: 1.46803 cumulative IPC: 1.45378 (Simulation time: 0 hr 56 min 21 sec) 
Heartbeat CPU 0 instructions: 99000001 cycles: 55667226 heartbeat IPC: 1.41795 cumulative IPC: 1.45303 (Simulation time: 0 hr 56 min 58 sec) 
Heartbeat CPU 0 instructions: 100000000 cycles: 56362999 heartbeat IPC: 1.43725 cumulative IPC: 1.45271 (Simulation time: 0 hr 57 min 34 sec) 
Heartbeat CPU 0 instructions: 101000002 cycles: 57069161 heartbeat IPC: 1.41611 cumulative IPC: 1.45198 (Simulation time: 0 hr 58 min 12 sec) 
Heartbeat CPU 0 instructions: 102000003 cycles: 57763655 heartbeat IPC: 1.4399 cumulative IPC: 1.45174 (Simulation time: 0 hr 58 min 47 sec) 
Heartbeat CPU 0 instructions: 103000001 cycles: 58474132 heartbeat IPC: 1.4075 cumulative IPC: 1.45088 (Simulation time: 0 hr 59 min 23 sec) 
Heartbeat CPU 0 instructions: 104000000 cycles: 59169394 heartbeat IPC: 1.43831 cumulative IPC: 1.45065 (Simulation time: 0 hr 59 min 59 sec) 
Heartbeat CPU 0 instructions: 105000003 cycles: 59876286 heartbeat IPC: 1.41465 cumulative IPC: 1.44998 (Simulation time: 1 hr 0 min 35 sec) 
Heartbeat CPU 0 instructions: 106000002 cycles: 60568865 heartbeat IPC: 1.44388 cumulative IPC: 1.44987 (Simulation time: 1 hr 1 min 10 sec) 
Heartbeat CPU 0 instructions: 107000000 cycles: 61270187 heartbeat IPC: 1.42588 cumulative IPC: 1.44944 (Simulation time: 1 hr 1 min 47 sec) 
Heartbeat CPU 0 instructions: 108000000 cycles: 61952542 heartbeat IPC: 1.46551 cumulative IPC: 1.44971 (Simulation time: 1 hr 2 min 23 sec) 
Heartbeat CPU 0 instructions: 109000002 cycles: 62635291 heartbeat IPC: 1.46467 cumulative IPC: 1.44997 (Simulation time: 1 hr 3 min 0 sec) 
Heartbeat CPU 0 instructions: 110000000 cycles: 63331021 heartbeat IPC: 1.43734 cumulative IPC: 1.44975 (Simulation time: 1 hr 3 min 37 sec) 
Heartbeat CPU 0 instructions: 111000002 cycles: 64012467 heartbeat IPC: 1.46747 cumulative IPC: 1.45004 (Simulation time: 1 hr 4 min 14 sec) 
Heartbeat CPU 0 instructions: 112000000 cycles: 64705607 heartbeat IPC: 1.44271 cumulative IPC: 1.44992 (Simulation time: 1 hr 4 min 50 sec) 
Heartbeat CPU 0 instructions: 113000001 cycles: 65387392 heartbeat IPC: 1.46674 cumulative IPC: 1.45018 (Simulation time: 1 hr 5 min 26 sec) 
Heartbeat CPU 0 instructions: 114000000 cycles: 66088296 heartbeat IPC: 1.42673 cumulative IPC: 1.44981 (Simulation time: 1 hr 6 min 1 sec) 
Heartbeat CPU 0 instructions: 115000000 cycles: 66774459 heartbeat IPC: 1.45738 cumulative IPC: 1.44993 (Simulation time: 1 hr 6 min 36 sec) 
Heartbeat CPU 0 instructions: 116000000 cycles: 67467842 heartbeat IPC: 1.4422 cumulative IPC: 1.44981 (Simulation time: 1 hr 7 min 12 sec) 
Heartbeat CPU 0 instructions: 117000003 cycles: 68150447 heartbeat IPC: 1.46498 cumulative IPC: 1.45003 (Simulation time: 1 hr 7 min 48 sec) 
Heartbeat CPU 0 instructions: 118000001 cycles: 68849381 heartbeat IPC: 1.43075 cumulative IPC: 1.44975 (Simulation time: 1 hr 8 min 24 sec) 
Heartbeat CPU 0 instructions: 119000003 cycles: 69532402 heartbeat IPC: 1.46409 cumulative IPC: 1.44995 (Simulation time: 1 hr 8 min 59 sec) 
Heartbeat CPU 0 instructions: 120000000 cycles: 70225017 heartbeat IPC: 1.4438 cumulative IPC: 1.44986 (Simulation time: 1 hr 9 min 37 sec) 
Heartbeat CPU 0 instructions: 121000000 cycles: 70906464 heartbeat IPC: 1.46747 cumulative IPC: 1.45011 (Simulation time: 1 hr 10 min 14 sec) 
Heartbeat CPU 0 instructions: 122000001 cycles: 71595421 heartbeat IPC: 1.45147 cumulative IPC: 1.45013 (Simulation time: 1 hr 10 min 51 sec) 
Heartbeat CPU 0 instructions: 123000001 cycles: 72286959 heartbeat IPC: 1.44605 cumulative IPC: 1.45007 (Simulation time: 1 hr 11 min 28 sec) 
Heartbeat CPU 0 instructions: 124000000 cycles: 72969487 heartbeat IPC: 1.46514 cumulative IPC: 1.45027 (Simulation time: 1 hr 12 min 6 sec) 
Heartbeat CPU 0 instructions: 125000002 cycles: 73661539 heartbeat IPC: 1.44498 cumulative IPC: 1.4502 (Simulation time: 1 hr 12 min 43 sec) 
Heartbeat CPU 0 instructions: 126000001 cycles: 74341337 heartbeat IPC: 1.47102 cumulative IPC: 1.45047 (Simulation time: 1 hr 13 min 20 sec) 
Heartbeat CPU 0 instructions: 127000002 cycles: 75033178 heartbeat IPC: 1.44542 cumulative IPC: 1.45041 (Simulation time: 1 hr 13 min 56 sec) 
Heartbeat CPU 0 instructions: 128000000 cycles: 75713611 heartbeat IPC: 1.46965 cumulative IPC: 1.45065 (Simulation time: 1 hr 14 min 31 sec) 
Heartbeat CPU 0 instructions: 129000001 cycles: 76406824 heartbeat IPC: 1.44256 cumulative IPC: 1.45055 (Simulation time: 1 hr 15 min 9 sec) 
Heartbeat CPU 0 instructions: 130000002 cycles: 77089490 heartbeat IPC: 1.46485 cumulative IPC: 1.45073 (Simulation time: 1 hr 15 min 46 sec) 
Heartbeat CPU 0 instructions: 131000000 cycles: 77780663 heartbeat IPC: 1.44681 cumulative IPC: 1.45068 (Simulation time: 1 hr 16 min 22 sec) 
Heartbeat CPU 0 instructions: 132000000 cycles: 78460789 heartbeat IPC: 1.47032 cumulative IPC: 1.45091 (Simulation time: 1 hr 16 min 58 sec) 
Heartbeat CPU 0 instructions: 133000001 cycles: 79155686 heartbeat IPC: 1.43906 cumulative IPC: 1.45077 (Simulation time: 1 hr 17 min 34 sec) 
Heartbeat CPU 0 instructions: 134000000 cycles: 79837456 heartbeat IPC: 1.46677 cumulative IPC: 1.45096 (Simulation time: 1 hr 18 min 8 sec) 
Heartbeat CPU 0 instructions: 135000001 cycles: 80528060 heartbeat IPC: 1.44801 cumulative IPC: 1.45092 (Simulation time: 1 hr 18 min 44 sec) 
Heartbeat CPU 0 instructions: 136000000 cycles: 81211561 heartbeat IPC: 1.46305 cumulative IPC: 1.45106 (Simulation time: 1 hr 19 min 18 sec) 
Heartbeat CPU 0 instructions: 137000001 cycles: 81892962 heartbeat IPC: 1.46757 cumulative IPC: 1.45125 (Simulation time: 1 hr 19 min 50 sec) 
Heartbeat CPU 0 instructions: 138000002 cycles: 82585322 heartbeat IPC: 1.44434 cumulative IPC: 1.45117 (Simulation time: 1 hr 20 min 26 sec) 
Heartbeat CPU 0 instructions: 139000001 cycles: 83267711 heartbeat IPC: 1.46544 cumulative IPC: 1.45133 (Simulation time: 1 hr 20 min 59 sec) 
Heartbeat CPU 0 instructions: 140000000 cycles: 83965797 heartbeat IPC: 1.43249 cumulative IPC: 1.45112 (Simulation time: 1 hr 21 min 34 sec) 
Heartbeat CPU 0 instructions: 141000001 cycles: 84645520 heartbeat IPC: 1.47119 cumulative IPC: 1.45134 (Simulation time: 1 hr 22 min 9 sec) 
Heartbeat CPU 0 instructions: 142000001 cycles: 85337469 heartbeat IPC: 1.44519 cumulative IPC: 1.45127 (Simulation time: 1 hr 22 min 42 sec) 
Heartbeat CPU 0 instructions: 143000000 cycles: 86019298 heartbeat IPC: 1.46664 cumulative IPC: 1.45143 (Simulation time: 1 hr 23 min 14 sec) 
Heartbeat CPU 0 instructions: 144000000 cycles: 86711774 heartbeat IPC: 1.44409 cumulative IPC: 1.45135 (Simulation time: 1 hr 23 min 46 sec) 
Heartbeat CPU 0 instructions: 145000001 cycles: 87391440 heartbeat IPC: 1.47131 cumulative IPC: 1.45156 (Simulation time: 1 hr 24 min 16 sec) 
Heartbeat CPU 0 instructions: 146000003 cycles: 88088583 heartbeat IPC: 1.43443 cumulative IPC: 1.45138 (Simulation time: 1 hr 24 min 49 sec) 
Heartbeat CPU 0 instructions: 147000002 cycles: 88773448 heartbeat IPC: 1.46014 cumulative IPC: 1.45147 (Simulation time: 1 hr 25 min 19 sec) 
Heartbeat CPU 0 instructions: 148000000 cycles: 89467968 heartbeat IPC: 1.43984 cumulative IPC: 1.45135 (Simulation time: 1 hr 25 min 49 sec) 
Heartbeat CPU 0 instructions: 149000001 cycles: 90156184 heartbeat IPC: 1.45303 cumulative IPC: 1.45137 (Simulation time: 1 hr 26 min 18 sec) 
Heartbeat CPU 0 instructions: 150000001 cycles: 90838415 heartbeat IPC: 1.46578 cumulative IPC: 1.45151 (Simulation time: 1 hr 26 min 45 sec) 
Finished CPU 0 instructions: 100000002 cycles: 68893757 cummulative IPC: 1.45151 (Simulation time: 1 hr 26 min 45 sec) 

ChampSim completed all CPUs

Region of Interest Statistics

CPU 0 cummulative IPC: 1.45151 instructions: 100000002 cycles: 68893757
LLC TOTAL     ACCESS:     824423  HIT:     148944  MISS:     675479
LLC LOAD      ACCESS:      16742  HIT:       7872  MISS:       8870
LLC RFO       ACCESS:     202159  HIT:       3648  MISS:     198511
LLC PREFETCH  ACCESS:     402922  HIT:     103265  MISS:     299657
LLC WRITEBACK ACCESS:     202600  HIT:      34159  MISS:     168441
OPTgen accesses: 1513
OPTgen hits: 293
OPTgen hit rate: 19.3655


