
*** ChampSim Multicore Out-of-Order Simulator ***

Warmup Instructions: 50000000
Simulation Instructions: 100000000
Configuration: 2
Number of CPUs: 1
LLC sets: 2048
LLC ways: 16
Off-chip DRAM Channels: 1 Width: 64-bit Data Rate: 1600 MT/s

CPU 0 runs /datasets/cs240c-wi22-a00-public/data/Assignment2-gz/soplex_217B.trace.gz
CPU 0 L1D next line prefetcher
CPU 0 L2C IP-based stride prefetcher
Initialize Hawkeye state
Heartbeat CPU 0 instructions: 1000002 cycles: 441281 heartbeat IPC: 2.26613 cumulative IPC: 2.26613 (Simulation time: 0 hr 0 min 40 sec) 
Heartbeat CPU 0 instructions: 2000003 cycles: 800254 heartbeat IPC: 2.78573 cumulative IPC: 2.49921 (Simulation time: 0 hr 1 min 10 sec) 
Heartbeat CPU 0 instructions: 3000002 cycles: 1245274 heartbeat IPC: 2.24709 cumulative IPC: 2.40911 (Simulation time: 0 hr 1 min 45 sec) 
Heartbeat CPU 0 instructions: 4000000 cycles: 1673102 heartbeat IPC: 2.33738 cumulative IPC: 2.39077 (Simulation time: 0 hr 2 min 20 sec) 
Heartbeat CPU 0 instructions: 5000001 cycles: 2057151 heartbeat IPC: 2.60384 cumulative IPC: 2.43055 (Simulation time: 0 hr 2 min 47 sec) 
Heartbeat CPU 0 instructions: 6000000 cycles: 2431410 heartbeat IPC: 2.67194 cumulative IPC: 2.4677 (Simulation time: 0 hr 3 min 16 sec) 
Heartbeat CPU 0 instructions: 7000003 cycles: 2957446 heartbeat IPC: 1.90102 cumulative IPC: 2.36691 (Simulation time: 0 hr 3 min 50 sec) 
Heartbeat CPU 0 instructions: 8000000 cycles: 3404724 heartbeat IPC: 2.23574 cumulative IPC: 2.34968 (Simulation time: 0 hr 4 min 37 sec) 
Heartbeat CPU 0 instructions: 9000001 cycles: 3829077 heartbeat IPC: 2.35653 cumulative IPC: 2.35044 (Simulation time: 0 hr 5 min 19 sec) 
Heartbeat CPU 0 instructions: 10000000 cycles: 4241354 heartbeat IPC: 2.42555 cumulative IPC: 2.35774 (Simulation time: 0 hr 5 min 54 sec) 
Heartbeat CPU 0 instructions: 11000002 cycles: 4670060 heartbeat IPC: 2.33261 cumulative IPC: 2.35543 (Simulation time: 0 hr 6 min 36 sec) 
Heartbeat CPU 0 instructions: 12000000 cycles: 5074316 heartbeat IPC: 2.47368 cumulative IPC: 2.36485 (Simulation time: 0 hr 7 min 15 sec) 
Heartbeat CPU 0 instructions: 13000000 cycles: 5458571 heartbeat IPC: 2.60244 cumulative IPC: 2.38158 (Simulation time: 0 hr 7 min 45 sec) 
Heartbeat CPU 0 instructions: 14000000 cycles: 5907447 heartbeat IPC: 2.22779 cumulative IPC: 2.36989 (Simulation time: 0 hr 8 min 15 sec) 
Heartbeat CPU 0 instructions: 15000000 cycles: 6428769 heartbeat IPC: 1.9182 cumulative IPC: 2.33326 (Simulation time: 0 hr 8 min 53 sec) 
Heartbeat CPU 0 instructions: 16000000 cycles: 6887194 heartbeat IPC: 2.18138 cumulative IPC: 2.32315 (Simulation time: 0 hr 9 min 36 sec) 
Heartbeat CPU 0 instructions: 17000002 cycles: 7267017 heartbeat IPC: 2.63281 cumulative IPC: 2.33934 (Simulation time: 0 hr 10 min 11 sec) 
Heartbeat CPU 0 instructions: 18000003 cycles: 7696747 heartbeat IPC: 2.32704 cumulative IPC: 2.33865 (Simulation time: 0 hr 10 min 47 sec) 
Heartbeat CPU 0 instructions: 19000001 cycles: 8120692 heartbeat IPC: 2.35879 cumulative IPC: 2.3397 (Simulation time: 0 hr 11 min 25 sec) 
Heartbeat CPU 0 instructions: 20000000 cycles: 8505039 heartbeat IPC: 2.60181 cumulative IPC: 2.35155 (Simulation time: 0 hr 11 min 56 sec) 
Heartbeat CPU 0 instructions: 21000000 cycles: 8882597 heartbeat IPC: 2.6486 cumulative IPC: 2.36417 (Simulation time: 0 hr 12 min 29 sec) 
Heartbeat CPU 0 instructions: 22000001 cycles: 9417062 heartbeat IPC: 1.87103 cumulative IPC: 2.33619 (Simulation time: 0 hr 13 min 6 sec) 
Heartbeat CPU 0 instructions: 23000001 cycles: 9865206 heartbeat IPC: 2.23143 cumulative IPC: 2.33143 (Simulation time: 0 hr 13 min 49 sec) 
Heartbeat CPU 0 instructions: 24000000 cycles: 10282453 heartbeat IPC: 2.39666 cumulative IPC: 2.33407 (Simulation time: 0 hr 14 min 34 sec) 
Heartbeat CPU 0 instructions: 25000001 cycles: 10695010 heartbeat IPC: 2.42391 cumulative IPC: 2.33754 (Simulation time: 0 hr 15 min 13 sec) 
Heartbeat CPU 0 instructions: 26000001 cycles: 11127057 heartbeat IPC: 2.31456 cumulative IPC: 2.33665 (Simulation time: 0 hr 16 min 1 sec) 
Heartbeat CPU 0 instructions: 27000002 cycles: 11529236 heartbeat IPC: 2.48646 cumulative IPC: 2.34187 (Simulation time: 0 hr 16 min 36 sec) 
Heartbeat CPU 0 instructions: 28000000 cycles: 11913548 heartbeat IPC: 2.60205 cumulative IPC: 2.35027 (Simulation time: 0 hr 17 min 7 sec) 
Heartbeat CPU 0 instructions: 29000002 cycles: 12367965 heartbeat IPC: 2.20063 cumulative IPC: 2.34477 (Simulation time: 0 hr 17 min 39 sec) 
Heartbeat CPU 0 instructions: 30000002 cycles: 12894414 heartbeat IPC: 1.89952 cumulative IPC: 2.32659 (Simulation time: 0 hr 18 min 18 sec) 
Heartbeat CPU 0 instructions: 31000000 cycles: 13299837 heartbeat IPC: 2.46655 cumulative IPC: 2.33086 (Simulation time: 0 hr 19 min 1 sec) 
Heartbeat CPU 0 instructions: 32000000 cycles: 13708059 heartbeat IPC: 2.44965 cumulative IPC: 2.33439 (Simulation time: 0 hr 19 min 37 sec) 
Heartbeat CPU 0 instructions: 33000002 cycles: 14132993 heartbeat IPC: 2.35331 cumulative IPC: 2.33496 (Simulation time: 0 hr 20 min 20 sec) 
Heartbeat CPU 0 instructions: 34000000 cycles: 14541325 heartbeat IPC: 2.44898 cumulative IPC: 2.33816 (Simulation time: 0 hr 20 min 59 sec) 
Heartbeat CPU 0 instructions: 35000002 cycles: 14926020 heartbeat IPC: 2.59947 cumulative IPC: 2.3449 (Simulation time: 0 hr 21 min 32 sec) 
Heartbeat CPU 0 instructions: 36000000 cycles: 15362298 heartbeat IPC: 2.29211 cumulative IPC: 2.3434 (Simulation time: 0 hr 22 min 3 sec) 
Heartbeat CPU 0 instructions: 37000001 cycles: 15887702 heartbeat IPC: 1.9033 cumulative IPC: 2.32885 (Simulation time: 0 hr 22 min 42 sec) 
Heartbeat CPU 0 instructions: 38000000 cycles: 16316292 heartbeat IPC: 2.33323 cumulative IPC: 2.32896 (Simulation time: 0 hr 23 min 27 sec) 
Heartbeat CPU 0 instructions: 39000001 cycles: 16712734 heartbeat IPC: 2.52244 cumulative IPC: 2.33355 (Simulation time: 0 hr 24 min 1 sec) 
Heartbeat CPU 0 instructions: 40000000 cycles: 17137304 heartbeat IPC: 2.35532 cumulative IPC: 2.33409 (Simulation time: 0 hr 24 min 41 sec) 
Heartbeat CPU 0 instructions: 41000000 cycles: 17552467 heartbeat IPC: 2.40869 cumulative IPC: 2.33585 (Simulation time: 0 hr 25 min 19 sec) 
Heartbeat CPU 0 instructions: 42000002 cycles: 17936394 heartbeat IPC: 2.60467 cumulative IPC: 2.34161 (Simulation time: 0 hr 25 min 50 sec) 
Heartbeat CPU 0 instructions: 43000000 cycles: 18356930 heartbeat IPC: 2.37791 cumulative IPC: 2.34244 (Simulation time: 0 hr 26 min 19 sec) 
Heartbeat CPU 0 instructions: 44000000 cycles: 18890967 heartbeat IPC: 1.87253 cumulative IPC: 2.32916 (Simulation time: 0 hr 26 min 52 sec) 
Heartbeat CPU 0 instructions: 45000003 cycles: 19350366 heartbeat IPC: 2.17676 cumulative IPC: 2.32554 (Simulation time: 0 hr 27 min 31 sec) 
Heartbeat CPU 0 instructions: 46000000 cycles: 19782177 heartbeat IPC: 2.31582 cumulative IPC: 2.32533 (Simulation time: 0 hr 28 min 7 sec) 
Heartbeat CPU 0 instructions: 47000001 cycles: 20193053 heartbeat IPC: 2.43383 cumulative IPC: 2.32753 (Simulation time: 0 hr 28 min 43 sec) 
Heartbeat CPU 0 instructions: 48000000 cycles: 20621566 heartbeat IPC: 2.33365 cumulative IPC: 2.32766 (Simulation time: 0 hr 29 min 23 sec) 
Heartbeat CPU 0 instructions: 49000000 cycles: 21026913 heartbeat IPC: 2.46702 cumulative IPC: 2.33035 (Simulation time: 0 hr 29 min 59 sec) 
Heartbeat CPU 0 instructions: 50000002 cycles: 21411417 heartbeat IPC: 2.60076 cumulative IPC: 2.3352 (Simulation time: 0 hr 30 min 29 sec) 

Warmup complete CPU 0 instructions: 50000002 cycles: 21411417 (Simulation time: 0 hr 30 min 29 sec) 

Heartbeat CPU 0 instructions: 51000000 cycles: 24043533 heartbeat IPC: 0.379922 cumulative IPC: 0.379922 (Simulation time: 0 hr 31 min 7 sec) 
Heartbeat CPU 0 instructions: 52000000 cycles: 26719060 heartbeat IPC: 0.373758 cumulative IPC: 0.376815 (Simulation time: 0 hr 31 min 56 sec) 
Heartbeat CPU 0 instructions: 53000000 cycles: 29973347 heartbeat IPC: 0.307287 cumulative IPC: 0.350388 (Simulation time: 0 hr 32 min 49 sec) 
Heartbeat CPU 0 instructions: 54000000 cycles: 31860537 heartbeat IPC: 0.529888 cumulative IPC: 0.382807 (Simulation time: 0 hr 33 min 30 sec) 
Heartbeat CPU 0 instructions: 55000000 cycles: 35168690 heartbeat IPC: 0.302283 cumulative IPC: 0.363444 (Simulation time: 0 hr 34 min 25 sec) 
Heartbeat CPU 0 instructions: 56000000 cycles: 37966721 heartbeat IPC: 0.357394 cumulative IPC: 0.362421 (Simulation time: 0 hr 35 min 8 sec) 
Heartbeat CPU 0 instructions: 57000003 cycles: 39301387 heartbeat IPC: 0.749253 cumulative IPC: 0.391281 (Simulation time: 0 hr 35 min 38 sec) 
Heartbeat CPU 0 instructions: 58000000 cycles: 41518812 heartbeat IPC: 0.450972 cumulative IPC: 0.397863 (Simulation time: 0 hr 36 min 13 sec) 
Heartbeat CPU 0 instructions: 59000001 cycles: 44132565 heartbeat IPC: 0.382592 cumulative IPC: 0.396107 (Simulation time: 0 hr 36 min 58 sec) 
Heartbeat CPU 0 instructions: 60000000 cycles: 47449136 heartbeat IPC: 0.301516 cumulative IPC: 0.384058 (Simulation time: 0 hr 37 min 52 sec) 
Heartbeat CPU 0 instructions: 61000000 cycles: 49713890 heartbeat IPC: 0.441549 cumulative IPC: 0.388659 (Simulation time: 0 hr 38 min 35 sec) 
Heartbeat CPU 0 instructions: 62000002 cycles: 52469662 heartbeat IPC: 0.362875 cumulative IPC: 0.386371 (Simulation time: 0 hr 39 min 24 sec) 
Heartbeat CPU 0 instructions: 63000001 cycles: 55788889 heartbeat IPC: 0.301275 cumulative IPC: 0.378155 (Simulation time: 0 hr 40 min 13 sec) 
Heartbeat CPU 0 instructions: 64000000 cycles: 57138595 heartbeat IPC: 0.740901 cumulative IPC: 0.391858 (Simulation time: 0 hr 40 min 43 sec) 
Heartbeat CPU 0 instructions: 65000000 cycles: 58666089 heartbeat IPC: 0.654667 cumulative IPC: 0.402634 (Simulation time: 0 hr 41 min 18 sec) 
Heartbeat CPU 0 instructions: 66000002 cycles: 61829126 heartbeat IPC: 0.316152 cumulative IPC: 0.395866 (Simulation time: 0 hr 42 min 5 sec) 
Heartbeat CPU 0 instructions: 67000000 cycles: 64867077 heartbeat IPC: 0.329169 cumulative IPC: 0.391203 (Simulation time: 0 hr 43 min 1 sec) 
Heartbeat CPU 0 instructions: 68000000 cycles: 70423701 heartbeat IPC: 0.179965 cumulative IPC: 0.367255 (Simulation time: 0 hr 43 min 57 sec) 
Heartbeat CPU 0 instructions: 69000001 cycles: 74285330 heartbeat IPC: 0.258958 cumulative IPC: 0.359345 (Simulation time: 0 hr 44 min 49 sec) 
Heartbeat CPU 0 instructions: 70000002 cycles: 78332665 heartbeat IPC: 0.247076 cumulative IPC: 0.351363 (Simulation time: 0 hr 45 min 48 sec) 
Heartbeat CPU 0 instructions: 71000002 cycles: 82555198 heartbeat IPC: 0.236825 cumulative IPC: 0.343453 (Simulation time: 0 hr 46 min 45 sec) 
Heartbeat CPU 0 instructions: 72000000 cycles: 85879060 heartbeat IPC: 0.300854 cumulative IPC: 0.341256 (Simulation time: 0 hr 47 min 33 sec) 
Heartbeat CPU 0 instructions: 73000000 cycles: 89194083 heartbeat IPC: 0.301657 cumulative IPC: 0.33932 (Simulation time: 0 hr 48 min 26 sec) 
Heartbeat CPU 0 instructions: 74000000 cycles: 92678852 heartbeat IPC: 0.286963 cumulative IPC: 0.33676 (Simulation time: 0 hr 49 min 10 sec) 
Heartbeat CPU 0 instructions: 75000002 cycles: 96293120 heartbeat IPC: 0.276682 cumulative IPC: 0.33386 (Simulation time: 0 hr 50 min 3 sec) 
Heartbeat CPU 0 instructions: 76000000 cycles: 98868902 heartbeat IPC: 0.388231 cumulative IPC: 0.335668 (Simulation time: 0 hr 50 min 47 sec) 
Heartbeat CPU 0 instructions: 77000000 cycles: 102285360 heartbeat IPC: 0.292701 cumulative IPC: 0.333853 (Simulation time: 0 hr 51 min 36 sec) 
Heartbeat CPU 0 instructions: 78000002 cycles: 104446112 heartbeat IPC: 0.462803 cumulative IPC: 0.337208 (Simulation time: 0 hr 52 min 22 sec) 
Heartbeat CPU 0 instructions: 79000003 cycles: 106287620 heartbeat IPC: 0.543034 cumulative IPC: 0.341674 (Simulation time: 0 hr 53 min 8 sec) 
Heartbeat CPU 0 instructions: 80000000 cycles: 107625305 heartbeat IPC: 0.747558 cumulative IPC: 0.347972 (Simulation time: 0 hr 53 min 43 sec) 
Heartbeat CPU 0 instructions: 81000002 cycles: 109810636 heartbeat IPC: 0.457597 cumulative IPC: 0.350682 (Simulation time: 0 hr 54 min 30 sec) 
Heartbeat CPU 0 instructions: 82000001 cycles: 112497228 heartbeat IPC: 0.372218 cumulative IPC: 0.351317 (Simulation time: 0 hr 55 min 23 sec) 
Heartbeat CPU 0 instructions: 83000002 cycles: 114816250 heartbeat IPC: 0.431217 cumulative IPC: 0.353301 (Simulation time: 0 hr 56 min 11 sec) 
Heartbeat CPU 0 instructions: 84000000 cycles: 117003469 heartbeat IPC: 0.457201 cumulative IPC: 0.355678 (Simulation time: 0 hr 56 min 59 sec) 
Heartbeat CPU 0 instructions: 85000000 cycles: 118609106 heartbeat IPC: 0.622806 cumulative IPC: 0.360091 (Simulation time: 0 hr 57 min 41 sec) 
Heartbeat CPU 0 instructions: 86000000 cycles: 122211236 heartbeat IPC: 0.277614 cumulative IPC: 0.357143 (Simulation time: 0 hr 58 min 37 sec) 
Heartbeat CPU 0 instructions: 87000000 cycles: 124756004 heartbeat IPC: 0.392963 cumulative IPC: 0.358025 (Simulation time: 0 hr 59 min 17 sec) 
Heartbeat CPU 0 instructions: 88000000 cycles: 126083622 heartbeat IPC: 0.753229 cumulative IPC: 0.363038 (Simulation time: 0 hr 59 min 47 sec) 
Heartbeat CPU 0 instructions: 89000003 cycles: 128718160 heartbeat IPC: 0.379574 cumulative IPC: 0.363444 (Simulation time: 1 hr 0 min 24 sec) 
Heartbeat CPU 0 instructions: 90000002 cycles: 131366828 heartbeat IPC: 0.377548 cumulative IPC: 0.363784 (Simulation time: 1 hr 1 min 13 sec) 
Heartbeat CPU 0 instructions: 91000001 cycles: 134747090 heartbeat IPC: 0.295835 cumulative IPC: 0.361757 (Simulation time: 1 hr 2 min 7 sec) 
Heartbeat CPU 0 instructions: 92000000 cycles: 136592466 heartbeat IPC: 0.541894 cumulative IPC: 0.364643 (Simulation time: 1 hr 2 min 50 sec) 
Heartbeat CPU 0 instructions: 93000000 cycles: 139982439 heartbeat IPC: 0.294988 cumulative IPC: 0.362652 (Simulation time: 1 hr 3 min 45 sec) 
Heartbeat CPU 0 instructions: 94000001 cycles: 142759856 heartbeat IPC: 0.360047 cumulative IPC: 0.362592 (Simulation time: 1 hr 4 min 28 sec) 
Heartbeat CPU 0 instructions: 95000003 cycles: 144096200 heartbeat IPC: 0.748312 cumulative IPC: 0.366794 (Simulation time: 1 hr 4 min 58 sec) 
Heartbeat CPU 0 instructions: 96000000 cycles: 146383638 heartbeat IPC: 0.437169 cumulative IPC: 0.368082 (Simulation time: 1 hr 5 min 36 sec) 
Heartbeat CPU 0 instructions: 97000002 cycles: 148820067 heartbeat IPC: 0.410438 cumulative IPC: 0.368892 (Simulation time: 1 hr 6 min 19 sec) 
Heartbeat CPU 0 instructions: 98000003 cycles: 152710825 heartbeat IPC: 0.25702 cumulative IPC: 0.365577 (Simulation time: 1 hr 7 min 19 sec) 
Heartbeat CPU 0 instructions: 99000000 cycles: 155676593 heartbeat IPC: 0.33718 cumulative IPC: 0.364949 (Simulation time: 1 hr 8 min 6 sec) 
Heartbeat CPU 0 instructions: 100000000 cycles: 157548448 heartbeat IPC: 0.534229 cumulative IPC: 0.367277 (Simulation time: 1 hr 8 min 50 sec) 
Heartbeat CPU 0 instructions: 101000001 cycles: 161375540 heartbeat IPC: 0.261295 cumulative IPC: 0.364379 (Simulation time: 1 hr 9 min 47 sec) 
Heartbeat CPU 0 instructions: 102000000 cycles: 162996837 heartbeat IPC: 0.61679 cumulative IPC: 0.367269 (Simulation time: 1 hr 10 min 18 sec) 
Heartbeat CPU 0 instructions: 103000001 cycles: 164263456 heartbeat IPC: 0.789504 cumulative IPC: 0.371013 (Simulation time: 1 hr 10 min 49 sec) 
Heartbeat CPU 0 instructions: 104000000 cycles: 167639509 heartbeat IPC: 0.296204 cumulative IPC: 0.369286 (Simulation time: 1 hr 11 min 36 sec) 
Heartbeat CPU 0 instructions: 105000003 cycles: 170510349 heartbeat IPC: 0.348331 cumulative IPC: 0.368883 (Simulation time: 1 hr 12 min 28 sec) 
Heartbeat CPU 0 instructions: 106000002 cycles: 173238092 heartbeat IPC: 0.366603 cumulative IPC: 0.368842 (Simulation time: 1 hr 13 min 13 sec) 
Heartbeat CPU 0 instructions: 107000000 cycles: 174958461 heartbeat IPC: 0.58127 cumulative IPC: 0.371222 (Simulation time: 1 hr 13 min 59 sec) 
Heartbeat CPU 0 instructions: 108000000 cycles: 178851518 heartbeat IPC: 0.256868 cumulative IPC: 0.368394 (Simulation time: 1 hr 15 min 0 sec) 
Heartbeat CPU 0 instructions: 109000000 cycles: 180736011 heartbeat IPC: 0.530647 cumulative IPC: 0.370313 (Simulation time: 1 hr 15 min 33 sec) 
Heartbeat CPU 0 instructions: 110000002 cycles: 182024053 heartbeat IPC: 0.776374 cumulative IPC: 0.37357 (Simulation time: 1 hr 16 min 3 sec) 
Heartbeat CPU 0 instructions: 111000000 cycles: 185399301 heartbeat IPC: 0.296274 cumulative IPC: 0.371979 (Simulation time: 1 hr 16 min 48 sec) 
Heartbeat CPU 0 instructions: 112000000 cycles: 188065845 heartbeat IPC: 0.375017 cumulative IPC: 0.372027 (Simulation time: 1 hr 17 min 35 sec) 
Heartbeat CPU 0 instructions: 113000001 cycles: 190993981 heartbeat IPC: 0.341515 cumulative IPC: 0.3715 (Simulation time: 1 hr 18 min 20 sec) 
Heartbeat CPU 0 instructions: 114000003 cycles: 192491326 heartbeat IPC: 0.66785 cumulative IPC: 0.374094 (Simulation time: 1 hr 18 min 58 sec) 
Heartbeat CPU 0 instructions: 115000001 cycles: 196337034 heartbeat IPC: 0.26003 cumulative IPC: 0.371587 (Simulation time: 1 hr 19 min 50 sec) 
Heartbeat CPU 0 instructions: 116000000 cycles: 198512089 heartbeat IPC: 0.459758 cumulative IPC: 0.372669 (Simulation time: 1 hr 20 min 25 sec) 
Heartbeat CPU 0 instructions: 117000000 cycles: 199820143 heartbeat IPC: 0.764494 cumulative IPC: 0.375542 (Simulation time: 1 hr 20 min 53 sec) 
Heartbeat CPU 0 instructions: 118000000 cycles: 202886485 heartbeat IPC: 0.326121 cumulative IPC: 0.374707 (Simulation time: 1 hr 21 min 29 sec) 
Heartbeat CPU 0 instructions: 119000001 cycles: 205411060 heartbeat IPC: 0.396107 cumulative IPC: 0.375001 (Simulation time: 1 hr 22 min 13 sec) 
Heartbeat CPU 0 instructions: 120000000 cycles: 208432647 heartbeat IPC: 0.330952 cumulative IPC: 0.374289 (Simulation time: 1 hr 22 min 57 sec) 
Heartbeat CPU 0 instructions: 121000000 cycles: 209978156 heartbeat IPC: 0.647036 cumulative IPC: 0.376525 (Simulation time: 1 hr 23 min 33 sec) 
Heartbeat CPU 0 instructions: 122000001 cycles: 213622590 heartbeat IPC: 0.274391 cumulative IPC: 0.374588 (Simulation time: 1 hr 24 min 21 sec) 
Heartbeat CPU 0 instructions: 123000000 cycles: 216143458 heartbeat IPC: 0.396688 cumulative IPC: 0.374874 (Simulation time: 1 hr 24 min 52 sec) 
Heartbeat CPU 0 instructions: 124000000 cycles: 217477973 heartbeat IPC: 0.749336 cumulative IPC: 0.377423 (Simulation time: 1 hr 25 min 14 sec) 
Heartbeat CPU 0 instructions: 125000003 cycles: 220165057 heartbeat IPC: 0.372152 cumulative IPC: 0.377352 (Simulation time: 1 hr 25 min 46 sec) 
Heartbeat CPU 0 instructions: 126000002 cycles: 222765843 heartbeat IPC: 0.384499 cumulative IPC: 0.377444 (Simulation time: 1 hr 26 min 24 sec) 
Heartbeat CPU 0 instructions: 127000003 cycles: 225089676 heartbeat IPC: 0.430324 cumulative IPC: 0.378047 (Simulation time: 1 hr 27 min 0 sec) 
Heartbeat CPU 0 instructions: 128000000 cycles: 227789689 heartbeat IPC: 0.370367 cumulative IPC: 0.377947 (Simulation time: 1 hr 27 min 29 sec) 
Heartbeat CPU 0 instructions: 129000002 cycles: 229766633 heartbeat IPC: 0.505832 cumulative IPC: 0.37916 (Simulation time: 1 hr 27 min 59 sec) 
Heartbeat CPU 0 instructions: 130000000 cycles: 233787239 heartbeat IPC: 0.248718 cumulative IPC: 0.376691 (Simulation time: 1 hr 28 min 35 sec) 
Heartbeat CPU 0 instructions: 131000001 cycles: 235179963 heartbeat IPC: 0.718018 cumulative IPC: 0.378914 (Simulation time: 1 hr 28 min 52 sec) 
Heartbeat CPU 0 instructions: 132000000 cycles: 236446233 heartbeat IPC: 0.78972 cumulative IPC: 0.381334 (Simulation time: 1 hr 29 min 9 sec) 
Heartbeat CPU 0 instructions: 133000002 cycles: 239818605 heartbeat IPC: 0.296528 cumulative IPC: 0.380024 (Simulation time: 1 hr 29 min 36 sec) 
Heartbeat CPU 0 instructions: 134000002 cycles: 242738563 heartbeat IPC: 0.342471 cumulative IPC: 0.379529 (Simulation time: 1 hr 30 min 6 sec) 
Heartbeat CPU 0 instructions: 135000001 cycles: 245491388 heartbeat IPC: 0.363263 cumulative IPC: 0.379329 (Simulation time: 1 hr 30 min 32 sec) 
Heartbeat CPU 0 instructions: 136000000 cycles: 247211590 heartbeat IPC: 0.581326 cumulative IPC: 0.380868 (Simulation time: 1 hr 30 min 56 sec) 
Heartbeat CPU 0 instructions: 137000003 cycles: 251048571 heartbeat IPC: 0.260622 cumulative IPC: 0.378859 (Simulation time: 1 hr 31 min 27 sec) 
Heartbeat CPU 0 instructions: 138000000 cycles: 252855038 heartbeat IPC: 0.553565 cumulative IPC: 0.380222 (Simulation time: 1 hr 31 min 45 sec) 
Heartbeat CPU 0 instructions: 139000000 cycles: 254137221 heartbeat IPC: 0.77992 cumulative IPC: 0.382424 (Simulation time: 1 hr 32 min 1 sec) 
Heartbeat CPU 0 instructions: 140000000 cycles: 257501241 heartbeat IPC: 0.297263 cumulative IPC: 0.381211 (Simulation time: 1 hr 32 min 25 sec) 
Heartbeat CPU 0 instructions: 141000001 cycles: 260158553 heartbeat IPC: 0.376321 cumulative IPC: 0.381156 (Simulation time: 1 hr 32 min 56 sec) 
Heartbeat CPU 0 instructions: 142000001 cycles: 263015498 heartbeat IPC: 0.350024 cumulative IPC: 0.380788 (Simulation time: 1 hr 33 min 21 sec) 
Heartbeat CPU 0 instructions: 143000000 cycles: 264617943 heartbeat IPC: 0.624046 cumulative IPC: 0.382391 (Simulation time: 1 hr 33 min 42 sec) 
Heartbeat CPU 0 instructions: 144000000 cycles: 268521512 heartbeat IPC: 0.256176 cumulative IPC: 0.380397 (Simulation time: 1 hr 34 min 9 sec) 
Heartbeat CPU 0 instructions: 145000001 cycles: 270587068 heartbeat IPC: 0.484132 cumulative IPC: 0.381257 (Simulation time: 1 hr 34 min 25 sec) 
Heartbeat CPU 0 instructions: 146000000 cycles: 271885676 heartbeat IPC: 0.770055 cumulative IPC: 0.383273 (Simulation time: 1 hr 34 min 38 sec) 
Heartbeat CPU 0 instructions: 147000000 cycles: 275027118 heartbeat IPC: 0.318325 cumulative IPC: 0.382468 (Simulation time: 1 hr 34 min 56 sec) 
Heartbeat CPU 0 instructions: 148000000 cycles: 277637192 heartbeat IPC: 0.383131 cumulative IPC: 0.382475 (Simulation time: 1 hr 35 min 22 sec) 
Heartbeat CPU 0 instructions: 149000002 cycles: 280711686 heartbeat IPC: 0.325257 cumulative IPC: 0.381797 (Simulation time: 1 hr 35 min 45 sec) 
Heartbeat CPU 0 instructions: 150000000 cycles: 282143181 heartbeat IPC: 0.698569 cumulative IPC: 0.383536 (Simulation time: 1 hr 36 min 4 sec) 
Finished CPU 0 instructions: 100000001 cycles: 260731768 cummulative IPC: 0.383536 (Simulation time: 1 hr 36 min 4 sec) 

ChampSim completed all CPUs

Region of Interest Statistics

CPU 0 cummulative IPC: 0.383536 instructions: 100000001 cycles: 260731768
LLC TOTAL     ACCESS:    8584437  HIT:    5007454  MISS:    3576983
LLC LOAD      ACCESS:    2179650  HIT:    1093046  MISS:    1086604
LLC RFO       ACCESS:     808524  HIT:     295259  MISS:     513265
LLC PREFETCH  ACCESS:    3497357  HIT:    1613906  MISS:    1883451
LLC WRITEBACK ACCESS:    2098906  HIT:    2005243  MISS:      93663
OPTgen accesses: 16977
OPTgen hits: 12554
OPTgen hit rate: 73.9471


