
*** ChampSim Multicore Out-of-Order Simulator ***

Warmup Instructions: 50000000
Simulation Instructions: 100000000
Configuration: 2
Number of CPUs: 1
LLC sets: 2048
LLC ways: 16
Off-chip DRAM Channels: 1 Width: 64-bit Data Rate: 1600 MT/s

CPU 0 runs /datasets/cs240c-wi22-a00-public/data/Assignment2-gz/lbm_564B.trace.gz
CPU 0 L1D next line prefetcher
CPU 0 L2C IP-based stride prefetcher
Initialize Hawkeye state
Heartbeat CPU 0 instructions: 1000000 cycles: 390168 heartbeat IPC: 2.563 cumulative IPC: 2.563 (Simulation time: 0 hr 0 min 39 sec) 
Heartbeat CPU 0 instructions: 2000003 cycles: 785204 heartbeat IPC: 2.53142 cumulative IPC: 2.54711 (Simulation time: 0 hr 1 min 21 sec) 
Heartbeat CPU 0 instructions: 3000002 cycles: 1175398 heartbeat IPC: 2.56283 cumulative IPC: 2.55233 (Simulation time: 0 hr 2 min 0 sec) 
Heartbeat CPU 0 instructions: 4000000 cycles: 1565578 heartbeat IPC: 2.56291 cumulative IPC: 2.55497 (Simulation time: 0 hr 2 min 33 sec) 
Heartbeat CPU 0 instructions: 5000000 cycles: 1960681 heartbeat IPC: 2.53099 cumulative IPC: 2.55013 (Simulation time: 0 hr 3 min 11 sec) 
Heartbeat CPU 0 instructions: 6000002 cycles: 2350826 heartbeat IPC: 2.56315 cumulative IPC: 2.5523 (Simulation time: 0 hr 3 min 48 sec) 
Heartbeat CPU 0 instructions: 7000001 cycles: 2741086 heartbeat IPC: 2.56239 cumulative IPC: 2.55373 (Simulation time: 0 hr 4 min 23 sec) 
Heartbeat CPU 0 instructions: 8000000 cycles: 3136086 heartbeat IPC: 2.53164 cumulative IPC: 2.55095 (Simulation time: 0 hr 4 min 57 sec) 
Heartbeat CPU 0 instructions: 9000000 cycles: 3526338 heartbeat IPC: 2.56245 cumulative IPC: 2.55222 (Simulation time: 0 hr 5 min 29 sec) 
Heartbeat CPU 0 instructions: 10000002 cycles: 3916495 heartbeat IPC: 2.56308 cumulative IPC: 2.5533 (Simulation time: 0 hr 6 min 1 sec) 
Heartbeat CPU 0 instructions: 11000000 cycles: 4306737 heartbeat IPC: 2.56251 cumulative IPC: 2.55414 (Simulation time: 0 hr 6 min 34 sec) 
Heartbeat CPU 0 instructions: 12000000 cycles: 4701717 heartbeat IPC: 2.53177 cumulative IPC: 2.55226 (Simulation time: 0 hr 7 min 6 sec) 
Heartbeat CPU 0 instructions: 13000001 cycles: 5091942 heartbeat IPC: 2.56263 cumulative IPC: 2.55305 (Simulation time: 0 hr 7 min 38 sec) 
Heartbeat CPU 0 instructions: 14000003 cycles: 5482115 heartbeat IPC: 2.56297 cumulative IPC: 2.55376 (Simulation time: 0 hr 8 min 11 sec) 
Heartbeat CPU 0 instructions: 15000000 cycles: 5877168 heartbeat IPC: 2.5313 cumulative IPC: 2.55225 (Simulation time: 0 hr 8 min 44 sec) 
Heartbeat CPU 0 instructions: 16000000 cycles: 6267354 heartbeat IPC: 2.56288 cumulative IPC: 2.55291 (Simulation time: 0 hr 9 min 16 sec) 
Heartbeat CPU 0 instructions: 17000000 cycles: 6657523 heartbeat IPC: 2.56299 cumulative IPC: 2.5535 (Simulation time: 0 hr 9 min 48 sec) 
Heartbeat CPU 0 instructions: 18000000 cycles: 7052603 heartbeat IPC: 2.53113 cumulative IPC: 2.55225 (Simulation time: 0 hr 10 min 20 sec) 
Heartbeat CPU 0 instructions: 19000001 cycles: 7442763 heartbeat IPC: 2.56305 cumulative IPC: 2.55282 (Simulation time: 0 hr 10 min 52 sec) 
Heartbeat CPU 0 instructions: 20000000 cycles: 7832945 heartbeat IPC: 2.5629 cumulative IPC: 2.55332 (Simulation time: 0 hr 11 min 23 sec) 
Heartbeat CPU 0 instructions: 21000003 cycles: 8223128 heartbeat IPC: 2.56291 cumulative IPC: 2.55377 (Simulation time: 0 hr 11 min 57 sec) 
Heartbeat CPU 0 instructions: 22000002 cycles: 8687122 heartbeat IPC: 2.1552 cumulative IPC: 2.53248 (Simulation time: 0 hr 12 min 36 sec) 
Heartbeat CPU 0 instructions: 23000003 cycles: 9180258 heartbeat IPC: 2.02784 cumulative IPC: 2.50538 (Simulation time: 0 hr 13 min 19 sec) 
Heartbeat CPU 0 instructions: 24000000 cycles: 10024263 heartbeat IPC: 1.18482 cumulative IPC: 2.39419 (Simulation time: 0 hr 14 min 17 sec) 
Heartbeat CPU 0 instructions: 25000003 cycles: 10552927 heartbeat IPC: 1.89157 cumulative IPC: 2.36901 (Simulation time: 0 hr 15 min 2 sec) 
Heartbeat CPU 0 instructions: 26000002 cycles: 11043270 heartbeat IPC: 2.03939 cumulative IPC: 2.35438 (Simulation time: 0 hr 15 min 45 sec) 
Heartbeat CPU 0 instructions: 27000001 cycles: 11433552 heartbeat IPC: 2.56225 cumulative IPC: 2.36147 (Simulation time: 0 hr 16 min 21 sec) 
Heartbeat CPU 0 instructions: 28000000 cycles: 11823901 heartbeat IPC: 2.56181 cumulative IPC: 2.36808 (Simulation time: 0 hr 16 min 56 sec) 
Heartbeat CPU 0 instructions: 29000002 cycles: 12214205 heartbeat IPC: 2.56211 cumulative IPC: 2.37428 (Simulation time: 0 hr 17 min 28 sec) 
Heartbeat CPU 0 instructions: 30000000 cycles: 12609331 heartbeat IPC: 2.53083 cumulative IPC: 2.37919 (Simulation time: 0 hr 18 min 4 sec) 
Heartbeat CPU 0 instructions: 31000000 cycles: 12999649 heartbeat IPC: 2.56201 cumulative IPC: 2.38468 (Simulation time: 0 hr 18 min 39 sec) 
Heartbeat CPU 0 instructions: 32000000 cycles: 13389997 heartbeat IPC: 2.56182 cumulative IPC: 2.38984 (Simulation time: 0 hr 19 min 15 sec) 
Heartbeat CPU 0 instructions: 33000001 cycles: 13785147 heartbeat IPC: 2.53069 cumulative IPC: 2.39388 (Simulation time: 0 hr 19 min 53 sec) 
Heartbeat CPU 0 instructions: 34000001 cycles: 14175372 heartbeat IPC: 2.56262 cumulative IPC: 2.39853 (Simulation time: 0 hr 20 min 27 sec) 
Heartbeat CPU 0 instructions: 35000002 cycles: 14565743 heartbeat IPC: 2.56167 cumulative IPC: 2.4029 (Simulation time: 0 hr 21 min 3 sec) 
Heartbeat CPU 0 instructions: 36000000 cycles: 14956017 heartbeat IPC: 2.5623 cumulative IPC: 2.40706 (Simulation time: 0 hr 21 min 37 sec) 
Heartbeat CPU 0 instructions: 37000003 cycles: 15351121 heartbeat IPC: 2.53099 cumulative IPC: 2.41025 (Simulation time: 0 hr 22 min 13 sec) 
Heartbeat CPU 0 instructions: 38000003 cycles: 15741423 heartbeat IPC: 2.56212 cumulative IPC: 2.41401 (Simulation time: 0 hr 22 min 49 sec) 
Heartbeat CPU 0 instructions: 39000002 cycles: 16131775 heartbeat IPC: 2.56179 cumulative IPC: 2.41759 (Simulation time: 0 hr 23 min 27 sec) 
Heartbeat CPU 0 instructions: 40000000 cycles: 16526812 heartbeat IPC: 2.5314 cumulative IPC: 2.42031 (Simulation time: 0 hr 24 min 2 sec) 
Heartbeat CPU 0 instructions: 41000000 cycles: 16917114 heartbeat IPC: 2.56212 cumulative IPC: 2.42358 (Simulation time: 0 hr 24 min 38 sec) 
Heartbeat CPU 0 instructions: 42000002 cycles: 17307469 heartbeat IPC: 2.56178 cumulative IPC: 2.4267 (Simulation time: 0 hr 25 min 13 sec) 
Heartbeat CPU 0 instructions: 43000001 cycles: 17702587 heartbeat IPC: 2.53089 cumulative IPC: 2.42902 (Simulation time: 0 hr 25 min 46 sec) 
Heartbeat CPU 0 instructions: 44000000 cycles: 18092876 heartbeat IPC: 2.5622 cumulative IPC: 2.4319 (Simulation time: 0 hr 26 min 20 sec) 
Heartbeat CPU 0 instructions: 45000001 cycles: 18483220 heartbeat IPC: 2.56185 cumulative IPC: 2.43464 (Simulation time: 0 hr 26 min 55 sec) 
Heartbeat CPU 0 instructions: 46000002 cycles: 18873519 heartbeat IPC: 2.56214 cumulative IPC: 2.43728 (Simulation time: 0 hr 27 min 30 sec) 
Heartbeat CPU 0 instructions: 47000002 cycles: 19268551 heartbeat IPC: 2.53144 cumulative IPC: 2.43921 (Simulation time: 0 hr 28 min 4 sec) 
Heartbeat CPU 0 instructions: 48000000 cycles: 19658860 heartbeat IPC: 2.56207 cumulative IPC: 2.44165 (Simulation time: 0 hr 28 min 39 sec) 
Heartbeat CPU 0 instructions: 49000003 cycles: 20049196 heartbeat IPC: 2.5619 cumulative IPC: 2.44399 (Simulation time: 0 hr 29 min 13 sec) 
Heartbeat CPU 0 instructions: 50000002 cycles: 20444321 heartbeat IPC: 2.53084 cumulative IPC: 2.44567 (Simulation time: 0 hr 29 min 48 sec) 

Warmup complete CPU 0 instructions: 50000002 cycles: 20444321 (Simulation time: 0 hr 29 min 48 sec) 

Heartbeat CPU 0 instructions: 51000002 cycles: 21856718 heartbeat IPC: 0.708016 cumulative IPC: 0.708016 (Simulation time: 0 hr 30 min 30 sec) 
Heartbeat CPU 0 instructions: 52000000 cycles: 23301362 heartbeat IPC: 0.692211 cumulative IPC: 0.700024 (Simulation time: 0 hr 31 min 10 sec) 
Heartbeat CPU 0 instructions: 53000001 cycles: 24749041 heartbeat IPC: 0.690762 cumulative IPC: 0.696909 (Simulation time: 0 hr 31 min 51 sec) 
Heartbeat CPU 0 instructions: 54000001 cycles: 26235087 heartbeat IPC: 0.672927 cumulative IPC: 0.690755 (Simulation time: 0 hr 32 min 35 sec) 
Heartbeat CPU 0 instructions: 55000003 cycles: 27671777 heartbeat IPC: 0.696046 cumulative IPC: 0.691806 (Simulation time: 0 hr 33 min 16 sec) 
Heartbeat CPU 0 instructions: 56000000 cycles: 29137805 heartbeat IPC: 0.682113 cumulative IPC: 0.690172 (Simulation time: 0 hr 33 min 59 sec) 
Heartbeat CPU 0 instructions: 57000001 cycles: 30606614 heartbeat IPC: 0.680824 cumulative IPC: 0.688821 (Simulation time: 0 hr 34 min 42 sec) 
Heartbeat CPU 0 instructions: 58000002 cycles: 32085661 heartbeat IPC: 0.676112 cumulative IPC: 0.687206 (Simulation time: 0 hr 35 min 25 sec) 
Heartbeat CPU 0 instructions: 59000001 cycles: 33482484 heartbeat IPC: 0.71591 cumulative IPC: 0.690281 (Simulation time: 0 hr 36 min 6 sec) 
Heartbeat CPU 0 instructions: 60000000 cycles: 34960224 heartbeat IPC: 0.676708 cumulative IPC: 0.688899 (Simulation time: 0 hr 36 min 46 sec) 
Heartbeat CPU 0 instructions: 61000003 cycles: 36456642 heartbeat IPC: 0.668265 cumulative IPC: 0.686971 (Simulation time: 0 hr 37 min 29 sec) 
Heartbeat CPU 0 instructions: 62000003 cycles: 37844320 heartbeat IPC: 0.720628 cumulative IPC: 0.689655 (Simulation time: 0 hr 38 min 9 sec) 
Heartbeat CPU 0 instructions: 63000000 cycles: 39257351 heartbeat IPC: 0.707696 cumulative IPC: 0.69101 (Simulation time: 0 hr 38 min 49 sec) 
Heartbeat CPU 0 instructions: 64000000 cycles: 40696132 heartbeat IPC: 0.695033 cumulative IPC: 0.691296 (Simulation time: 0 hr 39 min 30 sec) 
Heartbeat CPU 0 instructions: 65000003 cycles: 42154750 heartbeat IPC: 0.685583 cumulative IPC: 0.690912 (Simulation time: 0 hr 40 min 10 sec) 
Heartbeat CPU 0 instructions: 66000001 cycles: 43576545 heartbeat IPC: 0.703335 cumulative IPC: 0.691676 (Simulation time: 0 hr 40 min 52 sec) 
Heartbeat CPU 0 instructions: 67000001 cycles: 45106652 heartbeat IPC: 0.653549 cumulative IPC: 0.68931 (Simulation time: 0 hr 41 min 33 sec) 
Heartbeat CPU 0 instructions: 68000000 cycles: 46664877 heartbeat IPC: 0.641755 cumulative IPC: 0.686484 (Simulation time: 0 hr 42 min 15 sec) 
Heartbeat CPU 0 instructions: 69000003 cycles: 48096119 heartbeat IPC: 0.698696 cumulative IPC: 0.687116 (Simulation time: 0 hr 42 min 55 sec) 
Heartbeat CPU 0 instructions: 70000003 cycles: 49604646 heartbeat IPC: 0.662898 cumulative IPC: 0.685863 (Simulation time: 0 hr 43 min 36 sec) 
Heartbeat CPU 0 instructions: 71000000 cycles: 51233364 heartbeat IPC: 0.613978 cumulative IPC: 0.682061 (Simulation time: 0 hr 44 min 18 sec) 
Heartbeat CPU 0 instructions: 72000000 cycles: 52688556 heartbeat IPC: 0.687195 cumulative IPC: 0.682292 (Simulation time: 0 hr 44 min 59 sec) 
Heartbeat CPU 0 instructions: 73000003 cycles: 54164317 heartbeat IPC: 0.677619 cumulative IPC: 0.682088 (Simulation time: 0 hr 45 min 40 sec) 
Heartbeat CPU 0 instructions: 74000002 cycles: 55788897 heartbeat IPC: 0.615543 cumulative IPC: 0.679029 (Simulation time: 0 hr 46 min 22 sec) 
Heartbeat CPU 0 instructions: 75000002 cycles: 57194161 heartbeat IPC: 0.71161 cumulative IPC: 0.680275 (Simulation time: 0 hr 47 min 3 sec) 
Heartbeat CPU 0 instructions: 76000000 cycles: 58660246 heartbeat IPC: 0.682087 cumulative IPC: 0.680345 (Simulation time: 0 hr 47 min 44 sec) 
Heartbeat CPU 0 instructions: 77000001 cycles: 60294382 heartbeat IPC: 0.611945 cumulative IPC: 0.67754 (Simulation time: 0 hr 48 min 27 sec) 
Heartbeat CPU 0 instructions: 78000002 cycles: 61707135 heartbeat IPC: 0.707839 cumulative IPC: 0.678577 (Simulation time: 0 hr 49 min 6 sec) 
Heartbeat CPU 0 instructions: 79000000 cycles: 63137625 heartbeat IPC: 0.69906 cumulative IPC: 0.679263 (Simulation time: 0 hr 49 min 48 sec) 
Heartbeat CPU 0 instructions: 80000000 cycles: 64760184 heartbeat IPC: 0.61631 cumulative IPC: 0.676958 (Simulation time: 0 hr 50 min 32 sec) 
Heartbeat CPU 0 instructions: 81000003 cycles: 66189454 heartbeat IPC: 0.69966 cumulative IPC: 0.677668 (Simulation time: 0 hr 51 min 12 sec) 
Heartbeat CPU 0 instructions: 82000001 cycles: 67660927 heartbeat IPC: 0.67959 cumulative IPC: 0.677728 (Simulation time: 0 hr 51 min 54 sec) 
Heartbeat CPU 0 instructions: 83000001 cycles: 69269537 heartbeat IPC: 0.621655 cumulative IPC: 0.67588 (Simulation time: 0 hr 52 min 40 sec) 
Heartbeat CPU 0 instructions: 84000000 cycles: 70785579 heartbeat IPC: 0.659612 cumulative IPC: 0.67539 (Simulation time: 0 hr 53 min 22 sec) 
Heartbeat CPU 0 instructions: 85000002 cycles: 72191528 heartbeat IPC: 0.711265 cumulative IPC: 0.676365 (Simulation time: 0 hr 54 min 3 sec) 
Heartbeat CPU 0 instructions: 86000001 cycles: 73844499 heartbeat IPC: 0.604971 cumulative IPC: 0.674155 (Simulation time: 0 hr 54 min 46 sec) 
Heartbeat CPU 0 instructions: 87000003 cycles: 75340415 heartbeat IPC: 0.668488 cumulative IPC: 0.674001 (Simulation time: 0 hr 55 min 33 sec) 
Heartbeat CPU 0 instructions: 88000000 cycles: 76716229 heartbeat IPC: 0.72684 cumulative IPC: 0.675292 (Simulation time: 0 hr 56 min 17 sec) 
Heartbeat CPU 0 instructions: 89000003 cycles: 78361106 heartbeat IPC: 0.60795 cumulative IPC: 0.67338 (Simulation time: 0 hr 57 min 5 sec) 
Heartbeat CPU 0 instructions: 90000001 cycles: 79927175 heartbeat IPC: 0.63854 cumulative IPC: 0.672463 (Simulation time: 0 hr 57 min 47 sec) 
Heartbeat CPU 0 instructions: 91000000 cycles: 81337185 heartbeat IPC: 0.709214 cumulative IPC: 0.673314 (Simulation time: 0 hr 58 min 29 sec) 
Heartbeat CPU 0 instructions: 92000000 cycles: 82997522 heartbeat IPC: 0.602287 cumulative IPC: 0.671428 (Simulation time: 0 hr 59 min 12 sec) 
Heartbeat CPU 0 instructions: 93000003 cycles: 84569802 heartbeat IPC: 0.636021 cumulative IPC: 0.67056 (Simulation time: 0 hr 59 min 55 sec) 
Heartbeat CPU 0 instructions: 94000002 cycles: 85955827 heartbeat IPC: 0.721487 cumulative IPC: 0.671638 (Simulation time: 1 hr 0 min 36 sec) 
Heartbeat CPU 0 instructions: 95000001 cycles: 87546878 heartbeat IPC: 0.628515 cumulative IPC: 0.670615 (Simulation time: 1 hr 1 min 19 sec) 
Heartbeat CPU 0 instructions: 96000000 cycles: 89123732 heartbeat IPC: 0.634174 cumulative IPC: 0.669779 (Simulation time: 1 hr 2 min 3 sec) 
Heartbeat CPU 0 instructions: 97000002 cycles: 90524728 heartbeat IPC: 0.713779 cumulative IPC: 0.670658 (Simulation time: 1 hr 2 min 46 sec) 
Heartbeat CPU 0 instructions: 98000000 cycles: 92182909 heartbeat IPC: 0.603069 cumulative IPC: 0.669096 (Simulation time: 1 hr 3 min 29 sec) 
Heartbeat CPU 0 instructions: 99000001 cycles: 93759624 heartbeat IPC: 0.634231 cumulative IPC: 0.668346 (Simulation time: 1 hr 4 min 11 sec) 
Heartbeat CPU 0 instructions: 100000000 cycles: 95132819 heartbeat IPC: 0.728228 cumulative IPC: 0.669447 (Simulation time: 1 hr 4 min 51 sec) 
Heartbeat CPU 0 instructions: 101000002 cycles: 96745970 heartbeat IPC: 0.619906 cumulative IPC: 0.6684 (Simulation time: 1 hr 5 min 37 sec) 
Heartbeat CPU 0 instructions: 102000002 cycles: 98318661 heartbeat IPC: 0.635853 cumulative IPC: 0.667742 (Simulation time: 1 hr 6 min 28 sec) 
Heartbeat CPU 0 instructions: 103000001 cycles: 99828026 heartbeat IPC: 0.66253 cumulative IPC: 0.667643 (Simulation time: 1 hr 7 min 27 sec) 
Heartbeat CPU 0 instructions: 104000000 cycles: 101585204 heartbeat IPC: 0.569094 cumulative IPC: 0.665509 (Simulation time: 1 hr 8 min 26 sec) 
Heartbeat CPU 0 instructions: 105000001 cycles: 103140865 heartbeat IPC: 0.642814 cumulative IPC: 0.665082 (Simulation time: 1 hr 9 min 32 sec) 
Heartbeat CPU 0 instructions: 106000003 cycles: 104551683 heartbeat IPC: 0.70881 cumulative IPC: 0.665816 (Simulation time: 1 hr 10 min 34 sec) 
Heartbeat CPU 0 instructions: 107000001 cycles: 106232852 heartbeat IPC: 0.594823 cumulative IPC: 0.664424 (Simulation time: 1 hr 11 min 35 sec) 
Heartbeat CPU 0 instructions: 108000000 cycles: 107811730 heartbeat IPC: 0.633361 cumulative IPC: 0.663863 (Simulation time: 1 hr 12 min 39 sec) 
Heartbeat CPU 0 instructions: 109000003 cycles: 109194860 heartbeat IPC: 0.723 cumulative IPC: 0.664785 (Simulation time: 1 hr 13 min 38 sec) 
Heartbeat CPU 0 instructions: 110000001 cycles: 110909809 heartbeat IPC: 0.583107 cumulative IPC: 0.663236 (Simulation time: 1 hr 14 min 40 sec) 
Heartbeat CPU 0 instructions: 111000002 cycles: 112399432 heartbeat IPC: 0.671311 cumulative IPC: 0.663367 (Simulation time: 1 hr 15 min 38 sec) 
Heartbeat CPU 0 instructions: 112000000 cycles: 113840335 heartbeat IPC: 0.694008 cumulative IPC: 0.66384 (Simulation time: 1 hr 16 min 35 sec) 
Heartbeat CPU 0 instructions: 113000001 cycles: 115527971 heartbeat IPC: 0.592545 cumulative IPC: 0.662574 (Simulation time: 1 hr 17 min 42 sec) 
Heartbeat CPU 0 instructions: 114000002 cycles: 117033734 heartbeat IPC: 0.664116 cumulative IPC: 0.662598 (Simulation time: 1 hr 18 min 39 sec) 
Heartbeat CPU 0 instructions: 115000002 cycles: 118435693 heartbeat IPC: 0.713288 cumulative IPC: 0.663324 (Simulation time: 1 hr 19 min 30 sec) 
Heartbeat CPU 0 instructions: 116000000 cycles: 120165720 heartbeat IPC: 0.578025 cumulative IPC: 0.661844 (Simulation time: 1 hr 20 min 26 sec) 
Heartbeat CPU 0 instructions: 117000001 cycles: 121631547 heartbeat IPC: 0.682209 cumulative IPC: 0.662139 (Simulation time: 1 hr 21 min 19 sec) 
Heartbeat CPU 0 instructions: 118000003 cycles: 123126436 heartbeat IPC: 0.668947 cumulative IPC: 0.662238 (Simulation time: 1 hr 22 min 12 sec) 
Heartbeat CPU 0 instructions: 119000003 cycles: 124926342 heartbeat IPC: 0.555585 cumulative IPC: 0.660401 (Simulation time: 1 hr 23 min 7 sec) 
Heartbeat CPU 0 instructions: 120000000 cycles: 126407324 heartbeat IPC: 0.675226 cumulative IPC: 0.660608 (Simulation time: 1 hr 23 min 58 sec) 
Heartbeat CPU 0 instructions: 121000000 cycles: 127853123 heartbeat IPC: 0.691659 cumulative IPC: 0.661026 (Simulation time: 1 hr 24 min 46 sec) 
Heartbeat CPU 0 instructions: 122000001 cycles: 129639879 heartbeat IPC: 0.559674 cumulative IPC: 0.659367 (Simulation time: 1 hr 25 min 38 sec) 
Heartbeat CPU 0 instructions: 123000002 cycles: 131054744 heartbeat IPC: 0.706782 cumulative IPC: 0.659974 (Simulation time: 1 hr 26 min 23 sec) 
Heartbeat CPU 0 instructions: 124000000 cycles: 132489085 heartbeat IPC: 0.697183 cumulative IPC: 0.66045 (Simulation time: 1 hr 27 min 8 sec) 
Heartbeat CPU 0 instructions: 125000003 cycles: 134245021 heartbeat IPC: 0.569499 cumulative IPC: 0.659047 (Simulation time: 1 hr 27 min 55 sec) 
Heartbeat CPU 0 instructions: 126000001 cycles: 135631177 heartbeat IPC: 0.721418 cumulative IPC: 0.659797 (Simulation time: 1 hr 28 min 35 sec) 
Heartbeat CPU 0 instructions: 127000001 cycles: 137099636 heartbeat IPC: 0.680986 cumulative IPC: 0.660064 (Simulation time: 1 hr 29 min 16 sec) 
Heartbeat CPU 0 instructions: 128000000 cycles: 138866362 heartbeat IPC: 0.566018 cumulative IPC: 0.658661 (Simulation time: 1 hr 29 min 56 sec) 
Heartbeat CPU 0 instructions: 129000003 cycles: 140284316 heartbeat IPC: 0.705244 cumulative IPC: 0.659212 (Simulation time: 1 hr 30 min 33 sec) 
Heartbeat CPU 0 instructions: 130000003 cycles: 141764226 heartbeat IPC: 0.675717 cumulative IPC: 0.659414 (Simulation time: 1 hr 31 min 10 sec) 
Heartbeat CPU 0 instructions: 131000000 cycles: 143537848 heartbeat IPC: 0.563816 cumulative IPC: 0.658036 (Simulation time: 1 hr 31 min 49 sec) 
Heartbeat CPU 0 instructions: 132000000 cycles: 144959264 heartbeat IPC: 0.703524 cumulative IPC: 0.658556 (Simulation time: 1 hr 32 min 26 sec) 
Heartbeat CPU 0 instructions: 133000001 cycles: 146455922 heartbeat IPC: 0.668156 cumulative IPC: 0.65867 (Simulation time: 1 hr 32 min 57 sec) 
Heartbeat CPU 0 instructions: 134000000 cycles: 148225359 heartbeat IPC: 0.565151 cumulative IPC: 0.657375 (Simulation time: 1 hr 33 min 32 sec) 
Heartbeat CPU 0 instructions: 135000003 cycles: 149675031 heartbeat IPC: 0.689813 cumulative IPC: 0.657738 (Simulation time: 1 hr 34 min 4 sec) 
Heartbeat CPU 0 instructions: 136000000 cycles: 151208784 heartbeat IPC: 0.651994 cumulative IPC: 0.657671 (Simulation time: 1 hr 34 min 32 sec) 
Heartbeat CPU 0 instructions: 137000001 cycles: 152993284 heartbeat IPC: 0.560382 cumulative IPC: 0.656361 (Simulation time: 1 hr 35 min 4 sec) 
Heartbeat CPU 0 instructions: 138000000 cycles: 154419433 heartbeat IPC: 0.701188 cumulative IPC: 0.656838 (Simulation time: 1 hr 35 min 33 sec) 
Heartbeat CPU 0 instructions: 139000003 cycles: 155919540 heartbeat IPC: 0.666621 cumulative IPC: 0.656947 (Simulation time: 1 hr 36 min 0 sec) 
Heartbeat CPU 0 instructions: 140000000 cycles: 157672405 heartbeat IPC: 0.570493 cumulative IPC: 0.655842 (Simulation time: 1 hr 36 min 24 sec) 
Heartbeat CPU 0 instructions: 141000003 cycles: 159115960 heartbeat IPC: 0.692736 cumulative IPC: 0.656226 (Simulation time: 1 hr 36 min 46 sec) 
Heartbeat CPU 0 instructions: 142000001 cycles: 160627241 heartbeat IPC: 0.661689 cumulative IPC: 0.656285 (Simulation time: 1 hr 37 min 9 sec) 
Heartbeat CPU 0 instructions: 143000000 cycles: 162358034 heartbeat IPC: 0.577769 cumulative IPC: 0.655328 (Simulation time: 1 hr 37 min 33 sec) 
Heartbeat CPU 0 instructions: 144000000 cycles: 163789042 heartbeat IPC: 0.698808 cumulative IPC: 0.655762 (Simulation time: 1 hr 37 min 53 sec) 
Heartbeat CPU 0 instructions: 145000002 cycles: 165312342 heartbeat IPC: 0.656471 cumulative IPC: 0.655769 (Simulation time: 1 hr 38 min 10 sec) 
Heartbeat CPU 0 instructions: 146000001 cycles: 166994553 heartbeat IPC: 0.594455 cumulative IPC: 0.655065 (Simulation time: 1 hr 38 min 31 sec) 
Heartbeat CPU 0 instructions: 147000000 cycles: 168401572 heartbeat IPC: 0.710722 cumulative IPC: 0.655595 (Simulation time: 1 hr 38 min 48 sec) 
Heartbeat CPU 0 instructions: 148000000 cycles: 169880174 heartbeat IPC: 0.676315 cumulative IPC: 0.6558 (Simulation time: 1 hr 39 min 3 sec) 
Heartbeat CPU 0 instructions: 149000003 cycles: 171579679 heartbeat IPC: 0.588408 cumulative IPC: 0.655042 (Simulation time: 1 hr 39 min 17 sec) 
Heartbeat CPU 0 instructions: 150000003 cycles: 172982172 heartbeat IPC: 0.713016 cumulative IPC: 0.655575 (Simulation time: 1 hr 39 min 32 sec) 
Finished CPU 0 instructions: 100000001 cycles: 152537851 cummulative IPC: 0.655575 (Simulation time: 1 hr 39 min 32 sec) 

ChampSim completed all CPUs

Region of Interest Statistics

CPU 0 cummulative IPC: 0.655575 instructions: 100000001 cycles: 152537851
LLC TOTAL     ACCESS:    5890350  HIT:    1896380  MISS:    3993970
LLC LOAD      ACCESS:     435482  HIT:      20136  MISS:     415346
LLC RFO       ACCESS:    2513662  HIT:     666283  MISS:    1847379
LLC PREFETCH  ACCESS:     427240  HIT:      24394  MISS:     402846
LLC WRITEBACK ACCESS:    2513966  HIT:    1185567  MISS:    1328399
OPTgen accesses: 17655
OPTgen hits: 5656
OPTgen hit rate: 32.0363


