
*** ChampSim Multicore Out-of-Order Simulator ***

Warmup Instructions: 50000000
Simulation Instructions: 100000000
Configuration: 2
Number of CPUs: 1
LLC sets: 2048
LLC ways: 16
Off-chip DRAM Channels: 1 Width: 64-bit Data Rate: 1600 MT/s

CPU 0 runs /datasets/cs240c-wi22-a00-public/data/Assignment2-gz/leslie3d_1186B.trace.gz
CPU 0 L1D next line prefetcher
CPU 0 L2C IP-based stride prefetcher
Initialize Hawkeye state
Heartbeat CPU 0 instructions: 1000002 cycles: 564509 heartbeat IPC: 1.77145 cumulative IPC: 1.77145 (Simulation time: 0 hr 0 min 39 sec) 
Heartbeat CPU 0 instructions: 2000000 cycles: 1215816 heartbeat IPC: 1.53537 cumulative IPC: 1.64499 (Simulation time: 0 hr 1 min 18 sec) 
Heartbeat CPU 0 instructions: 3000000 cycles: 1867543 heartbeat IPC: 1.53438 cumulative IPC: 1.60639 (Simulation time: 0 hr 1 min 58 sec) 
Heartbeat CPU 0 instructions: 4000000 cycles: 2473106 heartbeat IPC: 1.65136 cumulative IPC: 1.6174 (Simulation time: 0 hr 2 min 37 sec) 
Heartbeat CPU 0 instructions: 5000000 cycles: 3083448 heartbeat IPC: 1.63843 cumulative IPC: 1.62156 (Simulation time: 0 hr 3 min 17 sec) 
Heartbeat CPU 0 instructions: 6000000 cycles: 3735173 heartbeat IPC: 1.53439 cumulative IPC: 1.60635 (Simulation time: 0 hr 3 min 58 sec) 
Heartbeat CPU 0 instructions: 7000001 cycles: 4386388 heartbeat IPC: 1.53559 cumulative IPC: 1.59585 (Simulation time: 0 hr 4 min 39 sec) 
Heartbeat CPU 0 instructions: 8000000 cycles: 4950960 heartbeat IPC: 1.77125 cumulative IPC: 1.61585 (Simulation time: 0 hr 5 min 17 sec) 
Heartbeat CPU 0 instructions: 9000003 cycles: 5602250 heartbeat IPC: 1.53542 cumulative IPC: 1.6065 (Simulation time: 0 hr 5 min 58 sec) 
Heartbeat CPU 0 instructions: 10000001 cycles: 6253419 heartbeat IPC: 1.5357 cumulative IPC: 1.59913 (Simulation time: 0 hr 6 min 36 sec) 
Heartbeat CPU 0 instructions: 11000000 cycles: 6820204 heartbeat IPC: 1.76434 cumulative IPC: 1.61285 (Simulation time: 0 hr 7 min 9 sec) 
Heartbeat CPU 0 instructions: 12000000 cycles: 7469298 heartbeat IPC: 1.54061 cumulative IPC: 1.60658 (Simulation time: 0 hr 7 min 46 sec) 
Heartbeat CPU 0 instructions: 13000002 cycles: 8120774 heartbeat IPC: 1.53498 cumulative IPC: 1.60083 (Simulation time: 0 hr 8 min 24 sec) 
Heartbeat CPU 0 instructions: 14000000 cycles: 8755206 heartbeat IPC: 1.57621 cumulative IPC: 1.59905 (Simulation time: 0 hr 9 min 5 sec) 
Heartbeat CPU 0 instructions: 15000000 cycles: 9336286 heartbeat IPC: 1.72093 cumulative IPC: 1.60663 (Simulation time: 0 hr 9 min 40 sec) 
Heartbeat CPU 0 instructions: 16000000 cycles: 9987846 heartbeat IPC: 1.53478 cumulative IPC: 1.60195 (Simulation time: 0 hr 10 min 19 sec) 
Heartbeat CPU 0 instructions: 17000000 cycles: 10638906 heartbeat IPC: 1.53596 cumulative IPC: 1.59791 (Simulation time: 0 hr 11 min 0 sec) 
Heartbeat CPU 0 instructions: 18000003 cycles: 11203384 heartbeat IPC: 1.77155 cumulative IPC: 1.60666 (Simulation time: 0 hr 11 min 36 sec) 
Heartbeat CPU 0 instructions: 19000003 cycles: 11854667 heartbeat IPC: 1.53543 cumulative IPC: 1.60274 (Simulation time: 0 hr 12 min 15 sec) 
Heartbeat CPU 0 instructions: 20000000 cycles: 12505820 heartbeat IPC: 1.53573 cumulative IPC: 1.59926 (Simulation time: 0 hr 13 min 2 sec) 
Heartbeat CPU 0 instructions: 21000001 cycles: 13101448 heartbeat IPC: 1.6789 cumulative IPC: 1.60288 (Simulation time: 0 hr 13 min 51 sec) 
Heartbeat CPU 0 instructions: 22000003 cycles: 13721397 heartbeat IPC: 1.61304 cumulative IPC: 1.60334 (Simulation time: 0 hr 14 min 38 sec) 
Heartbeat CPU 0 instructions: 23000001 cycles: 14372520 heartbeat IPC: 1.53581 cumulative IPC: 1.60028 (Simulation time: 0 hr 15 min 25 sec) 
Heartbeat CPU 0 instructions: 24000000 cycles: 15024125 heartbeat IPC: 1.53467 cumulative IPC: 1.59743 (Simulation time: 0 hr 16 min 14 sec) 
Heartbeat CPU 0 instructions: 25000000 cycles: 15588164 heartbeat IPC: 1.77293 cumulative IPC: 1.60378 (Simulation time: 0 hr 17 min 1 sec) 
Heartbeat CPU 0 instructions: 26000003 cycles: 16240137 heartbeat IPC: 1.53381 cumulative IPC: 1.60097 (Simulation time: 0 hr 17 min 52 sec) 
Heartbeat CPU 0 instructions: 27000000 cycles: 16891768 heartbeat IPC: 1.53461 cumulative IPC: 1.59841 (Simulation time: 0 hr 18 min 41 sec) 
Heartbeat CPU 0 instructions: 28000000 cycles: 17455878 heartbeat IPC: 1.7727 cumulative IPC: 1.60404 (Simulation time: 0 hr 19 min 25 sec) 
Heartbeat CPU 0 instructions: 29000002 cycles: 18107314 heartbeat IPC: 1.53507 cumulative IPC: 1.60156 (Simulation time: 0 hr 20 min 12 sec) 
Heartbeat CPU 0 instructions: 30000002 cycles: 18758664 heartbeat IPC: 1.53527 cumulative IPC: 1.59926 (Simulation time: 0 hr 20 min 57 sec) 
Heartbeat CPU 0 instructions: 31000002 cycles: 19382712 heartbeat IPC: 1.60244 cumulative IPC: 1.59936 (Simulation time: 0 hr 21 min 43 sec) 
Heartbeat CPU 0 instructions: 32000000 cycles: 19974195 heartbeat IPC: 1.69066 cumulative IPC: 1.60207 (Simulation time: 0 hr 22 min 26 sec) 
Heartbeat CPU 0 instructions: 33000000 cycles: 20625758 heartbeat IPC: 1.53477 cumulative IPC: 1.59994 (Simulation time: 0 hr 23 min 13 sec) 
Heartbeat CPU 0 instructions: 34000000 cycles: 21277798 heartbeat IPC: 1.53365 cumulative IPC: 1.59791 (Simulation time: 0 hr 24 min 1 sec) 
Heartbeat CPU 0 instructions: 35000000 cycles: 21842033 heartbeat IPC: 1.77231 cumulative IPC: 1.60241 (Simulation time: 0 hr 24 min 42 sec) 
Heartbeat CPU 0 instructions: 36000000 cycles: 22493599 heartbeat IPC: 1.53476 cumulative IPC: 1.60046 (Simulation time: 0 hr 25 min 26 sec) 
Heartbeat CPU 0 instructions: 37000003 cycles: 23145290 heartbeat IPC: 1.53447 cumulative IPC: 1.5986 (Simulation time: 0 hr 26 min 12 sec) 
Heartbeat CPU 0 instructions: 38000002 cycles: 23730972 heartbeat IPC: 1.70741 cumulative IPC: 1.60128 (Simulation time: 0 hr 26 min 54 sec) 
Heartbeat CPU 0 instructions: 39000000 cycles: 24361177 heartbeat IPC: 1.58678 cumulative IPC: 1.60091 (Simulation time: 0 hr 27 min 36 sec) 
Heartbeat CPU 0 instructions: 40000000 cycles: 25012987 heartbeat IPC: 1.53419 cumulative IPC: 1.59917 (Simulation time: 0 hr 28 min 20 sec) 
Heartbeat CPU 0 instructions: 41000000 cycles: 25663967 heartbeat IPC: 1.53615 cumulative IPC: 1.59757 (Simulation time: 0 hr 29 min 5 sec) 
Heartbeat CPU 0 instructions: 42000000 cycles: 26228776 heartbeat IPC: 1.77051 cumulative IPC: 1.60129 (Simulation time: 0 hr 29 min 47 sec) 
Heartbeat CPU 0 instructions: 43000002 cycles: 26879865 heartbeat IPC: 1.53589 cumulative IPC: 1.59971 (Simulation time: 0 hr 30 min 31 sec) 
Heartbeat CPU 0 instructions: 44000000 cycles: 27531374 heartbeat IPC: 1.5349 cumulative IPC: 1.59818 (Simulation time: 0 hr 31 min 14 sec) 
Heartbeat CPU 0 instructions: 45000001 cycles: 28090490 heartbeat IPC: 1.78854 cumulative IPC: 1.60197 (Simulation time: 0 hr 31 min 54 sec) 
Heartbeat CPU 0 instructions: 46000001 cycles: 28591233 heartbeat IPC: 1.99703 cumulative IPC: 1.60888 (Simulation time: 0 hr 32 min 34 sec) 
Heartbeat CPU 0 instructions: 47000001 cycles: 29091907 heartbeat IPC: 1.99731 cumulative IPC: 1.61557 (Simulation time: 0 hr 33 min 12 sec) 
Heartbeat CPU 0 instructions: 48000000 cycles: 29592762 heartbeat IPC: 1.99658 cumulative IPC: 1.62202 (Simulation time: 0 hr 33 min 51 sec) 
Heartbeat CPU 0 instructions: 49000002 cycles: 30093148 heartbeat IPC: 1.99846 cumulative IPC: 1.62828 (Simulation time: 0 hr 34 min 32 sec) 
Heartbeat CPU 0 instructions: 50000001 cycles: 30594075 heartbeat IPC: 1.9963 cumulative IPC: 1.6343 (Simulation time: 0 hr 35 min 14 sec) 

Warmup complete CPU 0 instructions: 50000001 cycles: 30594075 (Simulation time: 0 hr 35 min 14 sec) 

Heartbeat CPU 0 instructions: 51000000 cycles: 32232537 heartbeat IPC: 0.610328 cumulative IPC: 0.610328 (Simulation time: 0 hr 36 min 1 sec) 
Heartbeat CPU 0 instructions: 52000000 cycles: 33786695 heartbeat IPC: 0.643435 cumulative IPC: 0.626444 (Simulation time: 0 hr 36 min 45 sec) 
Heartbeat CPU 0 instructions: 53000003 cycles: 35428518 heartbeat IPC: 0.609081 cumulative IPC: 0.620548 (Simulation time: 0 hr 37 min 30 sec) 
Heartbeat CPU 0 instructions: 54000003 cycles: 36978729 heartbeat IPC: 0.645073 cumulative IPC: 0.626503 (Simulation time: 0 hr 38 min 15 sec) 
Heartbeat CPU 0 instructions: 55000001 cycles: 38834183 heartbeat IPC: 0.538951 cumulative IPC: 0.606788 (Simulation time: 0 hr 39 min 4 sec) 
Heartbeat CPU 0 instructions: 56000000 cycles: 41246750 heartbeat IPC: 0.414496 cumulative IPC: 0.563239 (Simulation time: 0 hr 39 min 54 sec) 
Heartbeat CPU 0 instructions: 57000003 cycles: 43554853 heartbeat IPC: 0.433258 cumulative IPC: 0.540091 (Simulation time: 0 hr 40 min 44 sec) 
Heartbeat CPU 0 instructions: 58000001 cycles: 45913361 heartbeat IPC: 0.423996 cumulative IPC: 0.522218 (Simulation time: 0 hr 41 min 35 sec) 
Heartbeat CPU 0 instructions: 59000003 cycles: 48254269 heartbeat IPC: 0.427186 cumulative IPC: 0.509621 (Simulation time: 0 hr 42 min 29 sec) 
Heartbeat CPU 0 instructions: 60000000 cycles: 50581999 heartbeat IPC: 0.429602 cumulative IPC: 0.500302 (Simulation time: 0 hr 43 min 28 sec) 
Heartbeat CPU 0 instructions: 61000003 cycles: 52917733 heartbeat IPC: 0.428132 cumulative IPC: 0.492751 (Simulation time: 0 hr 44 min 25 sec) 
Heartbeat CPU 0 instructions: 62000001 cycles: 55258190 heartbeat IPC: 0.427266 cumulative IPC: 0.486537 (Simulation time: 0 hr 45 min 23 sec) 
Heartbeat CPU 0 instructions: 63000000 cycles: 57249213 heartbeat IPC: 0.502254 cumulative IPC: 0.487711 (Simulation time: 0 hr 46 min 15 sec) 
Heartbeat CPU 0 instructions: 64000000 cycles: 58480469 heartbeat IPC: 0.812179 cumulative IPC: 0.502037 (Simulation time: 0 hr 47 min 0 sec) 
Heartbeat CPU 0 instructions: 65000000 cycles: 59744589 heartbeat IPC: 0.791064 cumulative IPC: 0.514571 (Simulation time: 0 hr 47 min 44 sec) 
Heartbeat CPU 0 instructions: 66000002 cycles: 60994933 heartbeat IPC: 0.799782 cumulative IPC: 0.526301 (Simulation time: 0 hr 48 min 30 sec) 
Heartbeat CPU 0 instructions: 67000001 cycles: 62240531 heartbeat IPC: 0.802826 cumulative IPC: 0.537185 (Simulation time: 0 hr 49 min 15 sec) 
Heartbeat CPU 0 instructions: 68000000 cycles: 63548137 heartbeat IPC: 0.764756 cumulative IPC: 0.546215 (Simulation time: 0 hr 50 min 1 sec) 
Heartbeat CPU 0 instructions: 69000000 cycles: 64784731 heartbeat IPC: 0.808673 cumulative IPC: 0.555707 (Simulation time: 0 hr 50 min 46 sec) 
Heartbeat CPU 0 instructions: 70000000 cycles: 66060167 heartbeat IPC: 0.784046 cumulative IPC: 0.563919 (Simulation time: 0 hr 51 min 30 sec) 
Heartbeat CPU 0 instructions: 71000003 cycles: 67307363 heartbeat IPC: 0.801801 cumulative IPC: 0.572 (Simulation time: 0 hr 52 min 16 sec) 
Heartbeat CPU 0 instructions: 72000000 cycles: 68577172 heartbeat IPC: 0.787518 cumulative IPC: 0.579205 (Simulation time: 0 hr 53 min 1 sec) 
Heartbeat CPU 0 instructions: 73000000 cycles: 69847612 heartbeat IPC: 0.787129 cumulative IPC: 0.585934 (Simulation time: 0 hr 53 min 46 sec) 
Heartbeat CPU 0 instructions: 74000000 cycles: 71086048 heartbeat IPC: 0.80747 cumulative IPC: 0.59271 (Simulation time: 0 hr 54 min 33 sec) 
Heartbeat CPU 0 instructions: 75000003 cycles: 72373241 heartbeat IPC: 0.776887 cumulative IPC: 0.598384 (Simulation time: 0 hr 55 min 17 sec) 
Heartbeat CPU 0 instructions: 76000000 cycles: 73612955 heartbeat IPC: 0.806635 cumulative IPC: 0.604386 (Simulation time: 0 hr 56 min 3 sec) 
Heartbeat CPU 0 instructions: 77000000 cycles: 74895487 heartbeat IPC: 0.779708 cumulative IPC: 0.609461 (Simulation time: 0 hr 56 min 48 sec) 
Heartbeat CPU 0 instructions: 78000001 cycles: 76159412 heartbeat IPC: 0.791187 cumulative IPC: 0.614502 (Simulation time: 0 hr 57 min 36 sec) 
Heartbeat CPU 0 instructions: 79000001 cycles: 77443320 heartbeat IPC: 0.778872 cumulative IPC: 0.619007 (Simulation time: 0 hr 58 min 20 sec) 
Heartbeat CPU 0 instructions: 80000000 cycles: 78720161 heartbeat IPC: 0.783182 cumulative IPC: 0.623363 (Simulation time: 0 hr 59 min 6 sec) 
Heartbeat CPU 0 instructions: 81000000 cycles: 79965763 heartbeat IPC: 0.802825 cumulative IPC: 0.62789 (Simulation time: 0 hr 59 min 52 sec) 
Heartbeat CPU 0 instructions: 82000003 cycles: 81252233 heartbeat IPC: 0.777323 cumulative IPC: 0.631685 (Simulation time: 1 hr 0 min 36 sec) 
Heartbeat CPU 0 instructions: 83000001 cycles: 82507066 heartbeat IPC: 0.796917 cumulative IPC: 0.635679 (Simulation time: 1 hr 1 min 21 sec) 
Heartbeat CPU 0 instructions: 84000000 cycles: 83788371 heartbeat IPC: 0.780454 cumulative IPC: 0.639166 (Simulation time: 1 hr 2 min 6 sec) 
Heartbeat CPU 0 instructions: 85000001 cycles: 85040176 heartbeat IPC: 0.798847 cumulative IPC: 0.642838 (Simulation time: 1 hr 2 min 51 sec) 
Heartbeat CPU 0 instructions: 86000003 cycles: 86313862 heartbeat IPC: 0.785124 cumulative IPC: 0.64609 (Simulation time: 1 hr 3 min 34 sec) 
Heartbeat CPU 0 instructions: 87000001 cycles: 87563631 heartbeat IPC: 0.800146 cumulative IPC: 0.64947 (Simulation time: 1 hr 4 min 18 sec) 
Heartbeat CPU 0 instructions: 88000000 cycles: 88820568 heartbeat IPC: 0.795584 cumulative IPC: 0.652624 (Simulation time: 1 hr 5 min 4 sec) 
Heartbeat CPU 0 instructions: 89000001 cycles: 90098235 heartbeat IPC: 0.782677 cumulative IPC: 0.655416 (Simulation time: 1 hr 5 min 49 sec) 
Heartbeat CPU 0 instructions: 90000002 cycles: 91354670 heartbeat IPC: 0.795904 cumulative IPC: 0.658321 (Simulation time: 1 hr 6 min 35 sec) 
Heartbeat CPU 0 instructions: 91000000 cycles: 92636193 heartbeat IPC: 0.78032 cumulative IPC: 0.660841 (Simulation time: 1 hr 7 min 22 sec) 
Heartbeat CPU 0 instructions: 92000000 cycles: 93883705 heartbeat IPC: 0.801596 cumulative IPC: 0.663616 (Simulation time: 1 hr 8 min 7 sec) 
Heartbeat CPU 0 instructions: 93000002 cycles: 95178953 heartbeat IPC: 0.772054 cumulative IPC: 0.665791 (Simulation time: 1 hr 8 min 53 sec) 
Heartbeat CPU 0 instructions: 94000000 cycles: 96420634 heartbeat IPC: 0.805358 cumulative IPC: 0.668423 (Simulation time: 1 hr 9 min 37 sec) 
Heartbeat CPU 0 instructions: 95000003 cycles: 97673715 heartbeat IPC: 0.798035 cumulative IPC: 0.670844 (Simulation time: 1 hr 10 min 22 sec) 
Heartbeat CPU 0 instructions: 96000000 cycles: 98961912 heartbeat IPC: 0.776276 cumulative IPC: 0.672831 (Simulation time: 1 hr 11 min 7 sec) 
Heartbeat CPU 0 instructions: 97000001 cycles: 100208097 heartbeat IPC: 0.80245 cumulative IPC: 0.675151 (Simulation time: 1 hr 11 min 55 sec) 
Heartbeat CPU 0 instructions: 98000002 cycles: 101512847 heartbeat IPC: 0.766431 cumulative IPC: 0.676831 (Simulation time: 1 hr 12 min 39 sec) 
Heartbeat CPU 0 instructions: 99000000 cycles: 102765239 heartbeat IPC: 0.79847 cumulative IPC: 0.678941 (Simulation time: 1 hr 13 min 25 sec) 
Heartbeat CPU 0 instructions: 100000000 cycles: 104070041 heartbeat IPC: 0.7664 cumulative IPC: 0.680495 (Simulation time: 1 hr 14 min 10 sec) 
Heartbeat CPU 0 instructions: 101000000 cycles: 105329022 heartbeat IPC: 0.794293 cumulative IPC: 0.682412 (Simulation time: 1 hr 14 min 57 sec) 
Heartbeat CPU 0 instructions: 102000001 cycles: 106587542 heartbeat IPC: 0.794585 cumulative IPC: 0.684269 (Simulation time: 1 hr 15 min 41 sec) 
Heartbeat CPU 0 instructions: 103000002 cycles: 107895338 heartbeat IPC: 0.764646 cumulative IPC: 0.685629 (Simulation time: 1 hr 16 min 27 sec) 
Heartbeat CPU 0 instructions: 104000000 cycles: 109143455 heartbeat IPC: 0.801205 cumulative IPC: 0.687466 (Simulation time: 1 hr 17 min 12 sec) 
Heartbeat CPU 0 instructions: 105000001 cycles: 110448080 heartbeat IPC: 0.766505 cumulative IPC: 0.688757 (Simulation time: 1 hr 17 min 55 sec) 
Heartbeat CPU 0 instructions: 106000002 cycles: 111693925 heartbeat IPC: 0.802669 cumulative IPC: 0.690507 (Simulation time: 1 hr 18 min 37 sec) 
Heartbeat CPU 0 instructions: 107000000 cycles: 112986947 heartbeat IPC: 0.773381 cumulative IPC: 0.691807 (Simulation time: 1 hr 19 min 23 sec) 
Heartbeat CPU 0 instructions: 108000000 cycles: 114243855 heartbeat IPC: 0.795603 cumulative IPC: 0.693367 (Simulation time: 1 hr 20 min 3 sec) 
Heartbeat CPU 0 instructions: 109000003 cycles: 115492621 heartbeat IPC: 0.800793 cumulative IPC: 0.694947 (Simulation time: 1 hr 20 min 43 sec) 
Heartbeat CPU 0 instructions: 110000001 cycles: 116782732 heartbeat IPC: 0.775126 cumulative IPC: 0.696147 (Simulation time: 1 hr 21 min 25 sec) 
Heartbeat CPU 0 instructions: 111000001 cycles: 118019320 heartbeat IPC: 0.808677 cumulative IPC: 0.697739 (Simulation time: 1 hr 22 min 4 sec) 
Heartbeat CPU 0 instructions: 112000000 cycles: 119353959 heartbeat IPC: 0.749266 cumulative IPC: 0.698514 (Simulation time: 1 hr 22 min 44 sec) 
Heartbeat CPU 0 instructions: 113000000 cycles: 121096146 heartbeat IPC: 0.573991 cumulative IPC: 0.696117 (Simulation time: 1 hr 23 min 28 sec) 
Heartbeat CPU 0 instructions: 114000000 cycles: 122737519 heartbeat IPC: 0.609246 cumulative IPC: 0.694569 (Simulation time: 1 hr 24 min 5 sec) 
Heartbeat CPU 0 instructions: 115000000 cycles: 124354430 heartbeat IPC: 0.618463 cumulative IPC: 0.693257 (Simulation time: 1 hr 24 min 42 sec) 
Heartbeat CPU 0 instructions: 116000000 cycles: 125964864 heartbeat IPC: 0.620951 cumulative IPC: 0.692036 (Simulation time: 1 hr 25 min 16 sec) 
Heartbeat CPU 0 instructions: 117000002 cycles: 127593124 heartbeat IPC: 0.614154 cumulative IPC: 0.690728 (Simulation time: 1 hr 25 min 53 sec) 
Heartbeat CPU 0 instructions: 118000000 cycles: 129219223 heartbeat IPC: 0.614967 cumulative IPC: 0.689479 (Simulation time: 1 hr 26 min 29 sec) 
Heartbeat CPU 0 instructions: 119000001 cycles: 130856595 heartbeat IPC: 0.610735 cumulative IPC: 0.688193 (Simulation time: 1 hr 27 min 1 sec) 
Heartbeat CPU 0 instructions: 120000000 cycles: 132532116 heartbeat IPC: 0.596829 cumulative IPC: 0.686692 (Simulation time: 1 hr 27 min 32 sec) 
Heartbeat CPU 0 instructions: 121000002 cycles: 134191979 heartbeat IPC: 0.602461 cumulative IPC: 0.685342 (Simulation time: 1 hr 28 min 3 sec) 
Heartbeat CPU 0 instructions: 122000000 cycles: 135877369 heartbeat IPC: 0.593333 cumulative IPC: 0.683869 (Simulation time: 1 hr 28 min 32 sec) 
Heartbeat CPU 0 instructions: 123000002 cycles: 137530574 heartbeat IPC: 0.604887 cumulative IPC: 0.682648 (Simulation time: 1 hr 29 min 3 sec) 
Heartbeat CPU 0 instructions: 124000000 cycles: 139188885 heartbeat IPC: 0.603022 cumulative IPC: 0.681432 (Simulation time: 1 hr 29 min 30 sec) 
Heartbeat CPU 0 instructions: 125000003 cycles: 140853160 heartbeat IPC: 0.600864 cumulative IPC: 0.680216 (Simulation time: 1 hr 29 min 55 sec) 
Heartbeat CPU 0 instructions: 126000000 cycles: 142499203 heartbeat IPC: 0.607516 cumulative IPC: 0.679147 (Simulation time: 1 hr 30 min 21 sec) 
Heartbeat CPU 0 instructions: 127000001 cycles: 144201009 heartbeat IPC: 0.587612 cumulative IPC: 0.677776 (Simulation time: 1 hr 30 min 47 sec) 
Heartbeat CPU 0 instructions: 128000000 cycles: 145858344 heartbeat IPC: 0.603378 cumulative IPC: 0.676706 (Simulation time: 1 hr 31 min 12 sec) 
Heartbeat CPU 0 instructions: 129000001 cycles: 147506432 heartbeat IPC: 0.606764 cumulative IPC: 0.67572 (Simulation time: 1 hr 31 min 36 sec) 
Heartbeat CPU 0 instructions: 130000003 cycles: 149195185 heartbeat IPC: 0.592154 cumulative IPC: 0.67453 (Simulation time: 1 hr 32 min 3 sec) 
Heartbeat CPU 0 instructions: 131000001 cycles: 154677357 heartbeat IPC: 0.182409 cumulative IPC: 0.652787 (Simulation time: 1 hr 32 min 51 sec) 
Heartbeat CPU 0 instructions: 132000000 cycles: 157590138 heartbeat IPC: 0.343314 cumulative IPC: 0.645689 (Simulation time: 1 hr 33 min 31 sec) 
Heartbeat CPU 0 instructions: 133000002 cycles: 160145665 heartbeat IPC: 0.391309 cumulative IPC: 0.640671 (Simulation time: 1 hr 34 min 6 sec) 
Heartbeat CPU 0 instructions: 134000000 cycles: 161495174 heartbeat IPC: 0.741009 cumulative IPC: 0.641706 (Simulation time: 1 hr 34 min 25 sec) 
Heartbeat CPU 0 instructions: 135000001 cycles: 162756636 heartbeat IPC: 0.792732 cumulative IPC: 0.643147 (Simulation time: 1 hr 34 min 43 sec) 
Heartbeat CPU 0 instructions: 136000000 cycles: 164017632 heartbeat IPC: 0.793023 cumulative IPC: 0.644564 (Simulation time: 1 hr 35 min 4 sec) 
Heartbeat CPU 0 instructions: 137000001 cycles: 165460334 heartbeat IPC: 0.693145 cumulative IPC: 0.645083 (Simulation time: 1 hr 35 min 25 sec) 
Heartbeat CPU 0 instructions: 138000003 cycles: 167003989 heartbeat IPC: 0.647814 cumulative IPC: 0.645114 (Simulation time: 1 hr 35 min 45 sec) 
Heartbeat CPU 0 instructions: 139000001 cycles: 168507537 heartbeat IPC: 0.665092 cumulative IPC: 0.645332 (Simulation time: 1 hr 36 min 3 sec) 
Heartbeat CPU 0 instructions: 140000000 cycles: 170040408 heartbeat IPC: 0.65237 cumulative IPC: 0.64541 (Simulation time: 1 hr 36 min 21 sec) 
Heartbeat CPU 0 instructions: 141000003 cycles: 171569702 heartbeat IPC: 0.653898 cumulative IPC: 0.645502 (Simulation time: 1 hr 36 min 38 sec) 
Heartbeat CPU 0 instructions: 142000003 cycles: 173133222 heartbeat IPC: 0.639582 cumulative IPC: 0.645437 (Simulation time: 1 hr 36 min 55 sec) 
Heartbeat CPU 0 instructions: 143000000 cycles: 174651196 heartbeat IPC: 0.658771 cumulative IPC: 0.645577 (Simulation time: 1 hr 37 min 11 sec) 
Heartbeat CPU 0 instructions: 144000000 cycles: 176178610 heartbeat IPC: 0.654701 cumulative IPC: 0.645673 (Simulation time: 1 hr 37 min 28 sec) 
Heartbeat CPU 0 instructions: 145000001 cycles: 177738430 heartbeat IPC: 0.6411 cumulative IPC: 0.645625 (Simulation time: 1 hr 37 min 44 sec) 
Heartbeat CPU 0 instructions: 146000003 cycles: 179274308 heartbeat IPC: 0.651095 cumulative IPC: 0.645681 (Simulation time: 1 hr 37 min 59 sec) 
Heartbeat CPU 0 instructions: 147000001 cycles: 181344487 heartbeat IPC: 0.483049 cumulative IPC: 0.643448 (Simulation time: 1 hr 38 min 14 sec) 
Heartbeat CPU 0 instructions: 148000000 cycles: 183743736 heartbeat IPC: 0.416797 cumulative IPC: 0.639897 (Simulation time: 1 hr 38 min 31 sec) 
Heartbeat CPU 0 instructions: 149000003 cycles: 186135716 heartbeat IPC: 0.418065 cumulative IPC: 0.636486 (Simulation time: 1 hr 38 min 48 sec) 
Heartbeat CPU 0 instructions: 150000001 cycles: 188550921 heartbeat IPC: 0.414043 cumulative IPC: 0.633084 (Simulation time: 1 hr 39 min 4 sec) 
Finished CPU 0 instructions: 100000000 cycles: 157956846 cummulative IPC: 0.633084 (Simulation time: 1 hr 39 min 4 sec) 

ChampSim completed all CPUs

Region of Interest Statistics

CPU 0 cummulative IPC: 0.633084 instructions: 100000000 cycles: 157956846
LLC TOTAL     ACCESS:    4660420  HIT:    1303487  MISS:    3356933
LLC LOAD      ACCESS:     475213  HIT:     122057  MISS:     353156
LLC RFO       ACCESS:     797290  HIT:      90691  MISS:     706599
LLC PREFETCH  ACCESS:    2243487  HIT:     502580  MISS:    1740907
LLC WRITEBACK ACCESS:    1144430  HIT:     588159  MISS:     556271
OPTgen accesses: 7408
OPTgen hits: 3929
OPTgen hit rate: 53.0373


