
*** ChampSim Multicore Out-of-Order Simulator ***

Warmup Instructions: 50000000
Simulation Instructions: 100000000
Configuration: 2
Number of CPUs: 1
LLC sets: 2048
LLC ways: 16
Off-chip DRAM Channels: 1 Width: 64-bit Data Rate: 1600 MT/s

CPU 0 runs /datasets/cs240c-wi22-a00-public/data/Assignment2-gz/astar_313B.trace.gz
CPU 0 L1D next line prefetcher
CPU 0 L2C IP-based stride prefetcher
Initialize Hawkeye state
Heartbeat CPU 0 instructions: 1000001 cycles: 675693 heartbeat IPC: 1.47996 cumulative IPC: 1.47996 (Simulation time: 0 hr 0 min 45 sec) 
Heartbeat CPU 0 instructions: 2000003 cycles: 1262928 heartbeat IPC: 1.7029 cumulative IPC: 1.58362 (Simulation time: 0 hr 1 min 30 sec) 
Heartbeat CPU 0 instructions: 3000003 cycles: 1937690 heartbeat IPC: 1.482 cumulative IPC: 1.54824 (Simulation time: 0 hr 2 min 19 sec) 
Heartbeat CPU 0 instructions: 4000000 cycles: 2611235 heartbeat IPC: 1.48468 cumulative IPC: 1.53184 (Simulation time: 0 hr 3 min 5 sec) 
Heartbeat CPU 0 instructions: 5000002 cycles: 3284296 heartbeat IPC: 1.48575 cumulative IPC: 1.5224 (Simulation time: 0 hr 3 min 53 sec) 
Heartbeat CPU 0 instructions: 6000001 cycles: 3870632 heartbeat IPC: 1.70551 cumulative IPC: 1.55013 (Simulation time: 0 hr 4 min 41 sec) 
Heartbeat CPU 0 instructions: 7000001 cycles: 4439291 heartbeat IPC: 1.75852 cumulative IPC: 1.57683 (Simulation time: 0 hr 5 min 26 sec) 
Heartbeat CPU 0 instructions: 8000000 cycles: 4991317 heartbeat IPC: 1.81151 cumulative IPC: 1.60278 (Simulation time: 0 hr 6 min 11 sec) 
Heartbeat CPU 0 instructions: 9000001 cycles: 5552887 heartbeat IPC: 1.78072 cumulative IPC: 1.62078 (Simulation time: 0 hr 6 min 58 sec) 
Heartbeat CPU 0 instructions: 10000002 cycles: 6227842 heartbeat IPC: 1.48158 cumulative IPC: 1.60569 (Simulation time: 0 hr 7 min 42 sec) 
Heartbeat CPU 0 instructions: 11000000 cycles: 6903412 heartbeat IPC: 1.48023 cumulative IPC: 1.59342 (Simulation time: 0 hr 8 min 24 sec) 
Heartbeat CPU 0 instructions: 12000000 cycles: 7572897 heartbeat IPC: 1.49369 cumulative IPC: 1.5846 (Simulation time: 0 hr 9 min 4 sec) 
Heartbeat CPU 0 instructions: 13000003 cycles: 8164935 heartbeat IPC: 1.68909 cumulative IPC: 1.59217 (Simulation time: 0 hr 9 min 50 sec) 
Heartbeat CPU 0 instructions: 14000002 cycles: 8837148 heartbeat IPC: 1.48762 cumulative IPC: 1.58422 (Simulation time: 0 hr 10 min 35 sec) 
Heartbeat CPU 0 instructions: 15000000 cycles: 9511699 heartbeat IPC: 1.48246 cumulative IPC: 1.57701 (Simulation time: 0 hr 11 min 15 sec) 
Heartbeat CPU 0 instructions: 16000000 cycles: 10185763 heartbeat IPC: 1.48354 cumulative IPC: 1.57082 (Simulation time: 0 hr 12 min 6 sec) 
Heartbeat CPU 0 instructions: 17000001 cycles: 10859359 heartbeat IPC: 1.48457 cumulative IPC: 1.56547 (Simulation time: 0 hr 12 min 53 sec) 
Heartbeat CPU 0 instructions: 18000000 cycles: 11444833 heartbeat IPC: 1.70802 cumulative IPC: 1.57276 (Simulation time: 0 hr 13 min 42 sec) 
Heartbeat CPU 0 instructions: 19000000 cycles: 12119416 heartbeat IPC: 1.4824 cumulative IPC: 1.56773 (Simulation time: 0 hr 14 min 34 sec) 
Heartbeat CPU 0 instructions: 20000000 cycles: 12795093 heartbeat IPC: 1.48 cumulative IPC: 1.5631 (Simulation time: 0 hr 15 min 21 sec) 
Heartbeat CPU 0 instructions: 21000001 cycles: 13423131 heartbeat IPC: 1.59226 cumulative IPC: 1.56446 (Simulation time: 0 hr 16 min 5 sec) 
Heartbeat CPU 0 instructions: 22000001 cycles: 14057662 heartbeat IPC: 1.57597 cumulative IPC: 1.56498 (Simulation time: 0 hr 16 min 53 sec) 
Heartbeat CPU 0 instructions: 23000001 cycles: 14731154 heartbeat IPC: 1.4848 cumulative IPC: 1.56132 (Simulation time: 0 hr 17 min 41 sec) 
Heartbeat CPU 0 instructions: 24000000 cycles: 15387550 heartbeat IPC: 1.52347 cumulative IPC: 1.5597 (Simulation time: 0 hr 18 min 31 sec) 
Heartbeat CPU 0 instructions: 25000001 cycles: 15992995 heartbeat IPC: 1.65168 cumulative IPC: 1.56318 (Simulation time: 0 hr 19 min 17 sec) 
Heartbeat CPU 0 instructions: 26000002 cycles: 16669038 heartbeat IPC: 1.4792 cumulative IPC: 1.55978 (Simulation time: 0 hr 20 min 6 sec) 
Heartbeat CPU 0 instructions: 27000002 cycles: 17259509 heartbeat IPC: 1.69356 cumulative IPC: 1.56436 (Simulation time: 0 hr 20 min 51 sec) 
Heartbeat CPU 0 instructions: 28000000 cycles: 17933054 heartbeat IPC: 1.48468 cumulative IPC: 1.56136 (Simulation time: 0 hr 21 min 42 sec) 
Heartbeat CPU 0 instructions: 29000001 cycles: 18521512 heartbeat IPC: 1.69936 cumulative IPC: 1.56575 (Simulation time: 0 hr 22 min 27 sec) 
Heartbeat CPU 0 instructions: 30000002 cycles: 19196030 heartbeat IPC: 1.48254 cumulative IPC: 1.56282 (Simulation time: 0 hr 23 min 14 sec) 
Heartbeat CPU 0 instructions: 31000002 cycles: 19871558 heartbeat IPC: 1.48032 cumulative IPC: 1.56002 (Simulation time: 0 hr 24 min 3 sec) 
Heartbeat CPU 0 instructions: 32000000 cycles: 20546575 heartbeat IPC: 1.48144 cumulative IPC: 1.55744 (Simulation time: 0 hr 24 min 48 sec) 
Heartbeat CPU 0 instructions: 33000003 cycles: 21221515 heartbeat IPC: 1.48162 cumulative IPC: 1.55503 (Simulation time: 0 hr 25 min 34 sec) 
Heartbeat CPU 0 instructions: 34000000 cycles: 21807443 heartbeat IPC: 1.70669 cumulative IPC: 1.5591 (Simulation time: 0 hr 26 min 21 sec) 
Heartbeat CPU 0 instructions: 35000000 cycles: 22480729 heartbeat IPC: 1.48525 cumulative IPC: 1.55689 (Simulation time: 0 hr 27 min 10 sec) 
Heartbeat CPU 0 instructions: 36000000 cycles: 23155410 heartbeat IPC: 1.48218 cumulative IPC: 1.55471 (Simulation time: 0 hr 27 min 58 sec) 
Heartbeat CPU 0 instructions: 37000002 cycles: 23743530 heartbeat IPC: 1.70034 cumulative IPC: 1.55832 (Simulation time: 0 hr 28 min 44 sec) 
Heartbeat CPU 0 instructions: 38000000 cycles: 24415871 heartbeat IPC: 1.48734 cumulative IPC: 1.55636 (Simulation time: 0 hr 29 min 31 sec) 
Heartbeat CPU 0 instructions: 39000003 cycles: 25004213 heartbeat IPC: 1.6997 cumulative IPC: 1.55974 (Simulation time: 0 hr 30 min 17 sec) 
Heartbeat CPU 0 instructions: 40000000 cycles: 25592754 heartbeat IPC: 1.69911 cumulative IPC: 1.56294 (Simulation time: 0 hr 31 min 3 sec) 
Heartbeat CPU 0 instructions: 41000001 cycles: 26266807 heartbeat IPC: 1.48356 cumulative IPC: 1.56091 (Simulation time: 0 hr 31 min 51 sec) 
Heartbeat CPU 0 instructions: 42000003 cycles: 26943856 heartbeat IPC: 1.477 cumulative IPC: 1.5588 (Simulation time: 0 hr 32 min 38 sec) 
Heartbeat CPU 0 instructions: 43000003 cycles: 27537193 heartbeat IPC: 1.68538 cumulative IPC: 1.56152 (Simulation time: 0 hr 33 min 25 sec) 
Heartbeat CPU 0 instructions: 44000000 cycles: 28205808 heartbeat IPC: 1.49562 cumulative IPC: 1.55996 (Simulation time: 0 hr 34 min 12 sec) 
Heartbeat CPU 0 instructions: 45000002 cycles: 28878314 heartbeat IPC: 1.48698 cumulative IPC: 1.55826 (Simulation time: 0 hr 35 min 0 sec) 
Heartbeat CPU 0 instructions: 46000002 cycles: 29551068 heartbeat IPC: 1.48643 cumulative IPC: 1.55663 (Simulation time: 0 hr 35 min 45 sec) 
Heartbeat CPU 0 instructions: 47000002 cycles: 30220957 heartbeat IPC: 1.49278 cumulative IPC: 1.55521 (Simulation time: 0 hr 36 min 30 sec) 
Heartbeat CPU 0 instructions: 48000000 cycles: 30809129 heartbeat IPC: 1.70018 cumulative IPC: 1.55798 (Simulation time: 0 hr 37 min 15 sec) 
Heartbeat CPU 0 instructions: 49000000 cycles: 31480843 heartbeat IPC: 1.48873 cumulative IPC: 1.5565 (Simulation time: 0 hr 37 min 59 sec) 
Heartbeat CPU 0 instructions: 50000000 cycles: 32153435 heartbeat IPC: 1.48679 cumulative IPC: 1.55504 (Simulation time: 0 hr 38 min 45 sec) 

Warmup complete CPU 0 instructions: 50000001 cycles: 32153436 (Simulation time: 0 hr 38 min 45 sec) 

Heartbeat CPU 0 instructions: 51000000 cycles: 38788086 heartbeat IPC: 0.150724 cumulative IPC: 0.150724 (Simulation time: 0 hr 39 min 34 sec) 
Heartbeat CPU 0 instructions: 52000000 cycles: 47455018 heartbeat IPC: 0.115381 cumulative IPC: 0.130705 (Simulation time: 0 hr 40 min 34 sec) 
Heartbeat CPU 0 instructions: 53000000 cycles: 54421073 heartbeat IPC: 0.143553 cumulative IPC: 0.134725 (Simulation time: 0 hr 41 min 27 sec) 
Heartbeat CPU 0 instructions: 54000001 cycles: 62287315 heartbeat IPC: 0.127126 cumulative IPC: 0.132741 (Simulation time: 0 hr 42 min 18 sec) 
Heartbeat CPU 0 instructions: 55000001 cycles: 70557279 heartbeat IPC: 0.12092 cumulative IPC: 0.130195 (Simulation time: 0 hr 43 min 12 sec) 
Heartbeat CPU 0 instructions: 56000000 cycles: 80483230 heartbeat IPC: 0.100746 cumulative IPC: 0.124147 (Simulation time: 0 hr 44 min 12 sec) 
Heartbeat CPU 0 instructions: 57000000 cycles: 86853683 heartbeat IPC: 0.156975 cumulative IPC: 0.12797 (Simulation time: 0 hr 45 min 3 sec) 
Heartbeat CPU 0 instructions: 58000001 cycles: 93694257 heartbeat IPC: 0.146187 cumulative IPC: 0.129995 (Simulation time: 0 hr 45 min 53 sec) 
Heartbeat CPU 0 instructions: 59000002 cycles: 102378384 heartbeat IPC: 0.115153 cumulative IPC: 0.12816 (Simulation time: 0 hr 46 min 49 sec) 
Heartbeat CPU 0 instructions: 60000000 cycles: 110012606 heartbeat IPC: 0.130989 cumulative IPC: 0.128437 (Simulation time: 0 hr 47 min 45 sec) 
Heartbeat CPU 0 instructions: 61000001 cycles: 116773558 heartbeat IPC: 0.147908 cumulative IPC: 0.129993 (Simulation time: 0 hr 48 min 38 sec) 
Heartbeat CPU 0 instructions: 62000001 cycles: 123816699 heartbeat IPC: 0.141982 cumulative IPC: 0.130914 (Simulation time: 0 hr 49 min 32 sec) 
Heartbeat CPU 0 instructions: 63000000 cycles: 131029745 heartbeat IPC: 0.138638 cumulative IPC: 0.131477 (Simulation time: 0 hr 50 min 24 sec) 
Heartbeat CPU 0 instructions: 64000000 cycles: 139954484 heartbeat IPC: 0.112048 cumulative IPC: 0.129869 (Simulation time: 0 hr 51 min 19 sec) 
Heartbeat CPU 0 instructions: 65000000 cycles: 146205079 heartbeat IPC: 0.159985 cumulative IPC: 0.131519 (Simulation time: 0 hr 52 min 12 sec) 
Heartbeat CPU 0 instructions: 66000001 cycles: 152299385 heartbeat IPC: 0.164088 cumulative IPC: 0.133171 (Simulation time: 0 hr 53 min 3 sec) 
Heartbeat CPU 0 instructions: 67000000 cycles: 158794977 heartbeat IPC: 0.15395 cumulative IPC: 0.134237 (Simulation time: 0 hr 53 min 53 sec) 
Heartbeat CPU 0 instructions: 68000000 cycles: 165451686 heartbeat IPC: 0.150224 cumulative IPC: 0.135036 (Simulation time: 0 hr 54 min 47 sec) 
Heartbeat CPU 0 instructions: 69000000 cycles: 176745383 heartbeat IPC: 0.088545 cumulative IPC: 0.131404 (Simulation time: 0 hr 55 min 52 sec) 
Heartbeat CPU 0 instructions: 70000000 cycles: 182838652 heartbeat IPC: 0.164116 cumulative IPC: 0.132727 (Simulation time: 0 hr 56 min 42 sec) 
Heartbeat CPU 0 instructions: 71000002 cycles: 189534684 heartbeat IPC: 0.149342 cumulative IPC: 0.133434 (Simulation time: 0 hr 57 min 32 sec) 
Heartbeat CPU 0 instructions: 72000000 cycles: 196763758 heartbeat IPC: 0.13833 cumulative IPC: 0.133649 (Simulation time: 0 hr 58 min 22 sec) 
Heartbeat CPU 0 instructions: 73000003 cycles: 204261006 heartbeat IPC: 0.133383 cumulative IPC: 0.133637 (Simulation time: 0 hr 59 min 14 sec) 
Heartbeat CPU 0 instructions: 74000001 cycles: 213461337 heartbeat IPC: 0.108692 cumulative IPC: 0.132372 (Simulation time: 1 hr 0 min 10 sec) 
Heartbeat CPU 0 instructions: 75000000 cycles: 220645630 heartbeat IPC: 0.139192 cumulative IPC: 0.132631 (Simulation time: 1 hr 1 min 5 sec) 
Heartbeat CPU 0 instructions: 76000000 cycles: 227030617 heartbeat IPC: 0.156617 cumulative IPC: 0.133417 (Simulation time: 1 hr 1 min 57 sec) 
Heartbeat CPU 0 instructions: 77000000 cycles: 233608640 heartbeat IPC: 0.152021 cumulative IPC: 0.134025 (Simulation time: 1 hr 2 min 46 sec) 
Heartbeat CPU 0 instructions: 78000001 cycles: 240036699 heartbeat IPC: 0.155568 cumulative IPC: 0.134691 (Simulation time: 1 hr 3 min 37 sec) 
Heartbeat CPU 0 instructions: 79000000 cycles: 249189664 heartbeat IPC: 0.109254 cumulative IPC: 0.133618 (Simulation time: 1 hr 4 min 39 sec) 
Heartbeat CPU 0 instructions: 80000000 cycles: 255742364 heartbeat IPC: 0.152609 cumulative IPC: 0.134175 (Simulation time: 1 hr 5 min 28 sec) 
Heartbeat CPU 0 instructions: 81000003 cycles: 263683792 heartbeat IPC: 0.125922 cumulative IPC: 0.133892 (Simulation time: 1 hr 6 min 23 sec) 
Heartbeat CPU 0 instructions: 82000001 cycles: 271354414 heartbeat IPC: 0.130367 cumulative IPC: 0.133779 (Simulation time: 1 hr 7 min 20 sec) 
Heartbeat CPU 0 instructions: 83000002 cycles: 277480919 heartbeat IPC: 0.163225 cumulative IPC: 0.134514 (Simulation time: 1 hr 8 min 12 sec) 
Heartbeat CPU 0 instructions: 84000000 cycles: 283579487 heartbeat IPC: 0.163973 cumulative IPC: 0.135229 (Simulation time: 1 hr 9 min 2 sec) 
Heartbeat CPU 0 instructions: 85000000 cycles: 290421529 heartbeat IPC: 0.146155 cumulative IPC: 0.135518 (Simulation time: 1 hr 9 min 52 sec) 
Heartbeat CPU 0 instructions: 86000001 cycles: 298840996 heartbeat IPC: 0.118772 cumulative IPC: 0.134989 (Simulation time: 1 hr 10 min 51 sec) 
Heartbeat CPU 0 instructions: 87000000 cycles: 304553670 heartbeat IPC: 0.175049 cumulative IPC: 0.13583 (Simulation time: 1 hr 11 min 40 sec) 
Heartbeat CPU 0 instructions: 88000000 cycles: 310884077 heartbeat IPC: 0.157968 cumulative IPC: 0.136332 (Simulation time: 1 hr 12 min 35 sec) 
Heartbeat CPU 0 instructions: 89000002 cycles: 317635233 heartbeat IPC: 0.148123 cumulative IPC: 0.136611 (Simulation time: 1 hr 13 min 29 sec) 
Heartbeat CPU 0 instructions: 90000002 cycles: 324272691 heartbeat IPC: 0.15066 cumulative IPC: 0.13693 (Simulation time: 1 hr 14 min 22 sec) 
Heartbeat CPU 0 instructions: 91000001 cycles: 333280011 heartbeat IPC: 0.111021 cumulative IPC: 0.136155 (Simulation time: 1 hr 15 min 24 sec) 
Heartbeat CPU 0 instructions: 92000000 cycles: 340176262 heartbeat IPC: 0.145006 cumulative IPC: 0.136354 (Simulation time: 1 hr 16 min 15 sec) 
Heartbeat CPU 0 instructions: 93000003 cycles: 347788874 heartbeat IPC: 0.131361 cumulative IPC: 0.136233 (Simulation time: 1 hr 17 min 8 sec) 
Heartbeat CPU 0 instructions: 94000000 cycles: 355726979 heartbeat IPC: 0.125974 cumulative IPC: 0.135981 (Simulation time: 1 hr 17 min 57 sec) 
Heartbeat CPU 0 instructions: 95000000 cycles: 362445031 heartbeat IPC: 0.148853 cumulative IPC: 0.136243 (Simulation time: 1 hr 18 min 45 sec) 
Heartbeat CPU 0 instructions: 96000000 cycles: 371467938 heartbeat IPC: 0.110829 cumulative IPC: 0.135567 (Simulation time: 1 hr 19 min 39 sec) 
Heartbeat CPU 0 instructions: 97000000 cycles: 378271025 heartbeat IPC: 0.146992 cumulative IPC: 0.135792 (Simulation time: 1 hr 20 min 26 sec) 
Heartbeat CPU 0 instructions: 98000003 cycles: 385822393 heartbeat IPC: 0.132427 cumulative IPC: 0.13572 (Simulation time: 1 hr 21 min 16 sec) 
Heartbeat CPU 0 instructions: 99000001 cycles: 393782206 heartbeat IPC: 0.125631 cumulative IPC: 0.135498 (Simulation time: 1 hr 22 min 5 sec) 
Heartbeat CPU 0 instructions: 100000000 cycles: 401201946 heartbeat IPC: 0.134775 cumulative IPC: 0.135484 (Simulation time: 1 hr 22 min 50 sec) 
Heartbeat CPU 0 instructions: 101000000 cycles: 410401889 heartbeat IPC: 0.108696 cumulative IPC: 0.134832 (Simulation time: 1 hr 23 min 45 sec) 
Heartbeat CPU 0 instructions: 102000001 cycles: 416740346 heartbeat IPC: 0.157767 cumulative IPC: 0.13521 (Simulation time: 1 hr 24 min 30 sec) 
Heartbeat CPU 0 instructions: 103000001 cycles: 423282765 heartbeat IPC: 0.152849 cumulative IPC: 0.135505 (Simulation time: 1 hr 25 min 9 sec) 
Heartbeat CPU 0 instructions: 104000000 cycles: 429419837 heartbeat IPC: 0.162944 cumulative IPC: 0.135929 (Simulation time: 1 hr 25 min 46 sec) 
Heartbeat CPU 0 instructions: 105000001 cycles: 435276239 heartbeat IPC: 0.170753 cumulative IPC: 0.136435 (Simulation time: 1 hr 26 min 27 sec) 
Heartbeat CPU 0 instructions: 106000000 cycles: 444118956 heartbeat IPC: 0.113087 cumulative IPC: 0.135934 (Simulation time: 1 hr 27 min 8 sec) 
Heartbeat CPU 0 instructions: 107000002 cycles: 450788702 heartbeat IPC: 0.149931 cumulative IPC: 0.136157 (Simulation time: 1 hr 27 min 41 sec) 
Heartbeat CPU 0 instructions: 108000000 cycles: 460220181 heartbeat IPC: 0.106028 cumulative IPC: 0.135493 (Simulation time: 1 hr 28 min 16 sec) 
Heartbeat CPU 0 instructions: 109000003 cycles: 465986434 heartbeat IPC: 0.173423 cumulative IPC: 0.135997 (Simulation time: 1 hr 28 min 47 sec) 
Heartbeat CPU 0 instructions: 110000003 cycles: 471976919 heartbeat IPC: 0.166931 cumulative IPC: 0.136418 (Simulation time: 1 hr 29 min 17 sec) 
Heartbeat CPU 0 instructions: 111000001 cycles: 478356949 heartbeat IPC: 0.156739 cumulative IPC: 0.136709 (Simulation time: 1 hr 29 min 46 sec) 
Heartbeat CPU 0 instructions: 112000000 cycles: 486695928 heartbeat IPC: 0.119919 cumulative IPC: 0.136401 (Simulation time: 1 hr 30 min 17 sec) 
Heartbeat CPU 0 instructions: 113000000 cycles: 493817591 heartbeat IPC: 0.140417 cumulative IPC: 0.136463 (Simulation time: 1 hr 30 min 51 sec) 
Heartbeat CPU 0 instructions: 114000001 cycles: 501340867 heartbeat IPC: 0.132921 cumulative IPC: 0.136406 (Simulation time: 1 hr 31 min 18 sec) 
Heartbeat CPU 0 instructions: 115000001 cycles: 509468196 heartbeat IPC: 0.123042 cumulative IPC: 0.136178 (Simulation time: 1 hr 31 min 50 sec) 
Heartbeat CPU 0 instructions: 116000000 cycles: 515570567 heartbeat IPC: 0.163871 cumulative IPC: 0.136528 (Simulation time: 1 hr 32 min 21 sec) 
Heartbeat CPU 0 instructions: 117000001 cycles: 522293530 heartbeat IPC: 0.148744 cumulative IPC: 0.136696 (Simulation time: 1 hr 32 min 47 sec) 
Heartbeat CPU 0 instructions: 118000003 cycles: 531095742 heartbeat IPC: 0.113608 cumulative IPC: 0.136288 (Simulation time: 1 hr 33 min 15 sec) 
Heartbeat CPU 0 instructions: 119000000 cycles: 537151824 heartbeat IPC: 0.165123 cumulative IPC: 0.136634 (Simulation time: 1 hr 33 min 44 sec) 
Heartbeat CPU 0 instructions: 120000000 cycles: 543591753 heartbeat IPC: 0.155281 cumulative IPC: 0.136869 (Simulation time: 1 hr 34 min 10 sec) 
Heartbeat CPU 0 instructions: 121000001 cycles: 550353660 heartbeat IPC: 0.147887 cumulative IPC: 0.137013 (Simulation time: 1 hr 34 min 34 sec) 
Heartbeat CPU 0 instructions: 122000001 cycles: 557268778 heartbeat IPC: 0.144611 cumulative IPC: 0.137113 (Simulation time: 1 hr 34 min 59 sec) 
Heartbeat CPU 0 instructions: 123000001 cycles: 566492287 heartbeat IPC: 0.108419 cumulative IPC: 0.136617 (Simulation time: 1 hr 35 min 29 sec) 
Heartbeat CPU 0 instructions: 124000000 cycles: 573232018 heartbeat IPC: 0.148374 cumulative IPC: 0.136764 (Simulation time: 1 hr 35 min 52 sec) 
Heartbeat CPU 0 instructions: 125000000 cycles: 580303727 heartbeat IPC: 0.141409 cumulative IPC: 0.136824 (Simulation time: 1 hr 36 min 14 sec) 
Heartbeat CPU 0 instructions: 126000003 cycles: 587675150 heartbeat IPC: 0.135659 cumulative IPC: 0.136808 (Simulation time: 1 hr 36 min 36 sec) 
Heartbeat CPU 0 instructions: 127000003 cycles: 597377741 heartbeat IPC: 0.103065 cumulative IPC: 0.136229 (Simulation time: 1 hr 37 min 0 sec) 
Heartbeat CPU 0 instructions: 128000000 cycles: 603995649 heartbeat IPC: 0.151105 cumulative IPC: 0.136401 (Simulation time: 1 hr 37 min 20 sec) 
Heartbeat CPU 0 instructions: 129000001 cycles: 612846053 heartbeat IPC: 0.112989 cumulative IPC: 0.136044 (Simulation time: 1 hr 37 min 41 sec) 
Heartbeat CPU 0 instructions: 130000002 cycles: 619158053 heartbeat IPC: 0.158429 cumulative IPC: 0.136285 (Simulation time: 1 hr 37 min 57 sec) 
Heartbeat CPU 0 instructions: 131000003 cycles: 625375812 heartbeat IPC: 0.16083 cumulative IPC: 0.136542 (Simulation time: 1 hr 38 min 13 sec) 
Heartbeat CPU 0 instructions: 132000000 cycles: 636283040 heartbeat IPC: 0.091682 cumulative IPC: 0.135732 (Simulation time: 1 hr 38 min 30 sec) 
Heartbeat CPU 0 instructions: 133000000 cycles: 645126362 heartbeat IPC: 0.11308 cumulative IPC: 0.135406 (Simulation time: 1 hr 38 min 48 sec) 
Heartbeat CPU 0 instructions: 134000000 cycles: 651178272 heartbeat IPC: 0.165237 cumulative IPC: 0.135697 (Simulation time: 1 hr 39 min 4 sec) 
Heartbeat CPU 0 instructions: 135000002 cycles: 658556606 heartbeat IPC: 0.135532 cumulative IPC: 0.135695 (Simulation time: 1 hr 39 min 18 sec) 
Heartbeat CPU 0 instructions: 136000000 cycles: 667916435 heartbeat IPC: 0.106839 cumulative IPC: 0.135271 (Simulation time: 1 hr 39 min 32 sec) 
Heartbeat CPU 0 instructions: 137000001 cycles: 675931494 heartbeat IPC: 0.124765 cumulative IPC: 0.13514 (Simulation time: 1 hr 39 min 46 sec) 
Heartbeat CPU 0 instructions: 138000002 cycles: 682650859 heartbeat IPC: 0.148824 cumulative IPC: 0.135281 (Simulation time: 1 hr 39 min 58 sec) 
Heartbeat CPU 0 instructions: 139000001 cycles: 689538408 heartbeat IPC: 0.145189 cumulative IPC: 0.135385 (Simulation time: 1 hr 40 min 10 sec) 
Heartbeat CPU 0 instructions: 140000000 cycles: 698766719 heartbeat IPC: 0.108362 cumulative IPC: 0.135011 (Simulation time: 1 hr 40 min 24 sec) 
Heartbeat CPU 0 instructions: 141000001 cycles: 704863580 heartbeat IPC: 0.164019 cumulative IPC: 0.135274 (Simulation time: 1 hr 40 min 34 sec) 
Heartbeat CPU 0 instructions: 142000000 cycles: 710983562 heartbeat IPC: 0.163399 cumulative IPC: 0.135527 (Simulation time: 1 hr 40 min 44 sec) 
Heartbeat CPU 0 instructions: 143000001 cycles: 717492015 heartbeat IPC: 0.153646 cumulative IPC: 0.135699 (Simulation time: 1 hr 40 min 54 sec) 
Heartbeat CPU 0 instructions: 144000000 cycles: 726638780 heartbeat IPC: 0.109328 cumulative IPC: 0.135352 (Simulation time: 1 hr 41 min 7 sec) 
Heartbeat CPU 0 instructions: 145000000 cycles: 733238108 heartbeat IPC: 0.151531 cumulative IPC: 0.135504 (Simulation time: 1 hr 41 min 16 sec) 
Heartbeat CPU 0 instructions: 146000000 cycles: 739884259 heartbeat IPC: 0.150463 cumulative IPC: 0.135645 (Simulation time: 1 hr 41 min 26 sec) 
Heartbeat CPU 0 instructions: 147000000 cycles: 748755407 heartbeat IPC: 0.112725 cumulative IPC: 0.135361 (Simulation time: 1 hr 41 min 36 sec) 
Heartbeat CPU 0 instructions: 148000000 cycles: 754104378 heartbeat IPC: 0.186952 cumulative IPC: 0.135743 (Simulation time: 1 hr 41 min 46 sec) 
Heartbeat CPU 0 instructions: 149000000 cycles: 762659327 heartbeat IPC: 0.116891 cumulative IPC: 0.135523 (Simulation time: 1 hr 41 min 55 sec) 
Heartbeat CPU 0 instructions: 150000001 cycles: 768853203 heartbeat IPC: 0.16145 cumulative IPC: 0.135741 (Simulation time: 1 hr 42 min 3 sec) 
Finished CPU 0 instructions: 100000000 cycles: 736699767 cummulative IPC: 0.135741 (Simulation time: 1 hr 42 min 3 sec) 

ChampSim completed all CPUs

Region of Interest Statistics

CPU 0 cummulative IPC: 0.135741 instructions: 100000000 cycles: 736699767
LLC TOTAL     ACCESS:    9035574  HIT:    2526948  MISS:    6508626
LLC LOAD      ACCESS:    1898940  HIT:     474643  MISS:    1424297
LLC RFO       ACCESS:    1963556  HIT:     466492  MISS:    1497064
LLC PREFETCH  ACCESS:    2281967  HIT:     283076  MISS:    1998891
LLC WRITEBACK ACCESS:    2891111  HIT:    1302737  MISS:    1588374
OPTgen accesses: 21822
OPTgen hits: 11734
OPTgen hit rate: 53.7714


