
*** ChampSim Multicore Out-of-Order Simulator ***

Warmup Instructions: 50000000
Simulation Instructions: 100000000
Configuration: 2
Number of CPUs: 1
LLC sets: 2048
LLC ways: 16
Off-chip DRAM Channels: 1 Width: 64-bit Data Rate: 1600 MT/s

CPU 0 runs /datasets/cs240c-wi22-a00-public/data/Assignment2-gz/leslie3d_1116B.trace.gz
CPU 0 L1D next line prefetcher
CPU 0 L2C IP-based stride prefetcher
Initialize Hawkeye state
Heartbeat CPU 0 instructions: 1000003 cycles: 535311 heartbeat IPC: 1.86808 cumulative IPC: 1.86808 (Simulation time: 0 hr 0 min 32 sec) 
Heartbeat CPU 0 instructions: 2000003 cycles: 1071193 heartbeat IPC: 1.86608 cumulative IPC: 1.86708 (Simulation time: 0 hr 1 min 5 sec) 
Heartbeat CPU 0 instructions: 3000003 cycles: 1607887 heartbeat IPC: 1.86326 cumulative IPC: 1.8658 (Simulation time: 0 hr 1 min 38 sec) 
Heartbeat CPU 0 instructions: 4000000 cycles: 2143303 heartbeat IPC: 1.8677 cumulative IPC: 1.86628 (Simulation time: 0 hr 2 min 13 sec) 
Heartbeat CPU 0 instructions: 5000001 cycles: 2678433 heartbeat IPC: 1.86871 cumulative IPC: 1.86676 (Simulation time: 0 hr 2 min 46 sec) 
Heartbeat CPU 0 instructions: 6000001 cycles: 3213941 heartbeat IPC: 1.86739 cumulative IPC: 1.86687 (Simulation time: 0 hr 3 min 21 sec) 
Heartbeat CPU 0 instructions: 7000001 cycles: 3749958 heartbeat IPC: 1.86561 cumulative IPC: 1.86669 (Simulation time: 0 hr 3 min 55 sec) 
Heartbeat CPU 0 instructions: 8000000 cycles: 4285983 heartbeat IPC: 1.86558 cumulative IPC: 1.86655 (Simulation time: 0 hr 4 min 29 sec) 
Heartbeat CPU 0 instructions: 9000003 cycles: 4821121 heartbeat IPC: 1.86868 cumulative IPC: 1.86679 (Simulation time: 0 hr 5 min 3 sec) 
Heartbeat CPU 0 instructions: 10000002 cycles: 5356171 heartbeat IPC: 1.86898 cumulative IPC: 1.86701 (Simulation time: 0 hr 5 min 37 sec) 
Heartbeat CPU 0 instructions: 11000001 cycles: 5891944 heartbeat IPC: 1.86646 cumulative IPC: 1.86696 (Simulation time: 0 hr 6 min 17 sec) 
Heartbeat CPU 0 instructions: 12000000 cycles: 6428418 heartbeat IPC: 1.86402 cumulative IPC: 1.86671 (Simulation time: 0 hr 6 min 53 sec) 
Heartbeat CPU 0 instructions: 13000002 cycles: 6963711 heartbeat IPC: 1.86814 cumulative IPC: 1.86682 (Simulation time: 0 hr 7 min 26 sec) 
Heartbeat CPU 0 instructions: 14000003 cycles: 7498470 heartbeat IPC: 1.87 cumulative IPC: 1.86705 (Simulation time: 0 hr 7 min 57 sec) 
Heartbeat CPU 0 instructions: 15000002 cycles: 8033977 heartbeat IPC: 1.86739 cumulative IPC: 1.86707 (Simulation time: 0 hr 8 min 29 sec) 
Heartbeat CPU 0 instructions: 16000000 cycles: 8570107 heartbeat IPC: 1.86522 cumulative IPC: 1.86695 (Simulation time: 0 hr 9 min 2 sec) 
Heartbeat CPU 0 instructions: 17000003 cycles: 9106509 heartbeat IPC: 1.86428 cumulative IPC: 1.8668 (Simulation time: 0 hr 9 min 37 sec) 
Heartbeat CPU 0 instructions: 18000001 cycles: 9641557 heartbeat IPC: 1.86899 cumulative IPC: 1.86692 (Simulation time: 0 hr 10 min 12 sec) 
Heartbeat CPU 0 instructions: 19000001 cycles: 10177086 heartbeat IPC: 1.86731 cumulative IPC: 1.86694 (Simulation time: 0 hr 10 min 45 sec) 
Heartbeat CPU 0 instructions: 20000000 cycles: 10712565 heartbeat IPC: 1.86749 cumulative IPC: 1.86697 (Simulation time: 0 hr 11 min 17 sec) 
Heartbeat CPU 0 instructions: 21000000 cycles: 11249159 heartbeat IPC: 1.86361 cumulative IPC: 1.86681 (Simulation time: 0 hr 11 min 49 sec) 
Heartbeat CPU 0 instructions: 22000000 cycles: 11784340 heartbeat IPC: 1.86853 cumulative IPC: 1.86688 (Simulation time: 0 hr 12 min 27 sec) 
Heartbeat CPU 0 instructions: 23000003 cycles: 12319668 heartbeat IPC: 1.86802 cumulative IPC: 1.86693 (Simulation time: 0 hr 13 min 1 sec) 
Heartbeat CPU 0 instructions: 24000000 cycles: 12854820 heartbeat IPC: 1.86862 cumulative IPC: 1.867 (Simulation time: 0 hr 13 min 36 sec) 
Heartbeat CPU 0 instructions: 25000001 cycles: 13390903 heartbeat IPC: 1.86538 cumulative IPC: 1.86694 (Simulation time: 0 hr 14 min 10 sec) 
Heartbeat CPU 0 instructions: 26000002 cycles: 13927344 heartbeat IPC: 1.86414 cumulative IPC: 1.86683 (Simulation time: 0 hr 14 min 43 sec) 
Heartbeat CPU 0 instructions: 27000003 cycles: 14462307 heartbeat IPC: 1.86929 cumulative IPC: 1.86692 (Simulation time: 0 hr 15 min 16 sec) 
Heartbeat CPU 0 instructions: 28000000 cycles: 14997513 heartbeat IPC: 1.86843 cumulative IPC: 1.86698 (Simulation time: 0 hr 15 min 52 sec) 
Heartbeat CPU 0 instructions: 29000000 cycles: 15533083 heartbeat IPC: 1.86717 cumulative IPC: 1.86698 (Simulation time: 0 hr 16 min 28 sec) 
Heartbeat CPU 0 instructions: 30000002 cycles: 16070018 heartbeat IPC: 1.86243 cumulative IPC: 1.86683 (Simulation time: 0 hr 16 min 59 sec) 
Heartbeat CPU 0 instructions: 31000001 cycles: 16605390 heartbeat IPC: 1.86786 cumulative IPC: 1.86686 (Simulation time: 0 hr 17 min 32 sec) 
Heartbeat CPU 0 instructions: 32000000 cycles: 17140962 heartbeat IPC: 1.86716 cumulative IPC: 1.86687 (Simulation time: 0 hr 18 min 6 sec) 
Heartbeat CPU 0 instructions: 33000001 cycles: 17676297 heartbeat IPC: 1.86799 cumulative IPC: 1.86691 (Simulation time: 0 hr 18 min 42 sec) 
Heartbeat CPU 0 instructions: 34000000 cycles: 18212111 heartbeat IPC: 1.86632 cumulative IPC: 1.86689 (Simulation time: 0 hr 19 min 13 sec) 
Heartbeat CPU 0 instructions: 35000000 cycles: 18748290 heartbeat IPC: 1.86505 cumulative IPC: 1.86684 (Simulation time: 0 hr 19 min 44 sec) 
Heartbeat CPU 0 instructions: 36000000 cycles: 19282982 heartbeat IPC: 1.87024 cumulative IPC: 1.86693 (Simulation time: 0 hr 20 min 17 sec) 
Heartbeat CPU 0 instructions: 37000003 cycles: 19865350 heartbeat IPC: 1.71713 cumulative IPC: 1.86254 (Simulation time: 0 hr 20 min 54 sec) 
Heartbeat CPU 0 instructions: 38000003 cycles: 20283602 heartbeat IPC: 2.3909 cumulative IPC: 1.87343 (Simulation time: 0 hr 21 min 33 sec) 
Heartbeat CPU 0 instructions: 39000003 cycles: 20701764 heartbeat IPC: 2.39142 cumulative IPC: 1.8839 (Simulation time: 0 hr 22 min 8 sec) 
Heartbeat CPU 0 instructions: 40000000 cycles: 21120143 heartbeat IPC: 2.39017 cumulative IPC: 1.89393 (Simulation time: 0 hr 22 min 46 sec) 
Heartbeat CPU 0 instructions: 41000002 cycles: 21538307 heartbeat IPC: 2.39141 cumulative IPC: 1.90359 (Simulation time: 0 hr 23 min 15 sec) 
Heartbeat CPU 0 instructions: 42000001 cycles: 21956159 heartbeat IPC: 2.39319 cumulative IPC: 1.9129 (Simulation time: 0 hr 23 min 49 sec) 
Heartbeat CPU 0 instructions: 43000003 cycles: 22374188 heartbeat IPC: 2.39218 cumulative IPC: 1.92186 (Simulation time: 0 hr 24 min 23 sec) 
Heartbeat CPU 0 instructions: 44000000 cycles: 22792099 heartbeat IPC: 2.39285 cumulative IPC: 1.93049 (Simulation time: 0 hr 25 min 1 sec) 
Heartbeat CPU 0 instructions: 45000002 cycles: 23210228 heartbeat IPC: 2.39161 cumulative IPC: 1.9388 (Simulation time: 0 hr 25 min 32 sec) 
Heartbeat CPU 0 instructions: 46000002 cycles: 23628136 heartbeat IPC: 2.39287 cumulative IPC: 1.94683 (Simulation time: 0 hr 26 min 4 sec) 
Heartbeat CPU 0 instructions: 47000001 cycles: 24045820 heartbeat IPC: 2.39415 cumulative IPC: 1.9546 (Simulation time: 0 hr 26 min 35 sec) 
Heartbeat CPU 0 instructions: 48000000 cycles: 24463800 heartbeat IPC: 2.39246 cumulative IPC: 1.96208 (Simulation time: 0 hr 27 min 5 sec) 
Heartbeat CPU 0 instructions: 49000000 cycles: 24921041 heartbeat IPC: 2.18703 cumulative IPC: 1.96621 (Simulation time: 0 hr 27 min 41 sec) 
Heartbeat CPU 0 instructions: 50000000 cycles: 25408322 heartbeat IPC: 2.0522 cumulative IPC: 1.96786 (Simulation time: 0 hr 28 min 16 sec) 

Warmup complete CPU 0 instructions: 50000004 cycles: 25408324 (Simulation time: 0 hr 28 min 16 sec) 

Heartbeat CPU 0 instructions: 51000003 cycles: 27753089 heartbeat IPC: 0.426483 cumulative IPC: 0.426482 (Simulation time: 0 hr 28 min 58 sec) 
Heartbeat CPU 0 instructions: 52000000 cycles: 30144487 heartbeat IPC: 0.418164 cumulative IPC: 0.422282 (Simulation time: 0 hr 29 min 42 sec) 
Heartbeat CPU 0 instructions: 53000003 cycles: 32601854 heartbeat IPC: 0.406941 cumulative IPC: 0.417041 (Simulation time: 0 hr 30 min 31 sec) 
Heartbeat CPU 0 instructions: 54000000 cycles: 34962954 heartbeat IPC: 0.42353 cumulative IPC: 0.418645 (Simulation time: 0 hr 31 min 18 sec) 
Heartbeat CPU 0 instructions: 55000002 cycles: 37313849 heartbeat IPC: 0.425371 cumulative IPC: 0.419973 (Simulation time: 0 hr 32 min 9 sec) 
Heartbeat CPU 0 instructions: 56000000 cycles: 39685765 heartbeat IPC: 0.421599 cumulative IPC: 0.420243 (Simulation time: 0 hr 32 min 59 sec) 
Heartbeat CPU 0 instructions: 57000001 cycles: 42026824 heartbeat IPC: 0.427158 cumulative IPC: 0.421217 (Simulation time: 0 hr 33 min 47 sec) 
Heartbeat CPU 0 instructions: 58000001 cycles: 44274472 heartbeat IPC: 0.44491 cumulative IPC: 0.42404 (Simulation time: 0 hr 34 min 43 sec) 
Heartbeat CPU 0 instructions: 59000000 cycles: 45542248 heartbeat IPC: 0.788782 cumulative IPC: 0.447007 (Simulation time: 0 hr 35 min 26 sec) 
Heartbeat CPU 0 instructions: 60000000 cycles: 46833985 heartbeat IPC: 0.774151 cumulative IPC: 0.46673 (Simulation time: 0 hr 36 min 6 sec) 
Heartbeat CPU 0 instructions: 61000000 cycles: 48213110 heartbeat IPC: 0.725097 cumulative IPC: 0.482355 (Simulation time: 0 hr 36 min 46 sec) 
Heartbeat CPU 0 instructions: 62000002 cycles: 49531166 heartbeat IPC: 0.758695 cumulative IPC: 0.497454 (Simulation time: 0 hr 37 min 24 sec) 
Heartbeat CPU 0 instructions: 63000003 cycles: 50702616 heartbeat IPC: 0.853644 cumulative IPC: 0.51395 (Simulation time: 0 hr 38 min 3 sec) 
Heartbeat CPU 0 instructions: 64000000 cycles: 51903869 heartbeat IPC: 0.832462 cumulative IPC: 0.528391 (Simulation time: 0 hr 38 min 40 sec) 
Heartbeat CPU 0 instructions: 65000001 cycles: 53266663 heartbeat IPC: 0.733787 cumulative IPC: 0.538438 (Simulation time: 0 hr 39 min 17 sec) 
Heartbeat CPU 0 instructions: 66000000 cycles: 54482229 heartbeat IPC: 0.822661 cumulative IPC: 0.550322 (Simulation time: 0 hr 39 min 56 sec) 
Heartbeat CPU 0 instructions: 67000001 cycles: 55716634 heartbeat IPC: 0.810108 cumulative IPC: 0.560902 (Simulation time: 0 hr 40 min 34 sec) 
Heartbeat CPU 0 instructions: 68000000 cycles: 57094268 heartbeat IPC: 0.725881 cumulative IPC: 0.568075 (Simulation time: 0 hr 41 min 14 sec) 
Heartbeat CPU 0 instructions: 69000002 cycles: 58374145 heartbeat IPC: 0.781327 cumulative IPC: 0.576354 (Simulation time: 0 hr 41 min 55 sec) 
Heartbeat CPU 0 instructions: 70000000 cycles: 59573289 heartbeat IPC: 0.833927 cumulative IPC: 0.585395 (Simulation time: 0 hr 42 min 38 sec) 
Heartbeat CPU 0 instructions: 71000002 cycles: 60786766 heartbeat IPC: 0.82408 cumulative IPC: 0.593582 (Simulation time: 0 hr 43 min 19 sec) 
Heartbeat CPU 0 instructions: 72000000 cycles: 62196353 heartbeat IPC: 0.709426 cumulative IPC: 0.59802 (Simulation time: 0 hr 44 min 0 sec) 
Heartbeat CPU 0 instructions: 73000000 cycles: 63404627 heartbeat IPC: 0.827627 cumulative IPC: 0.605322 (Simulation time: 0 hr 44 min 41 sec) 
Heartbeat CPU 0 instructions: 74000000 cycles: 64604234 heartbeat IPC: 0.833606 cumulative IPC: 0.612309 (Simulation time: 0 hr 45 min 20 sec) 
Heartbeat CPU 0 instructions: 75000002 cycles: 66029886 heartbeat IPC: 0.701435 cumulative IPC: 0.615437 (Simulation time: 0 hr 45 min 58 sec) 
Heartbeat CPU 0 instructions: 76000000 cycles: 67234859 heartbeat IPC: 0.829892 cumulative IPC: 0.621615 (Simulation time: 0 hr 46 min 36 sec) 
Heartbeat CPU 0 instructions: 77000001 cycles: 68415514 heartbeat IPC: 0.846988 cumulative IPC: 0.627802 (Simulation time: 0 hr 47 min 18 sec) 
Heartbeat CPU 0 instructions: 78000000 cycles: 69697771 heartbeat IPC: 0.779874 cumulative IPC: 0.632205 (Simulation time: 0 hr 47 min 58 sec) 
Heartbeat CPU 0 instructions: 79000001 cycles: 71020276 heartbeat IPC: 0.756142 cumulative IPC: 0.635798 (Simulation time: 0 hr 48 min 37 sec) 
Heartbeat CPU 0 instructions: 80000000 cycles: 72213717 heartbeat IPC: 0.837912 cumulative IPC: 0.640952 (Simulation time: 0 hr 49 min 16 sec) 
Heartbeat CPU 0 instructions: 81000003 cycles: 73402636 heartbeat IPC: 0.841103 cumulative IPC: 0.64591 (Simulation time: 0 hr 49 min 58 sec) 
Heartbeat CPU 0 instructions: 82000000 cycles: 74816488 heartbeat IPC: 0.707285 cumulative IPC: 0.647666 (Simulation time: 0 hr 50 min 35 sec) 
Heartbeat CPU 0 instructions: 83000001 cycles: 76001269 heartbeat IPC: 0.844039 cumulative IPC: 0.652265 (Simulation time: 0 hr 51 min 13 sec) 
Heartbeat CPU 0 instructions: 84000000 cycles: 77198767 heartbeat IPC: 0.835074 cumulative IPC: 0.656492 (Simulation time: 0 hr 51 min 55 sec) 
Heartbeat CPU 0 instructions: 85000003 cycles: 78610715 heartbeat IPC: 0.708243 cumulative IPC: 0.657865 (Simulation time: 0 hr 52 min 35 sec) 
Heartbeat CPU 0 instructions: 86000002 cycles: 79818078 heartbeat IPC: 0.82825 cumulative IPC: 0.661646 (Simulation time: 0 hr 53 min 14 sec) 
Heartbeat CPU 0 instructions: 87000001 cycles: 81008980 heartbeat IPC: 0.839699 cumulative IPC: 0.66546 (Simulation time: 0 hr 53 min 52 sec) 
Heartbeat CPU 0 instructions: 88000000 cycles: 82239592 heartbeat IPC: 0.812603 cumulative IPC: 0.668646 (Simulation time: 0 hr 54 min 32 sec) 
Heartbeat CPU 0 instructions: 89000001 cycles: 83654234 heartbeat IPC: 0.706893 cumulative IPC: 0.669575 (Simulation time: 0 hr 55 min 11 sec) 
Heartbeat CPU 0 instructions: 90000003 cycles: 84852920 heartbeat IPC: 0.834248 cumulative IPC: 0.672895 (Simulation time: 0 hr 55 min 51 sec) 
Heartbeat CPU 0 instructions: 91000000 cycles: 86059314 heartbeat IPC: 0.828914 cumulative IPC: 0.675999 (Simulation time: 0 hr 56 min 31 sec) 
Heartbeat CPU 0 instructions: 92000000 cycles: 87519338 heartbeat IPC: 0.68492 cumulative IPC: 0.676208 (Simulation time: 0 hr 57 min 8 sec) 
Heartbeat CPU 0 instructions: 93000002 cycles: 88715947 heartbeat IPC: 0.835697 cumulative IPC: 0.679223 (Simulation time: 0 hr 57 min 51 sec) 
Heartbeat CPU 0 instructions: 94000000 cycles: 89919336 heartbeat IPC: 0.830985 cumulative IPC: 0.682054 (Simulation time: 0 hr 58 min 29 sec) 
Heartbeat CPU 0 instructions: 95000003 cycles: 91272626 heartbeat IPC: 0.738942 cumulative IPC: 0.683223 (Simulation time: 0 hr 59 min 10 sec) 
Heartbeat CPU 0 instructions: 96000000 cycles: 92604612 heartbeat IPC: 0.750756 cumulative IPC: 0.684562 (Simulation time: 0 hr 59 min 52 sec) 
Heartbeat CPU 0 instructions: 97000000 cycles: 93791244 heartbeat IPC: 0.842721 cumulative IPC: 0.687306 (Simulation time: 1 hr 0 min 31 sec) 
Heartbeat CPU 0 instructions: 98000000 cycles: 95000696 heartbeat IPC: 0.826821 cumulative IPC: 0.689731 (Simulation time: 1 hr 1 min 13 sec) 
Heartbeat CPU 0 instructions: 99000003 cycles: 96463472 heartbeat IPC: 0.683634 cumulative IPC: 0.689605 (Simulation time: 1 hr 1 min 51 sec) 
Heartbeat CPU 0 instructions: 100000000 cycles: 97679747 heartbeat IPC: 0.82218 cumulative IPC: 0.691836 (Simulation time: 1 hr 2 min 31 sec) 
Heartbeat CPU 0 instructions: 101000001 cycles: 98893381 heartbeat IPC: 0.823972 cumulative IPC: 0.694019 (Simulation time: 1 hr 3 min 14 sec) 
Heartbeat CPU 0 instructions: 102000003 cycles: 100352373 heartbeat IPC: 0.685406 cumulative IPC: 0.693851 (Simulation time: 1 hr 3 min 51 sec) 
Heartbeat CPU 0 instructions: 103000002 cycles: 101568167 heartbeat IPC: 0.822507 cumulative IPC: 0.695905 (Simulation time: 1 hr 4 min 31 sec) 
Heartbeat CPU 0 instructions: 104000000 cycles: 102778371 heartbeat IPC: 0.826305 cumulative IPC: 0.697944 (Simulation time: 1 hr 5 min 8 sec) 
Heartbeat CPU 0 instructions: 105000000 cycles: 104026470 heartbeat IPC: 0.801219 cumulative IPC: 0.699584 (Simulation time: 1 hr 5 min 45 sec) 
Heartbeat CPU 0 instructions: 106000003 cycles: 106007178 heartbeat IPC: 0.504871 cumulative IPC: 0.694799 (Simulation time: 1 hr 6 min 29 sec) 
Heartbeat CPU 0 instructions: 107000002 cycles: 107708811 heartbeat IPC: 0.58767 cumulative IPC: 0.692584 (Simulation time: 1 hr 7 min 6 sec) 
Heartbeat CPU 0 instructions: 108000000 cycles: 109403223 heartbeat IPC: 0.590174 cumulative IPC: 0.690518 (Simulation time: 1 hr 7 min 40 sec) 
Heartbeat CPU 0 instructions: 109000003 cycles: 110986956 heartbeat IPC: 0.631421 cumulative IPC: 0.689424 (Simulation time: 1 hr 8 min 14 sec) 
Heartbeat CPU 0 instructions: 110000003 cycles: 112657920 heartbeat IPC: 0.598457 cumulative IPC: 0.687682 (Simulation time: 1 hr 8 min 48 sec) 
Heartbeat CPU 0 instructions: 111000003 cycles: 114233622 heartbeat IPC: 0.634638 cumulative IPC: 0.686741 (Simulation time: 1 hr 9 min 24 sec) 
Heartbeat CPU 0 instructions: 112000000 cycles: 115868709 heartbeat IPC: 0.611586 cumulative IPC: 0.685383 (Simulation time: 1 hr 9 min 58 sec) 
Heartbeat CPU 0 instructions: 113000000 cycles: 117430269 heartbeat IPC: 0.640385 cumulative IPC: 0.684619 (Simulation time: 1 hr 10 min 32 sec) 
Heartbeat CPU 0 instructions: 114000000 cycles: 119079894 heartbeat IPC: 0.606198 cumulative IPC: 0.683238 (Simulation time: 1 hr 11 min 9 sec) 
Heartbeat CPU 0 instructions: 115000000 cycles: 120644044 heartbeat IPC: 0.639325 cumulative IPC: 0.682517 (Simulation time: 1 hr 11 min 43 sec) 
Heartbeat CPU 0 instructions: 116000000 cycles: 122933464 heartbeat IPC: 0.436792 cumulative IPC: 0.676749 (Simulation time: 1 hr 12 min 17 sec) 
Heartbeat CPU 0 instructions: 117000003 cycles: 125258908 heartbeat IPC: 0.430027 cumulative IPC: 0.671003 (Simulation time: 1 hr 12 min 52 sec) 
Heartbeat CPU 0 instructions: 118000002 cycles: 127639798 heartbeat IPC: 0.420011 cumulative IPC: 0.665157 (Simulation time: 1 hr 13 min 27 sec) 
Heartbeat CPU 0 instructions: 119000002 cycles: 130034997 heartbeat IPC: 0.417502 cumulative IPC: 0.659488 (Simulation time: 1 hr 14 min 2 sec) 
Heartbeat CPU 0 instructions: 120000000 cycles: 132407462 heartbeat IPC: 0.421502 cumulative IPC: 0.654211 (Simulation time: 1 hr 14 min 40 sec) 
Heartbeat CPU 0 instructions: 121000001 cycles: 134736031 heartbeat IPC: 0.429449 cumulative IPC: 0.649424 (Simulation time: 1 hr 15 min 14 sec) 
Heartbeat CPU 0 instructions: 122000001 cycles: 137060530 heartbeat IPC: 0.4302 cumulative IPC: 0.64486 (Simulation time: 1 hr 15 min 47 sec) 
Heartbeat CPU 0 instructions: 123000001 cycles: 139419913 heartbeat IPC: 0.42384 cumulative IPC: 0.640286 (Simulation time: 1 hr 16 min 21 sec) 
Heartbeat CPU 0 instructions: 124000000 cycles: 140727086 heartbeat IPC: 0.765009 cumulative IPC: 0.6417 (Simulation time: 1 hr 16 min 46 sec) 
Heartbeat CPU 0 instructions: 125000000 cycles: 141975239 heartbeat IPC: 0.801184 cumulative IPC: 0.643407 (Simulation time: 1 hr 17 min 10 sec) 
Heartbeat CPU 0 instructions: 126000000 cycles: 143217454 heartbeat IPC: 0.805014 cumulative IPC: 0.645111 (Simulation time: 1 hr 17 min 33 sec) 
Heartbeat CPU 0 instructions: 127000003 cycles: 144459992 heartbeat IPC: 0.804807 cumulative IPC: 0.646778 (Simulation time: 1 hr 17 min 55 sec) 
Heartbeat CPU 0 instructions: 128000000 cycles: 145734985 heartbeat IPC: 0.784316 cumulative IPC: 0.648235 (Simulation time: 1 hr 18 min 18 sec) 
Heartbeat CPU 0 instructions: 129000000 cycles: 146980332 heartbeat IPC: 0.802989 cumulative IPC: 0.649821 (Simulation time: 1 hr 18 min 40 sec) 
Heartbeat CPU 0 instructions: 130000000 cycles: 148279164 heartbeat IPC: 0.769922 cumulative IPC: 0.65109 (Simulation time: 1 hr 19 min 1 sec) 
Heartbeat CPU 0 instructions: 131000000 cycles: 149507780 heartbeat IPC: 0.813924 cumulative IPC: 0.652702 (Simulation time: 1 hr 19 min 21 sec) 
Heartbeat CPU 0 instructions: 132000000 cycles: 150766953 heartbeat IPC: 0.794172 cumulative IPC: 0.654123 (Simulation time: 1 hr 19 min 42 sec) 
Heartbeat CPU 0 instructions: 133000001 cycles: 152034626 heartbeat IPC: 0.788848 cumulative IPC: 0.655472 (Simulation time: 1 hr 20 min 4 sec) 
Heartbeat CPU 0 instructions: 134000000 cycles: 153281136 heartbeat IPC: 0.802239 cumulative IPC: 0.656903 (Simulation time: 1 hr 20 min 25 sec) 
Heartbeat CPU 0 instructions: 135000001 cycles: 154572501 heartbeat IPC: 0.774375 cumulative IPC: 0.658077 (Simulation time: 1 hr 20 min 45 sec) 
Heartbeat CPU 0 instructions: 136000000 cycles: 155817729 heartbeat IPC: 0.803065 cumulative IPC: 0.659462 (Simulation time: 1 hr 21 min 5 sec) 
Heartbeat CPU 0 instructions: 137000003 cycles: 157115008 heartbeat IPC: 0.770847 cumulative IPC: 0.660559 (Simulation time: 1 hr 21 min 25 sec) 
Heartbeat CPU 0 instructions: 138000002 cycles: 158346514 heartbeat IPC: 0.812013 cumulative IPC: 0.661962 (Simulation time: 1 hr 21 min 45 sec) 
Heartbeat CPU 0 instructions: 139000000 cycles: 159607897 heartbeat IPC: 0.792779 cumulative IPC: 0.663191 (Simulation time: 1 hr 22 min 4 sec) 
Heartbeat CPU 0 instructions: 140000000 cycles: 160888931 heartbeat IPC: 0.780619 cumulative IPC: 0.664302 (Simulation time: 1 hr 22 min 22 sec) 
Heartbeat CPU 0 instructions: 141000001 cycles: 162129233 heartbeat IPC: 0.806256 cumulative IPC: 0.665589 (Simulation time: 1 hr 22 min 41 sec) 
Heartbeat CPU 0 instructions: 142000003 cycles: 163433527 heartbeat IPC: 0.7667 cumulative IPC: 0.666545 (Simulation time: 1 hr 22 min 59 sec) 
Heartbeat CPU 0 instructions: 143000003 cycles: 164680475 heartbeat IPC: 0.801958 cumulative IPC: 0.667757 (Simulation time: 1 hr 23 min 15 sec) 
Heartbeat CPU 0 instructions: 144000000 cycles: 165976513 heartbeat IPC: 0.77158 cumulative IPC: 0.668715 (Simulation time: 1 hr 23 min 31 sec) 
Heartbeat CPU 0 instructions: 145000003 cycles: 167245971 heartbeat IPC: 0.78774 cumulative IPC: 0.66978 (Simulation time: 1 hr 23 min 46 sec) 
Heartbeat CPU 0 instructions: 146000003 cycles: 168526778 heartbeat IPC: 0.780758 cumulative IPC: 0.670773 (Simulation time: 1 hr 24 min 1 sec) 
Heartbeat CPU 0 instructions: 147000003 cycles: 169812176 heartbeat IPC: 0.777969 cumulative IPC: 0.671727 (Simulation time: 1 hr 24 min 15 sec) 
Heartbeat CPU 0 instructions: 148000000 cycles: 171060861 heartbeat IPC: 0.80084 cumulative IPC: 0.672834 (Simulation time: 1 hr 24 min 29 sec) 
Heartbeat CPU 0 instructions: 149000000 cycles: 172347218 heartbeat IPC: 0.777389 cumulative IPC: 0.673749 (Simulation time: 1 hr 24 min 42 sec) 
Heartbeat CPU 0 instructions: 150000001 cycles: 173602915 heartbeat IPC: 0.796371 cumulative IPC: 0.674788 (Simulation time: 1 hr 24 min 55 sec) 
Finished CPU 0 instructions: 100000001 cycles: 148194592 cummulative IPC: 0.674788 (Simulation time: 1 hr 24 min 55 sec) 

ChampSim completed all CPUs

Region of Interest Statistics

CPU 0 cummulative IPC: 0.674788 instructions: 100000001 cycles: 148194592
LLC TOTAL     ACCESS:    4211980  HIT:    1312974  MISS:    2899006
LLC LOAD      ACCESS:     416855  HIT:     144246  MISS:     272609
LLC RFO       ACCESS:     595324  HIT:     160284  MISS:     435040
LLC PREFETCH  ACCESS:    2364435  HIT:     563924  MISS:    1800511
LLC WRITEBACK ACCESS:     835366  HIT:     444520  MISS:     390846
OPTgen accesses: 21816
OPTgen hits: 9255
OPTgen hit rate: 42.423


