
*** ChampSim Multicore Out-of-Order Simulator ***

Warmup Instructions: 50000000
Simulation Instructions: 100000000
Configuration: 2
Number of CPUs: 1
LLC sets: 2048
LLC ways: 16
Off-chip DRAM Channels: 1 Width: 64-bit Data Rate: 1600 MT/s

CPU 0 runs /datasets/cs240c-wi22-a00-public/data/Assignment2-gz/perlbench_135B.trace.gz
CPU 0 L1D next line prefetcher
CPU 0 L2C IP-based stride prefetcher
Initialize Hawkeye state
Heartbeat CPU 0 instructions: 1000000 cycles: 600033 heartbeat IPC: 1.66657 cumulative IPC: 1.66657 (Simulation time: 0 hr 0 min 43 sec) 
Heartbeat CPU 0 instructions: 2000000 cycles: 1209301 heartbeat IPC: 1.64131 cumulative IPC: 1.65385 (Simulation time: 0 hr 1 min 32 sec) 
Heartbeat CPU 0 instructions: 3000000 cycles: 1832834 heartbeat IPC: 1.60376 cumulative IPC: 1.63681 (Simulation time: 0 hr 2 min 26 sec) 
Heartbeat CPU 0 instructions: 4000000 cycles: 2492639 heartbeat IPC: 1.5156 cumulative IPC: 1.60473 (Simulation time: 0 hr 3 min 24 sec) 
Heartbeat CPU 0 instructions: 5000001 cycles: 3079302 heartbeat IPC: 1.70456 cumulative IPC: 1.62374 (Simulation time: 0 hr 4 min 7 sec) 
Heartbeat CPU 0 instructions: 6000002 cycles: 3681731 heartbeat IPC: 1.65995 cumulative IPC: 1.62967 (Simulation time: 0 hr 4 min 58 sec) 
Heartbeat CPU 0 instructions: 7000001 cycles: 4282509 heartbeat IPC: 1.66451 cumulative IPC: 1.63456 (Simulation time: 0 hr 5 min 49 sec) 
Heartbeat CPU 0 instructions: 8000000 cycles: 4893000 heartbeat IPC: 1.63802 cumulative IPC: 1.63499 (Simulation time: 0 hr 6 min 41 sec) 
Heartbeat CPU 0 instructions: 9000001 cycles: 5534129 heartbeat IPC: 1.55975 cumulative IPC: 1.62627 (Simulation time: 0 hr 7 min 31 sec) 
Heartbeat CPU 0 instructions: 10000000 cycles: 6192840 heartbeat IPC: 1.51811 cumulative IPC: 1.61477 (Simulation time: 0 hr 8 min 24 sec) 
Heartbeat CPU 0 instructions: 11000003 cycles: 6888953 heartbeat IPC: 1.43655 cumulative IPC: 1.59676 (Simulation time: 0 hr 9 min 19 sec) 
Heartbeat CPU 0 instructions: 12000000 cycles: 7505167 heartbeat IPC: 1.62281 cumulative IPC: 1.5989 (Simulation time: 0 hr 10 min 6 sec) 
Heartbeat CPU 0 instructions: 13000000 cycles: 8134120 heartbeat IPC: 1.58994 cumulative IPC: 1.59821 (Simulation time: 0 hr 10 min 53 sec) 
Heartbeat CPU 0 instructions: 14000002 cycles: 8774602 heartbeat IPC: 1.56133 cumulative IPC: 1.59551 (Simulation time: 0 hr 11 min 45 sec) 
Heartbeat CPU 0 instructions: 15000003 cycles: 9413476 heartbeat IPC: 1.56526 cumulative IPC: 1.59346 (Simulation time: 0 hr 12 min 42 sec) 
Heartbeat CPU 0 instructions: 16000000 cycles: 10053312 heartbeat IPC: 1.5629 cumulative IPC: 1.59152 (Simulation time: 0 hr 13 min 38 sec) 
Heartbeat CPU 0 instructions: 17000000 cycles: 10694468 heartbeat IPC: 1.55968 cumulative IPC: 1.58961 (Simulation time: 0 hr 14 min 36 sec) 
Heartbeat CPU 0 instructions: 18000000 cycles: 11335137 heartbeat IPC: 1.56087 cumulative IPC: 1.58798 (Simulation time: 0 hr 15 min 33 sec) 
Heartbeat CPU 0 instructions: 19000003 cycles: 11972217 heartbeat IPC: 1.56967 cumulative IPC: 1.58701 (Simulation time: 0 hr 16 min 30 sec) 
Heartbeat CPU 0 instructions: 20000000 cycles: 12611056 heartbeat IPC: 1.56533 cumulative IPC: 1.58591 (Simulation time: 0 hr 17 min 25 sec) 
Heartbeat CPU 0 instructions: 21000000 cycles: 13246420 heartbeat IPC: 1.5739 cumulative IPC: 1.58533 (Simulation time: 0 hr 18 min 20 sec) 
Heartbeat CPU 0 instructions: 22000002 cycles: 13885165 heartbeat IPC: 1.56557 cumulative IPC: 1.58442 (Simulation time: 0 hr 19 min 18 sec) 
Heartbeat CPU 0 instructions: 23000003 cycles: 14552678 heartbeat IPC: 1.4981 cumulative IPC: 1.58047 (Simulation time: 0 hr 20 min 14 sec) 
Heartbeat CPU 0 instructions: 24000000 cycles: 15116445 heartbeat IPC: 1.77378 cumulative IPC: 1.58767 (Simulation time: 0 hr 21 min 5 sec) 
Heartbeat CPU 0 instructions: 25000000 cycles: 15773350 heartbeat IPC: 1.52229 cumulative IPC: 1.58495 (Simulation time: 0 hr 21 min 58 sec) 
Heartbeat CPU 0 instructions: 26000001 cycles: 16389265 heartbeat IPC: 1.6236 cumulative IPC: 1.5864 (Simulation time: 0 hr 22 min 49 sec) 
Heartbeat CPU 0 instructions: 27000000 cycles: 17029490 heartbeat IPC: 1.56195 cumulative IPC: 1.58548 (Simulation time: 0 hr 23 min 39 sec) 
Heartbeat CPU 0 instructions: 28000000 cycles: 17670198 heartbeat IPC: 1.56077 cumulative IPC: 1.58459 (Simulation time: 0 hr 24 min 26 sec) 
Heartbeat CPU 0 instructions: 29000000 cycles: 18307728 heartbeat IPC: 1.56855 cumulative IPC: 1.58403 (Simulation time: 0 hr 25 min 24 sec) 
Heartbeat CPU 0 instructions: 30000002 cycles: 18953364 heartbeat IPC: 1.54886 cumulative IPC: 1.58283 (Simulation time: 0 hr 26 min 16 sec) 
Heartbeat CPU 0 instructions: 31000001 cycles: 19589974 heartbeat IPC: 1.57082 cumulative IPC: 1.58244 (Simulation time: 0 hr 27 min 8 sec) 
Heartbeat CPU 0 instructions: 32000000 cycles: 20230144 heartbeat IPC: 1.56208 cumulative IPC: 1.5818 (Simulation time: 0 hr 28 min 1 sec) 
Heartbeat CPU 0 instructions: 33000000 cycles: 20865465 heartbeat IPC: 1.57401 cumulative IPC: 1.58156 (Simulation time: 0 hr 28 min 46 sec) 
Heartbeat CPU 0 instructions: 34000001 cycles: 21501798 heartbeat IPC: 1.57151 cumulative IPC: 1.58126 (Simulation time: 0 hr 29 min 44 sec) 
Heartbeat CPU 0 instructions: 35000003 cycles: 22157548 heartbeat IPC: 1.52497 cumulative IPC: 1.5796 (Simulation time: 0 hr 30 min 41 sec) 
Heartbeat CPU 0 instructions: 36000000 cycles: 22756608 heartbeat IPC: 1.66928 cumulative IPC: 1.58196 (Simulation time: 0 hr 31 min 15 sec) 
Heartbeat CPU 0 instructions: 37000000 cycles: 23371583 heartbeat IPC: 1.62608 cumulative IPC: 1.58312 (Simulation time: 0 hr 31 min 58 sec) 
Heartbeat CPU 0 instructions: 38000002 cycles: 23943832 heartbeat IPC: 1.74749 cumulative IPC: 1.58705 (Simulation time: 0 hr 32 min 51 sec) 
Heartbeat CPU 0 instructions: 39000000 cycles: 24547814 heartbeat IPC: 1.65568 cumulative IPC: 1.58874 (Simulation time: 0 hr 33 min 44 sec) 
Heartbeat CPU 0 instructions: 40000000 cycles: 25099325 heartbeat IPC: 1.8132 cumulative IPC: 1.59367 (Simulation time: 0 hr 34 min 30 sec) 
Heartbeat CPU 0 instructions: 41000001 cycles: 25665868 heartbeat IPC: 1.76509 cumulative IPC: 1.59745 (Simulation time: 0 hr 35 min 9 sec) 
Heartbeat CPU 0 instructions: 42000003 cycles: 26303469 heartbeat IPC: 1.56838 cumulative IPC: 1.59675 (Simulation time: 0 hr 36 min 8 sec) 
Heartbeat CPU 0 instructions: 43000001 cycles: 26969561 heartbeat IPC: 1.50129 cumulative IPC: 1.59439 (Simulation time: 0 hr 36 min 54 sec) 
Heartbeat CPU 0 instructions: 44000000 cycles: 27581740 heartbeat IPC: 1.63351 cumulative IPC: 1.59526 (Simulation time: 0 hr 37 min 48 sec) 
Heartbeat CPU 0 instructions: 45000003 cycles: 28227619 heartbeat IPC: 1.54828 cumulative IPC: 1.59418 (Simulation time: 0 hr 38 min 36 sec) 
Heartbeat CPU 0 instructions: 46000000 cycles: 28867238 heartbeat IPC: 1.56343 cumulative IPC: 1.5935 (Simulation time: 0 hr 39 min 19 sec) 
Heartbeat CPU 0 instructions: 47000000 cycles: 29506359 heartbeat IPC: 1.56465 cumulative IPC: 1.59288 (Simulation time: 0 hr 40 min 11 sec) 
Heartbeat CPU 0 instructions: 48000000 cycles: 30146514 heartbeat IPC: 1.56212 cumulative IPC: 1.59222 (Simulation time: 0 hr 40 min 57 sec) 
Heartbeat CPU 0 instructions: 49000003 cycles: 30788443 heartbeat IPC: 1.55781 cumulative IPC: 1.59151 (Simulation time: 0 hr 41 min 48 sec) 
Heartbeat CPU 0 instructions: 50000001 cycles: 31428049 heartbeat IPC: 1.56346 cumulative IPC: 1.59094 (Simulation time: 0 hr 42 min 33 sec) 

Warmup complete CPU 0 instructions: 50000001 cycles: 31428049 (Simulation time: 0 hr 42 min 33 sec) 

Heartbeat CPU 0 instructions: 51000000 cycles: 34046819 heartbeat IPC: 0.381858 cumulative IPC: 0.381858 (Simulation time: 0 hr 43 min 27 sec) 
Heartbeat CPU 0 instructions: 52000000 cycles: 36657457 heartbeat IPC: 0.383048 cumulative IPC: 0.382452 (Simulation time: 0 hr 44 min 22 sec) 
Heartbeat CPU 0 instructions: 53000000 cycles: 39241650 heartbeat IPC: 0.386968 cumulative IPC: 0.383946 (Simulation time: 0 hr 45 min 16 sec) 
Heartbeat CPU 0 instructions: 54000001 cycles: 41880572 heartbeat IPC: 0.378943 cumulative IPC: 0.382683 (Simulation time: 0 hr 46 min 13 sec) 
Heartbeat CPU 0 instructions: 55000001 cycles: 44327466 heartbeat IPC: 0.408681 cumulative IPC: 0.387614 (Simulation time: 0 hr 47 min 6 sec) 
Heartbeat CPU 0 instructions: 56000000 cycles: 46451043 heartbeat IPC: 0.470903 cumulative IPC: 0.399388 (Simulation time: 0 hr 48 min 3 sec) 
Heartbeat CPU 0 instructions: 57000000 cycles: 48652757 heartbeat IPC: 0.454192 cumulative IPC: 0.406393 (Simulation time: 0 hr 48 min 55 sec) 
Heartbeat CPU 0 instructions: 58000002 cycles: 50600538 heartbeat IPC: 0.513406 cumulative IPC: 0.417265 (Simulation time: 0 hr 49 min 44 sec) 
Heartbeat CPU 0 instructions: 59000003 cycles: 52718266 heartbeat IPC: 0.472205 cumulative IPC: 0.422729 (Simulation time: 0 hr 50 min 32 sec) 
Heartbeat CPU 0 instructions: 60000000 cycles: 55764749 heartbeat IPC: 0.328246 cumulative IPC: 0.410902 (Simulation time: 0 hr 51 min 17 sec) 
Heartbeat CPU 0 instructions: 61000000 cycles: 58187057 heartbeat IPC: 0.412829 cumulative IPC: 0.411076 (Simulation time: 0 hr 52 min 10 sec) 
Heartbeat CPU 0 instructions: 62000001 cycles: 61028209 heartbeat IPC: 0.35197 cumulative IPC: 0.405403 (Simulation time: 0 hr 53 min 4 sec) 
Heartbeat CPU 0 instructions: 63000000 cycles: 64026035 heartbeat IPC: 0.333575 cumulative IPC: 0.398798 (Simulation time: 0 hr 53 min 54 sec) 
Heartbeat CPU 0 instructions: 64000000 cycles: 67054778 heartbeat IPC: 0.33017 cumulative IPC: 0.392963 (Simulation time: 0 hr 54 min 48 sec) 
Heartbeat CPU 0 instructions: 65000001 cycles: 70005733 heartbeat IPC: 0.338874 cumulative IPC: 0.388826 (Simulation time: 0 hr 55 min 41 sec) 
Heartbeat CPU 0 instructions: 66000001 cycles: 72908184 heartbeat IPC: 0.344536 cumulative IPC: 0.385727 (Simulation time: 0 hr 56 min 38 sec) 
Heartbeat CPU 0 instructions: 67000001 cycles: 75651411 heartbeat IPC: 0.364534 cumulative IPC: 0.384412 (Simulation time: 0 hr 57 min 25 sec) 
Heartbeat CPU 0 instructions: 68000000 cycles: 78385591 heartbeat IPC: 0.36574 cumulative IPC: 0.383325 (Simulation time: 0 hr 58 min 25 sec) 
Heartbeat CPU 0 instructions: 69000002 cycles: 81354635 heartbeat IPC: 0.336809 cumulative IPC: 0.380559 (Simulation time: 0 hr 59 min 21 sec) 
Heartbeat CPU 0 instructions: 70000003 cycles: 83166918 heartbeat IPC: 0.551791 cumulative IPC: 0.386557 (Simulation time: 1 hr 0 min 11 sec) 
Heartbeat CPU 0 instructions: 71000000 cycles: 85086663 heartbeat IPC: 0.520901 cumulative IPC: 0.391363 (Simulation time: 1 hr 0 min 54 sec) 
Heartbeat CPU 0 instructions: 72000000 cycles: 87077446 heartbeat IPC: 0.502315 cumulative IPC: 0.395332 (Simulation time: 1 hr 1 min 41 sec) 
Heartbeat CPU 0 instructions: 73000000 cycles: 89346810 heartbeat IPC: 0.440652 cumulative IPC: 0.397108 (Simulation time: 1 hr 2 min 43 sec) 
Heartbeat CPU 0 instructions: 74000000 cycles: 91265356 heartbeat IPC: 0.521228 cumulative IPC: 0.401088 (Simulation time: 1 hr 3 min 32 sec) 
Heartbeat CPU 0 instructions: 75000003 cycles: 93509007 heartbeat IPC: 0.445703 cumulative IPC: 0.4027 (Simulation time: 1 hr 4 min 14 sec) 
Heartbeat CPU 0 instructions: 76000000 cycles: 96261691 heartbeat IPC: 0.363281 cumulative IPC: 0.401026 (Simulation time: 1 hr 5 min 4 sec) 
Heartbeat CPU 0 instructions: 77000000 cycles: 98959272 heartbeat IPC: 0.370703 cumulative IPC: 0.399815 (Simulation time: 1 hr 5 min 53 sec) 
Heartbeat CPU 0 instructions: 78000000 cycles: 101921132 heartbeat IPC: 0.337626 cumulative IPC: 0.397202 (Simulation time: 1 hr 6 min 47 sec) 
Heartbeat CPU 0 instructions: 79000000 cycles: 103781139 heartbeat IPC: 0.537632 cumulative IPC: 0.400812 (Simulation time: 1 hr 7 min 35 sec) 
Heartbeat CPU 0 instructions: 80000000 cycles: 105568717 heartbeat IPC: 0.559416 cumulative IPC: 0.404636 (Simulation time: 1 hr 8 min 15 sec) 
Heartbeat CPU 0 instructions: 81000000 cycles: 107490113 heartbeat IPC: 0.520455 cumulative IPC: 0.407562 (Simulation time: 1 hr 8 min 54 sec) 
Heartbeat CPU 0 instructions: 82000000 cycles: 109407652 heartbeat IPC: 0.521502 cumulative IPC: 0.410364 (Simulation time: 1 hr 9 min 32 sec) 
Heartbeat CPU 0 instructions: 83000000 cycles: 111740938 heartbeat IPC: 0.42858 cumulative IPC: 0.410893 (Simulation time: 1 hr 10 min 15 sec) 
Heartbeat CPU 0 instructions: 84000000 cycles: 113692999 heartbeat IPC: 0.512279 cumulative IPC: 0.413299 (Simulation time: 1 hr 10 min 55 sec) 
Heartbeat CPU 0 instructions: 85000000 cycles: 115614014 heartbeat IPC: 0.520558 cumulative IPC: 0.415746 (Simulation time: 1 hr 11 min 41 sec) 
Heartbeat CPU 0 instructions: 86000002 cycles: 117532543 heartbeat IPC: 0.521234 cumulative IPC: 0.418097 (Simulation time: 1 hr 12 min 25 sec) 
Heartbeat CPU 0 instructions: 87000003 cycles: 119704626 heartbeat IPC: 0.460388 cumulative IPC: 0.419137 (Simulation time: 1 hr 13 min 7 sec) 
Heartbeat CPU 0 instructions: 88000000 cycles: 122494064 heartbeat IPC: 0.358494 cumulative IPC: 0.41728 (Simulation time: 1 hr 13 min 44 sec) 
Heartbeat CPU 0 instructions: 89000003 cycles: 125066141 heartbeat IPC: 0.388792 cumulative IPC: 0.416497 (Simulation time: 1 hr 14 min 27 sec) 
Heartbeat CPU 0 instructions: 90000001 cycles: 127953497 heartbeat IPC: 0.346337 cumulative IPC: 0.414398 (Simulation time: 1 hr 15 min 10 sec) 
Heartbeat CPU 0 instructions: 91000000 cycles: 130440437 heartbeat IPC: 0.4021 cumulative IPC: 0.41409 (Simulation time: 1 hr 15 min 46 sec) 
Heartbeat CPU 0 instructions: 92000000 cycles: 132899812 heartbeat IPC: 0.406607 cumulative IPC: 0.413908 (Simulation time: 1 hr 16 min 18 sec) 
Heartbeat CPU 0 instructions: 93000000 cycles: 135611494 heartbeat IPC: 0.368775 cumulative IPC: 0.412734 (Simulation time: 1 hr 16 min 55 sec) 
Heartbeat CPU 0 instructions: 94000001 cycles: 138269372 heartbeat IPC: 0.37624 cumulative IPC: 0.411826 (Simulation time: 1 hr 17 min 30 sec) 
Heartbeat CPU 0 instructions: 95000000 cycles: 141124487 heartbeat IPC: 0.350248 cumulative IPC: 0.410223 (Simulation time: 1 hr 18 min 1 sec) 
Heartbeat CPU 0 instructions: 96000000 cycles: 144220160 heartbeat IPC: 0.323032 cumulative IPC: 0.40783 (Simulation time: 1 hr 18 min 29 sec) 
Heartbeat CPU 0 instructions: 97000001 cycles: 147236342 heartbeat IPC: 0.331545 cumulative IPC: 0.405843 (Simulation time: 1 hr 18 min 58 sec) 
Heartbeat CPU 0 instructions: 98000000 cycles: 149904203 heartbeat IPC: 0.374832 cumulative IPC: 0.405145 (Simulation time: 1 hr 19 min 22 sec) 
Heartbeat CPU 0 instructions: 99000000 cycles: 152504784 heartbeat IPC: 0.384529 cumulative IPC: 0.404702 (Simulation time: 1 hr 19 min 50 sec) 
Heartbeat CPU 0 instructions: 100000000 cycles: 155131325 heartbeat IPC: 0.380729 cumulative IPC: 0.404193 (Simulation time: 1 hr 20 min 16 sec) 
Heartbeat CPU 0 instructions: 101000001 cycles: 157734699 heartbeat IPC: 0.384117 cumulative IPC: 0.403779 (Simulation time: 1 hr 20 min 40 sec) 
Heartbeat CPU 0 instructions: 102000000 cycles: 160371079 heartbeat IPC: 0.379308 cumulative IPC: 0.403279 (Simulation time: 1 hr 21 min 3 sec) 
Heartbeat CPU 0 instructions: 103000000 cycles: 163029781 heartbeat IPC: 0.376123 cumulative IPC: 0.40273 (Simulation time: 1 hr 21 min 29 sec) 
Heartbeat CPU 0 instructions: 104000000 cycles: 165751292 heartbeat IPC: 0.367443 cumulative IPC: 0.402015 (Simulation time: 1 hr 21 min 51 sec) 
Heartbeat CPU 0 instructions: 105000001 cycles: 168356901 heartbeat IPC: 0.383788 cumulative IPC: 0.401668 (Simulation time: 1 hr 22 min 16 sec) 
Heartbeat CPU 0 instructions: 106000001 cycles: 170976327 heartbeat IPC: 0.381763 cumulative IPC: 0.401295 (Simulation time: 1 hr 22 min 41 sec) 
Heartbeat CPU 0 instructions: 107000000 cycles: 173591832 heartbeat IPC: 0.382335 cumulative IPC: 0.400946 (Simulation time: 1 hr 23 min 3 sec) 
Heartbeat CPU 0 instructions: 108000000 cycles: 176204024 heartbeat IPC: 0.38282 cumulative IPC: 0.400619 (Simulation time: 1 hr 23 min 25 sec) 
Heartbeat CPU 0 instructions: 109000001 cycles: 178777430 heartbeat IPC: 0.38859 cumulative IPC: 0.400409 (Simulation time: 1 hr 23 min 44 sec) 
Heartbeat CPU 0 instructions: 110000003 cycles: 180942303 heartbeat IPC: 0.461922 cumulative IPC: 0.4013 (Simulation time: 1 hr 23 min 58 sec) 
Heartbeat CPU 0 instructions: 111000000 cycles: 183359689 heartbeat IPC: 0.413669 cumulative IPC: 0.401496 (Simulation time: 1 hr 24 min 13 sec) 
Heartbeat CPU 0 instructions: 112000000 cycles: 186179595 heartbeat IPC: 0.354622 cumulative IPC: 0.400642 (Simulation time: 1 hr 24 min 32 sec) 
Heartbeat CPU 0 instructions: 113000000 cycles: 188856845 heartbeat IPC: 0.373518 cumulative IPC: 0.400181 (Simulation time: 1 hr 24 min 47 sec) 
Heartbeat CPU 0 instructions: 114000002 cycles: 191426934 heartbeat IPC: 0.389092 cumulative IPC: 0.400003 (Simulation time: 1 hr 25 min 1 sec) 
Heartbeat CPU 0 instructions: 115000001 cycles: 194043167 heartbeat IPC: 0.382229 cumulative IPC: 0.399717 (Simulation time: 1 hr 25 min 16 sec) 
Heartbeat CPU 0 instructions: 116000000 cycles: 196631322 heartbeat IPC: 0.386375 cumulative IPC: 0.399508 (Simulation time: 1 hr 25 min 30 sec) 
Heartbeat CPU 0 instructions: 117000002 cycles: 199208000 heartbeat IPC: 0.388097 cumulative IPC: 0.399333 (Simulation time: 1 hr 25 min 43 sec) 
Heartbeat CPU 0 instructions: 118000001 cycles: 201713153 heartbeat IPC: 0.399177 cumulative IPC: 0.39933 (Simulation time: 1 hr 25 min 58 sec) 
Heartbeat CPU 0 instructions: 119000000 cycles: 203708866 heartbeat IPC: 0.501074 cumulative IPC: 0.400509 (Simulation time: 1 hr 26 min 10 sec) 
Heartbeat CPU 0 instructions: 120000000 cycles: 206557525 heartbeat IPC: 0.351042 cumulative IPC: 0.399704 (Simulation time: 1 hr 26 min 23 sec) 
Heartbeat CPU 0 instructions: 121000001 cycles: 209209431 heartbeat IPC: 0.377088 cumulative IPC: 0.399367 (Simulation time: 1 hr 26 min 36 sec) 
Heartbeat CPU 0 instructions: 122000002 cycles: 212065780 heartbeat IPC: 0.350098 cumulative IPC: 0.398588 (Simulation time: 1 hr 26 min 46 sec) 
Heartbeat CPU 0 instructions: 123000001 cycles: 214864080 heartbeat IPC: 0.357359 cumulative IPC: 0.397959 (Simulation time: 1 hr 26 min 56 sec) 
Heartbeat CPU 0 instructions: 124000000 cycles: 217407449 heartbeat IPC: 0.393179 cumulative IPC: 0.397894 (Simulation time: 1 hr 27 min 6 sec) 
Heartbeat CPU 0 instructions: 125000003 cycles: 219374188 heartbeat IPC: 0.508457 cumulative IPC: 0.399051 (Simulation time: 1 hr 27 min 13 sec) 
Heartbeat CPU 0 instructions: 126000000 cycles: 221295926 heartbeat IPC: 0.520361 cumulative IPC: 0.400278 (Simulation time: 1 hr 27 min 19 sec) 
Heartbeat CPU 0 instructions: 127000001 cycles: 223699766 heartbeat IPC: 0.416001 cumulative IPC: 0.400475 (Simulation time: 1 hr 27 min 26 sec) 
Heartbeat CPU 0 instructions: 128000000 cycles: 225688522 heartbeat IPC: 0.502826 cumulative IPC: 0.401523 (Simulation time: 1 hr 27 min 33 sec) 
Heartbeat CPU 0 instructions: 129000000 cycles: 227611301 heartbeat IPC: 0.520081 cumulative IPC: 0.402685 (Simulation time: 1 hr 27 min 38 sec) 
Heartbeat CPU 0 instructions: 130000001 cycles: 230380952 heartbeat IPC: 0.361057 cumulative IPC: 0.402105 (Simulation time: 1 hr 27 min 43 sec) 
Heartbeat CPU 0 instructions: 131000003 cycles: 233050049 heartbeat IPC: 0.374659 cumulative IPC: 0.401742 (Simulation time: 1 hr 27 min 50 sec) 
Heartbeat CPU 0 instructions: 132000000 cycles: 235770241 heartbeat IPC: 0.36762 cumulative IPC: 0.401288 (Simulation time: 1 hr 27 min 55 sec) 
Heartbeat CPU 0 instructions: 133000002 cycles: 238709862 heartbeat IPC: 0.340181 cumulative IPC: 0.400421 (Simulation time: 1 hr 28 min 1 sec) 
Heartbeat CPU 0 instructions: 134000000 cycles: 241745577 heartbeat IPC: 0.329411 cumulative IPC: 0.399396 (Simulation time: 1 hr 28 min 6 sec) 
Heartbeat CPU 0 instructions: 135000002 cycles: 244304129 heartbeat IPC: 0.390847 cumulative IPC: 0.399293 (Simulation time: 1 hr 28 min 11 sec) 
Heartbeat CPU 0 instructions: 136000000 cycles: 247154993 heartbeat IPC: 0.35077 cumulative IPC: 0.398652 (Simulation time: 1 hr 28 min 16 sec) 
Heartbeat CPU 0 instructions: 137000003 cycles: 249926744 heartbeat IPC: 0.360784 cumulative IPC: 0.398172 (Simulation time: 1 hr 28 min 21 sec) 
Heartbeat CPU 0 instructions: 138000000 cycles: 252656418 heartbeat IPC: 0.366343 cumulative IPC: 0.397779 (Simulation time: 1 hr 28 min 25 sec) 
Heartbeat CPU 0 instructions: 139000001 cycles: 254926989 heartbeat IPC: 0.440418 cumulative IPC: 0.398212 (Simulation time: 1 hr 28 min 30 sec) 
Heartbeat CPU 0 instructions: 140000000 cycles: 257564951 heartbeat IPC: 0.37908 cumulative IPC: 0.397989 (Simulation time: 1 hr 28 min 35 sec) 
Heartbeat CPU 0 instructions: 141000000 cycles: 260321613 heartbeat IPC: 0.362758 cumulative IPC: 0.397565 (Simulation time: 1 hr 28 min 40 sec) 
Heartbeat CPU 0 instructions: 142000000 cycles: 263076226 heartbeat IPC: 0.363027 cumulative IPC: 0.397154 (Simulation time: 1 hr 28 min 46 sec) 
Heartbeat CPU 0 instructions: 143000000 cycles: 265718896 heartbeat IPC: 0.378405 cumulative IPC: 0.396943 (Simulation time: 1 hr 28 min 51 sec) 
Heartbeat CPU 0 instructions: 144000000 cycles: 267918075 heartbeat IPC: 0.454715 cumulative IPC: 0.39748 (Simulation time: 1 hr 28 min 56 sec) 
Heartbeat CPU 0 instructions: 145000002 cycles: 270136714 heartbeat IPC: 0.450728 cumulative IPC: 0.397975 (Simulation time: 1 hr 29 min 1 sec) 
Heartbeat CPU 0 instructions: 146000001 cycles: 272150034 heartbeat IPC: 0.496692 cumulative IPC: 0.3988 (Simulation time: 1 hr 29 min 5 sec) 
Heartbeat CPU 0 instructions: 147000001 cycles: 274877129 heartbeat IPC: 0.366691 cumulative IPC: 0.398441 (Simulation time: 1 hr 29 min 11 sec) 
Heartbeat CPU 0 instructions: 148000000 cycles: 277458367 heartbeat IPC: 0.387411 cumulative IPC: 0.398325 (Simulation time: 1 hr 29 min 16 sec) 
Heartbeat CPU 0 instructions: 149000000 cycles: 280100275 heartbeat IPC: 0.378514 cumulative IPC: 0.398114 (Simulation time: 1 hr 29 min 21 sec) 
Heartbeat CPU 0 instructions: 150000001 cycles: 282843302 heartbeat IPC: 0.364561 cumulative IPC: 0.397748 (Simulation time: 1 hr 29 min 26 sec) 
Finished CPU 0 instructions: 100000000 cycles: 251415253 cummulative IPC: 0.397748 (Simulation time: 1 hr 29 min 26 sec) 

ChampSim completed all CPUs

Region of Interest Statistics

CPU 0 cummulative IPC: 0.397748 instructions: 100000000 cycles: 251415253
LLC TOTAL     ACCESS:     694180  HIT:     638322  MISS:      55858
LLC LOAD      ACCESS:     325711  HIT:     303080  MISS:      22631
LLC RFO       ACCESS:      31880  HIT:      27002  MISS:       4878
LLC PREFETCH  ACCESS:     223569  HIT:     196288  MISS:      27281
LLC WRITEBACK ACCESS:     113020  HIT:     111952  MISS:       1068
OPTgen accesses: 8427
OPTgen hits: 9972
OPTgen hit rate: 118.334


