
*** ChampSim Multicore Out-of-Order Simulator ***

Warmup Instructions: 50000000
Simulation Instructions: 100000000
Configuration: 2
Number of CPUs: 1
LLC sets: 2048
LLC ways: 16
Off-chip DRAM Channels: 1 Width: 64-bit Data Rate: 1600 MT/s

CPU 0 runs /datasets/cs240c-wi22-a00-public/data/Assignment2-gz/GemsFDTD_716B.trace.gz
CPU 0 L1D next line prefetcher
CPU 0 L2C IP-based stride prefetcher
Initialize Hawkeye state
Heartbeat CPU 0 instructions: 1000000 cycles: 415045 heartbeat IPC: 2.40938 cumulative IPC: 2.40938 (Simulation time: 0 hr 0 min 31 sec) 
Heartbeat CPU 0 instructions: 2000003 cycles: 829979 heartbeat IPC: 2.41003 cumulative IPC: 2.4097 (Simulation time: 0 hr 1 min 1 sec) 
Heartbeat CPU 0 instructions: 3000000 cycles: 1280233 heartbeat IPC: 2.22096 cumulative IPC: 2.34332 (Simulation time: 0 hr 1 min 32 sec) 
Heartbeat CPU 0 instructions: 4000000 cycles: 1737264 heartbeat IPC: 2.18804 cumulative IPC: 2.30247 (Simulation time: 0 hr 2 min 1 sec) 
Heartbeat CPU 0 instructions: 5000000 cycles: 2152245 heartbeat IPC: 2.40975 cumulative IPC: 2.32316 (Simulation time: 0 hr 2 min 31 sec) 
Heartbeat CPU 0 instructions: 6000000 cycles: 2567261 heartbeat IPC: 2.40955 cumulative IPC: 2.33712 (Simulation time: 0 hr 3 min 2 sec) 
Heartbeat CPU 0 instructions: 7000000 cycles: 2982264 heartbeat IPC: 2.40962 cumulative IPC: 2.34721 (Simulation time: 0 hr 3 min 31 sec) 
Heartbeat CPU 0 instructions: 8000000 cycles: 3395191 heartbeat IPC: 2.42174 cumulative IPC: 2.35627 (Simulation time: 0 hr 4 min 0 sec) 
Heartbeat CPU 0 instructions: 9000003 cycles: 3840223 heartbeat IPC: 2.24704 cumulative IPC: 2.34361 (Simulation time: 0 hr 4 min 35 sec) 
Heartbeat CPU 0 instructions: 10000002 cycles: 4354523 heartbeat IPC: 1.94439 cumulative IPC: 2.29646 (Simulation time: 0 hr 5 min 16 sec) 
Heartbeat CPU 0 instructions: 11000000 cycles: 4869364 heartbeat IPC: 1.94234 cumulative IPC: 2.25902 (Simulation time: 0 hr 5 min 55 sec) 
Heartbeat CPU 0 instructions: 12000000 cycles: 5383711 heartbeat IPC: 1.94421 cumulative IPC: 2.22895 (Simulation time: 0 hr 6 min 40 sec) 
Heartbeat CPU 0 instructions: 13000002 cycles: 5898405 heartbeat IPC: 1.94291 cumulative IPC: 2.20399 (Simulation time: 0 hr 7 min 27 sec) 
Heartbeat CPU 0 instructions: 14000000 cycles: 6414336 heartbeat IPC: 1.93824 cumulative IPC: 2.18261 (Simulation time: 0 hr 8 min 9 sec) 
Heartbeat CPU 0 instructions: 15000001 cycles: 6934503 heartbeat IPC: 1.92246 cumulative IPC: 2.1631 (Simulation time: 0 hr 8 min 54 sec) 
Heartbeat CPU 0 instructions: 16000000 cycles: 7454724 heartbeat IPC: 1.92226 cumulative IPC: 2.14629 (Simulation time: 0 hr 9 min 36 sec) 
Heartbeat CPU 0 instructions: 17000001 cycles: 7975432 heartbeat IPC: 1.92046 cumulative IPC: 2.13155 (Simulation time: 0 hr 10 min 16 sec) 
Heartbeat CPU 0 instructions: 18000000 cycles: 8496345 heartbeat IPC: 1.9197 cumulative IPC: 2.11856 (Simulation time: 0 hr 11 min 0 sec) 
Heartbeat CPU 0 instructions: 19000003 cycles: 9017475 heartbeat IPC: 1.91891 cumulative IPC: 2.10702 (Simulation time: 0 hr 11 min 48 sec) 
Heartbeat CPU 0 instructions: 20000000 cycles: 9556077 heartbeat IPC: 1.85665 cumulative IPC: 2.09291 (Simulation time: 0 hr 12 min 35 sec) 
Heartbeat CPU 0 instructions: 21000000 cycles: 10098175 heartbeat IPC: 1.84468 cumulative IPC: 2.07958 (Simulation time: 0 hr 13 min 21 sec) 
Heartbeat CPU 0 instructions: 22000001 cycles: 10639164 heartbeat IPC: 1.84847 cumulative IPC: 2.06783 (Simulation time: 0 hr 14 min 12 sec) 
Heartbeat CPU 0 instructions: 23000003 cycles: 11180642 heartbeat IPC: 1.8468 cumulative IPC: 2.05713 (Simulation time: 0 hr 14 min 59 sec) 
Heartbeat CPU 0 instructions: 24000000 cycles: 11722876 heartbeat IPC: 1.84422 cumulative IPC: 2.04728 (Simulation time: 0 hr 15 min 39 sec) 
Heartbeat CPU 0 instructions: 25000000 cycles: 12250673 heartbeat IPC: 1.89467 cumulative IPC: 2.0407 (Simulation time: 0 hr 16 min 22 sec) 
Heartbeat CPU 0 instructions: 26000000 cycles: 12769409 heartbeat IPC: 1.92776 cumulative IPC: 2.03612 (Simulation time: 0 hr 17 min 4 sec) 
Heartbeat CPU 0 instructions: 27000002 cycles: 13288112 heartbeat IPC: 1.92789 cumulative IPC: 2.03189 (Simulation time: 0 hr 17 min 50 sec) 
Heartbeat CPU 0 instructions: 28000000 cycles: 13806575 heartbeat IPC: 1.92877 cumulative IPC: 2.02802 (Simulation time: 0 hr 18 min 32 sec) 
Heartbeat CPU 0 instructions: 29000003 cycles: 14324745 heartbeat IPC: 1.92987 cumulative IPC: 2.02447 (Simulation time: 0 hr 19 min 15 sec) 
Heartbeat CPU 0 instructions: 30000001 cycles: 14858452 heartbeat IPC: 1.87368 cumulative IPC: 2.01905 (Simulation time: 0 hr 20 min 2 sec) 
Heartbeat CPU 0 instructions: 31000001 cycles: 15419689 heartbeat IPC: 1.78178 cumulative IPC: 2.01042 (Simulation time: 0 hr 20 min 41 sec) 
Heartbeat CPU 0 instructions: 32000000 cycles: 15980962 heartbeat IPC: 1.78166 cumulative IPC: 2.00238 (Simulation time: 0 hr 21 min 27 sec) 
Heartbeat CPU 0 instructions: 33000002 cycles: 16543209 heartbeat IPC: 1.77858 cumulative IPC: 1.99478 (Simulation time: 0 hr 22 min 10 sec) 
Heartbeat CPU 0 instructions: 34000001 cycles: 17104046 heartbeat IPC: 1.78305 cumulative IPC: 1.98783 (Simulation time: 0 hr 22 min 51 sec) 
Heartbeat CPU 0 instructions: 35000001 cycles: 17665333 heartbeat IPC: 1.78162 cumulative IPC: 1.98128 (Simulation time: 0 hr 23 min 34 sec) 
Heartbeat CPU 0 instructions: 36000000 cycles: 18227987 heartbeat IPC: 1.77729 cumulative IPC: 1.97499 (Simulation time: 0 hr 24 min 13 sec) 
Heartbeat CPU 0 instructions: 37000002 cycles: 18801964 heartbeat IPC: 1.74223 cumulative IPC: 1.96788 (Simulation time: 0 hr 24 min 52 sec) 
Heartbeat CPU 0 instructions: 38000002 cycles: 19375820 heartbeat IPC: 1.7426 cumulative IPC: 1.96121 (Simulation time: 0 hr 25 min 30 sec) 
Heartbeat CPU 0 instructions: 39000000 cycles: 19949515 heartbeat IPC: 1.74308 cumulative IPC: 1.95493 (Simulation time: 0 hr 26 min 11 sec) 
Heartbeat CPU 0 instructions: 40000000 cycles: 20523405 heartbeat IPC: 1.74249 cumulative IPC: 1.94899 (Simulation time: 0 hr 26 min 59 sec) 
Heartbeat CPU 0 instructions: 41000002 cycles: 21096868 heartbeat IPC: 1.7438 cumulative IPC: 1.94342 (Simulation time: 0 hr 27 min 41 sec) 
Heartbeat CPU 0 instructions: 42000000 cycles: 21670638 heartbeat IPC: 1.74286 cumulative IPC: 1.93811 (Simulation time: 0 hr 28 min 20 sec) 
Heartbeat CPU 0 instructions: 43000002 cycles: 22218184 heartbeat IPC: 1.82633 cumulative IPC: 1.93535 (Simulation time: 0 hr 29 min 3 sec) 
Heartbeat CPU 0 instructions: 44000000 cycles: 22751780 heartbeat IPC: 1.87407 cumulative IPC: 1.93391 (Simulation time: 0 hr 29 min 49 sec) 
Heartbeat CPU 0 instructions: 45000001 cycles: 23285185 heartbeat IPC: 1.87475 cumulative IPC: 1.93256 (Simulation time: 0 hr 30 min 38 sec) 
Heartbeat CPU 0 instructions: 46000001 cycles: 23818724 heartbeat IPC: 1.87428 cumulative IPC: 1.93125 (Simulation time: 0 hr 31 min 17 sec) 
Heartbeat CPU 0 instructions: 47000003 cycles: 24352185 heartbeat IPC: 1.87455 cumulative IPC: 1.93001 (Simulation time: 0 hr 31 min 57 sec) 
Heartbeat CPU 0 instructions: 48000000 cycles: 24891950 heartbeat IPC: 1.85265 cumulative IPC: 1.92833 (Simulation time: 0 hr 32 min 40 sec) 
Heartbeat CPU 0 instructions: 49000003 cycles: 25438899 heartbeat IPC: 1.82833 cumulative IPC: 1.92618 (Simulation time: 0 hr 33 min 32 sec) 
Heartbeat CPU 0 instructions: 50000003 cycles: 25986026 heartbeat IPC: 1.82773 cumulative IPC: 1.92411 (Simulation time: 0 hr 34 min 25 sec) 

Warmup complete CPU 0 instructions: 50000003 cycles: 25986026 (Simulation time: 0 hr 34 min 25 sec) 

Heartbeat CPU 0 instructions: 51000003 cycles: 29571330 heartbeat IPC: 0.278916 cumulative IPC: 0.278916 (Simulation time: 0 hr 35 min 23 sec) 
Heartbeat CPU 0 instructions: 52000000 cycles: 33155782 heartbeat IPC: 0.278982 cumulative IPC: 0.278949 (Simulation time: 0 hr 36 min 23 sec) 
Heartbeat CPU 0 instructions: 53000002 cycles: 36888849 heartbeat IPC: 0.267877 cumulative IPC: 0.275158 (Simulation time: 0 hr 37 min 27 sec) 
Heartbeat CPU 0 instructions: 54000001 cycles: 39007439 heartbeat IPC: 0.472012 cumulative IPC: 0.307186 (Simulation time: 0 hr 38 min 17 sec) 
Heartbeat CPU 0 instructions: 55000002 cycles: 40812901 heartbeat IPC: 0.553875 cumulative IPC: 0.337225 (Simulation time: 0 hr 39 min 4 sec) 
Heartbeat CPU 0 instructions: 56000000 cycles: 42666370 heartbeat IPC: 0.539528 cumulative IPC: 0.359705 (Simulation time: 0 hr 39 min 55 sec) 
Heartbeat CPU 0 instructions: 57000002 cycles: 44505161 heartbeat IPC: 0.543837 cumulative IPC: 0.377987 (Simulation time: 0 hr 40 min 49 sec) 
Heartbeat CPU 0 instructions: 58000001 cycles: 46275524 heartbeat IPC: 0.564855 cumulative IPC: 0.394293 (Simulation time: 0 hr 41 min 35 sec) 
Heartbeat CPU 0 instructions: 59000002 cycles: 48404153 heartbeat IPC: 0.469786 cumulative IPC: 0.401461 (Simulation time: 0 hr 42 min 28 sec) 
Heartbeat CPU 0 instructions: 60000000 cycles: 49932471 heartbeat IPC: 0.654313 cumulative IPC: 0.417598 (Simulation time: 0 hr 43 min 19 sec) 
Heartbeat CPU 0 instructions: 61000002 cycles: 51462140 heartbeat IPC: 0.653737 cumulative IPC: 0.431777 (Simulation time: 0 hr 44 min 10 sec) 
Heartbeat CPU 0 instructions: 62000000 cycles: 53002399 heartbeat IPC: 0.64924 cumulative IPC: 0.444175 (Simulation time: 0 hr 45 min 3 sec) 
Heartbeat CPU 0 instructions: 63000000 cycles: 54561137 heartbeat IPC: 0.641545 cumulative IPC: 0.454941 (Simulation time: 0 hr 45 min 53 sec) 
Heartbeat CPU 0 instructions: 64000000 cycles: 56598630 heartbeat IPC: 0.490799 cumulative IPC: 0.457328 (Simulation time: 0 hr 46 min 45 sec) 
Heartbeat CPU 0 instructions: 65000001 cycles: 57970591 heartbeat IPC: 0.728884 cumulative IPC: 0.468976 (Simulation time: 0 hr 47 min 32 sec) 
Heartbeat CPU 0 instructions: 66000003 cycles: 59313526 heartbeat IPC: 0.744639 cumulative IPC: 0.480084 (Simulation time: 0 hr 48 min 18 sec) 
Heartbeat CPU 0 instructions: 67000003 cycles: 60656440 heartbeat IPC: 0.744649 cumulative IPC: 0.490332 (Simulation time: 0 hr 49 min 1 sec) 
Heartbeat CPU 0 instructions: 68000000 cycles: 61993252 heartbeat IPC: 0.748046 cumulative IPC: 0.4999 (Simulation time: 0 hr 49 min 45 sec) 
Heartbeat CPU 0 instructions: 69000000 cycles: 63328184 heartbeat IPC: 0.749102 cumulative IPC: 0.508808 (Simulation time: 0 hr 50 min 27 sec) 
Heartbeat CPU 0 instructions: 70000000 cycles: 65119444 heartbeat IPC: 0.558266 cumulative IPC: 0.511072 (Simulation time: 0 hr 51 min 16 sec) 
Heartbeat CPU 0 instructions: 71000000 cycles: 66661877 heartbeat IPC: 0.648326 cumulative IPC: 0.516277 (Simulation time: 0 hr 52 min 2 sec) 
Heartbeat CPU 0 instructions: 72000000 cycles: 68019523 heartbeat IPC: 0.736569 cumulative IPC: 0.523392 (Simulation time: 0 hr 52 min 46 sec) 
Heartbeat CPU 0 instructions: 73000002 cycles: 69379890 heartbeat IPC: 0.735097 cumulative IPC: 0.530029 (Simulation time: 0 hr 53 min 31 sec) 
Heartbeat CPU 0 instructions: 74000000 cycles: 70741962 heartbeat IPC: 0.734174 cumulative IPC: 0.536242 (Simulation time: 0 hr 54 min 19 sec) 
Heartbeat CPU 0 instructions: 75000000 cycles: 72108940 heartbeat IPC: 0.731541 cumulative IPC: 0.54203 (Simulation time: 0 hr 55 min 6 sec) 
Heartbeat CPU 0 instructions: 76000000 cycles: 73473969 heartbeat IPC: 0.732585 cumulative IPC: 0.547507 (Simulation time: 0 hr 55 min 49 sec) 
Heartbeat CPU 0 instructions: 77000001 cycles: 77037213 heartbeat IPC: 0.280643 cumulative IPC: 0.528881 (Simulation time: 0 hr 56 min 52 sec) 
Heartbeat CPU 0 instructions: 78000000 cycles: 80434131 heartbeat IPC: 0.294384 cumulative IPC: 0.514251 (Simulation time: 0 hr 57 min 49 sec) 
Heartbeat CPU 0 instructions: 79000002 cycles: 83820330 heartbeat IPC: 0.295317 cumulative IPC: 0.501432 (Simulation time: 0 hr 58 min 52 sec) 
Heartbeat CPU 0 instructions: 80000000 cycles: 87208974 heartbeat IPC: 0.295103 cumulative IPC: 0.490012 (Simulation time: 0 hr 59 min 51 sec) 
Heartbeat CPU 0 instructions: 81000000 cycles: 90597605 heartbeat IPC: 0.295104 cumulative IPC: 0.47979 (Simulation time: 1 hr 0 min 48 sec) 
Heartbeat CPU 0 instructions: 82000002 cycles: 94561817 heartbeat IPC: 0.252257 cumulative IPC: 0.466637 (Simulation time: 1 hr 1 min 50 sec) 
Heartbeat CPU 0 instructions: 83000002 cycles: 98178376 heartbeat IPC: 0.276506 cumulative IPC: 0.457112 (Simulation time: 1 hr 2 min 53 sec) 
Heartbeat CPU 0 instructions: 84000000 cycles: 101800918 heartbeat IPC: 0.276049 cumulative IPC: 0.448461 (Simulation time: 1 hr 3 min 58 sec) 
Heartbeat CPU 0 instructions: 85000000 cycles: 105420533 heartbeat IPC: 0.276272 cumulative IPC: 0.440615 (Simulation time: 1 hr 4 min 56 sec) 
Heartbeat CPU 0 instructions: 86000000 cycles: 109041743 heartbeat IPC: 0.276151 cumulative IPC: 0.433444 (Simulation time: 1 hr 6 min 1 sec) 
Heartbeat CPU 0 instructions: 87000000 cycles: 112743666 heartbeat IPC: 0.27013 cumulative IPC: 0.426475 (Simulation time: 1 hr 6 min 54 sec) 
Heartbeat CPU 0 instructions: 88000000 cycles: 114471031 heartbeat IPC: 0.578916 cumulative IPC: 0.429451 (Simulation time: 1 hr 7 min 39 sec) 
Heartbeat CPU 0 instructions: 89000001 cycles: 116077629 heartbeat IPC: 0.622434 cumulative IPC: 0.432893 (Simulation time: 1 hr 8 min 23 sec) 
Heartbeat CPU 0 instructions: 90000001 cycles: 117682370 heartbeat IPC: 0.623154 cumulative IPC: 0.436222 (Simulation time: 1 hr 9 min 7 sec) 
Heartbeat CPU 0 instructions: 91000001 cycles: 119291888 heartbeat IPC: 0.621304 cumulative IPC: 0.439415 (Simulation time: 1 hr 9 min 50 sec) 
Heartbeat CPU 0 instructions: 92000000 cycles: 120900922 heartbeat IPC: 0.62149 cumulative IPC: 0.442502 (Simulation time: 1 hr 10 min 32 sec) 
Heartbeat CPU 0 instructions: 93000002 cycles: 122981394 heartbeat IPC: 0.480661 cumulative IPC: 0.44332 (Simulation time: 1 hr 11 min 19 sec) 
Heartbeat CPU 0 instructions: 94000001 cycles: 124384303 heartbeat IPC: 0.712804 cumulative IPC: 0.447162 (Simulation time: 1 hr 12 min 3 sec) 
Heartbeat CPU 0 instructions: 95000000 cycles: 125780868 heartbeat IPC: 0.716042 cumulative IPC: 0.450925 (Simulation time: 1 hr 12 min 46 sec) 
Heartbeat CPU 0 instructions: 96000000 cycles: 127187488 heartbeat IPC: 0.710924 cumulative IPC: 0.454539 (Simulation time: 1 hr 13 min 28 sec) 
Heartbeat CPU 0 instructions: 97000001 cycles: 128588472 heartbeat IPC: 0.713785 cumulative IPC: 0.458079 (Simulation time: 1 hr 14 min 10 sec) 
Heartbeat CPU 0 instructions: 98000000 cycles: 130564581 heartbeat IPC: 0.506044 cumulative IPC: 0.458985 (Simulation time: 1 hr 14 min 49 sec) 
Heartbeat CPU 0 instructions: 99000001 cycles: 131927540 heartbeat IPC: 0.733699 cumulative IPC: 0.462519 (Simulation time: 1 hr 15 min 22 sec) 
Heartbeat CPU 0 instructions: 100000000 cycles: 133291978 heartbeat IPC: 0.732902 cumulative IPC: 0.465957 (Simulation time: 1 hr 15 min 52 sec) 
Heartbeat CPU 0 instructions: 101000002 cycles: 134651890 heartbeat IPC: 0.735343 cumulative IPC: 0.469329 (Simulation time: 1 hr 16 min 22 sec) 
Heartbeat CPU 0 instructions: 102000003 cycles: 136015018 heartbeat IPC: 0.733608 cumulative IPC: 0.472603 (Simulation time: 1 hr 16 min 51 sec) 
Heartbeat CPU 0 instructions: 103000000 cycles: 137375576 heartbeat IPC: 0.73499 cumulative IPC: 0.475808 (Simulation time: 1 hr 17 min 20 sec) 
Heartbeat CPU 0 instructions: 104000000 cycles: 139318957 heartbeat IPC: 0.514567 cumulative IPC: 0.476472 (Simulation time: 1 hr 17 min 51 sec) 
Heartbeat CPU 0 instructions: 105000003 cycles: 140794868 heartbeat IPC: 0.67755 cumulative IPC: 0.479057 (Simulation time: 1 hr 18 min 22 sec) 
Heartbeat CPU 0 instructions: 106000001 cycles: 142172908 heartbeat IPC: 0.725667 cumulative IPC: 0.481982 (Simulation time: 1 hr 18 min 48 sec) 
Heartbeat CPU 0 instructions: 107000001 cycles: 143561058 heartbeat IPC: 0.720383 cumulative IPC: 0.484797 (Simulation time: 1 hr 19 min 16 sec) 
Heartbeat CPU 0 instructions: 108000000 cycles: 144939154 heartbeat IPC: 0.725638 cumulative IPC: 0.487587 (Simulation time: 1 hr 19 min 43 sec) 
Heartbeat CPU 0 instructions: 109000000 cycles: 146318366 heartbeat IPC: 0.725052 cumulative IPC: 0.490309 (Simulation time: 1 hr 20 min 9 sec) 
Heartbeat CPU 0 instructions: 110000002 cycles: 148095570 heartbeat IPC: 0.562683 cumulative IPC: 0.491362 (Simulation time: 1 hr 20 min 35 sec) 
Heartbeat CPU 0 instructions: 111000002 cycles: 151603772 heartbeat IPC: 0.285046 cumulative IPC: 0.4856 (Simulation time: 1 hr 21 min 6 sec) 
Heartbeat CPU 0 instructions: 112000000 cycles: 154947020 heartbeat IPC: 0.29911 cumulative IPC: 0.480765 (Simulation time: 1 hr 21 min 36 sec) 
Heartbeat CPU 0 instructions: 113000001 cycles: 158285046 heartbeat IPC: 0.299579 cumulative IPC: 0.476194 (Simulation time: 1 hr 22 min 6 sec) 
Heartbeat CPU 0 instructions: 114000000 cycles: 161625882 heartbeat IPC: 0.299326 cumulative IPC: 0.471838 (Simulation time: 1 hr 22 min 36 sec) 
Heartbeat CPU 0 instructions: 115000002 cycles: 164959610 heartbeat IPC: 0.299965 cumulative IPC: 0.467715 (Simulation time: 1 hr 23 min 4 sec) 
Heartbeat CPU 0 instructions: 116000000 cycles: 168905658 heartbeat IPC: 0.253418 cumulative IPC: 0.461798 (Simulation time: 1 hr 23 min 30 sec) 
Heartbeat CPU 0 instructions: 117000000 cycles: 172509452 heartbeat IPC: 0.277485 cumulative IPC: 0.457265 (Simulation time: 1 hr 23 min 54 sec) 
Heartbeat CPU 0 instructions: 118000000 cycles: 176112177 heartbeat IPC: 0.277568 cumulative IPC: 0.452952 (Simulation time: 1 hr 24 min 17 sec) 
Heartbeat CPU 0 instructions: 119000003 cycles: 179717751 heartbeat IPC: 0.277349 cumulative IPC: 0.448834 (Simulation time: 1 hr 24 min 39 sec) 
Heartbeat CPU 0 instructions: 120000000 cycles: 183315101 heartbeat IPC: 0.277982 cumulative IPC: 0.444927 (Simulation time: 1 hr 25 min 1 sec) 
Heartbeat CPU 0 instructions: 121000001 cycles: 186717033 heartbeat IPC: 0.293951 cumulative IPC: 0.441732 (Simulation time: 1 hr 25 min 21 sec) 
Heartbeat CPU 0 instructions: 122000001 cycles: 188672821 heartbeat IPC: 0.511303 cumulative IPC: 0.442568 (Simulation time: 1 hr 25 min 38 sec) 
Heartbeat CPU 0 instructions: 123000000 cycles: 190607471 heartbeat IPC: 0.516889 cumulative IPC: 0.443442 (Simulation time: 1 hr 25 min 55 sec) 
Heartbeat CPU 0 instructions: 124000000 cycles: 192549572 heartbeat IPC: 0.514906 cumulative IPC: 0.444275 (Simulation time: 1 hr 26 min 13 sec) 
Heartbeat CPU 0 instructions: 125000001 cycles: 194490441 heartbeat IPC: 0.515234 cumulative IPC: 0.445092 (Simulation time: 1 hr 26 min 31 sec) 
Heartbeat CPU 0 instructions: 126000001 cycles: 196875406 heartbeat IPC: 0.419293 cumulative IPC: 0.444732 (Simulation time: 1 hr 26 min 47 sec) 
Heartbeat CPU 0 instructions: 127000000 cycles: 198927333 heartbeat IPC: 0.487346 cumulative IPC: 0.445238 (Simulation time: 1 hr 26 min 59 sec) 
Heartbeat CPU 0 instructions: 128000000 cycles: 200883678 heartbeat IPC: 0.511157 cumulative IPC: 0.445975 (Simulation time: 1 hr 27 min 10 sec) 
Heartbeat CPU 0 instructions: 129000000 cycles: 202773977 heartbeat IPC: 0.529017 cumulative IPC: 0.446863 (Simulation time: 1 hr 27 min 19 sec) 
Heartbeat CPU 0 instructions: 130000003 cycles: 204703609 heartbeat IPC: 0.518235 cumulative IPC: 0.447634 (Simulation time: 1 hr 27 min 27 sec) 
Heartbeat CPU 0 instructions: 131000001 cycles: 206669981 heartbeat IPC: 0.50855 cumulative IPC: 0.448297 (Simulation time: 1 hr 27 min 34 sec) 
Heartbeat CPU 0 instructions: 132000000 cycles: 208613374 heartbeat IPC: 0.514563 cumulative IPC: 0.449002 (Simulation time: 1 hr 27 min 41 sec) 
Heartbeat CPU 0 instructions: 133000000 cycles: 209959691 heartbeat IPC: 0.742767 cumulative IPC: 0.451152 (Simulation time: 1 hr 27 min 47 sec) 
Heartbeat CPU 0 instructions: 134000003 cycles: 211310350 heartbeat IPC: 0.740382 cumulative IPC: 0.453259 (Simulation time: 1 hr 27 min 53 sec) 
Heartbeat CPU 0 instructions: 135000001 cycles: 212662295 heartbeat IPC: 0.739674 cumulative IPC: 0.455334 (Simulation time: 1 hr 27 min 59 sec) 
Heartbeat CPU 0 instructions: 136000000 cycles: 214012894 heartbeat IPC: 0.740411 cumulative IPC: 0.457381 (Simulation time: 1 hr 28 min 6 sec) 
Heartbeat CPU 0 instructions: 137000001 cycles: 215363090 heartbeat IPC: 0.740634 cumulative IPC: 0.459401 (Simulation time: 1 hr 28 min 11 sec) 
Heartbeat CPU 0 instructions: 138000000 cycles: 217389219 heartbeat IPC: 0.493551 cumulative IPC: 0.459762 (Simulation time: 1 hr 28 min 17 sec) 
Heartbeat CPU 0 instructions: 139000001 cycles: 218772365 heartbeat IPC: 0.72299 cumulative IPC: 0.461651 (Simulation time: 1 hr 28 min 23 sec) 
Heartbeat CPU 0 instructions: 140000000 cycles: 220141742 heartbeat IPC: 0.730258 cumulative IPC: 0.463545 (Simulation time: 1 hr 28 min 28 sec) 
Heartbeat CPU 0 instructions: 141000000 cycles: 221515795 heartbeat IPC: 0.727774 cumulative IPC: 0.465402 (Simulation time: 1 hr 28 min 34 sec) 
Heartbeat CPU 0 instructions: 142000002 cycles: 222881151 heartbeat IPC: 0.732411 cumulative IPC: 0.467254 (Simulation time: 1 hr 28 min 40 sec) 
Heartbeat CPU 0 instructions: 143000000 cycles: 224246195 heartbeat IPC: 0.732576 cumulative IPC: 0.469081 (Simulation time: 1 hr 28 min 45 sec) 
Heartbeat CPU 0 instructions: 144000000 cycles: 225649965 heartbeat IPC: 0.712367 cumulative IPC: 0.470791 (Simulation time: 1 hr 28 min 51 sec) 
Heartbeat CPU 0 instructions: 145000000 cycles: 227124847 heartbeat IPC: 0.67802 cumulative IPC: 0.472311 (Simulation time: 1 hr 28 min 55 sec) 
Heartbeat CPU 0 instructions: 146000001 cycles: 228593545 heartbeat IPC: 0.680876 cumulative IPC: 0.473822 (Simulation time: 1 hr 29 min 0 sec) 
Heartbeat CPU 0 instructions: 147000003 cycles: 230166502 heartbeat IPC: 0.635747 cumulative IPC: 0.47507 (Simulation time: 1 hr 29 min 4 sec) 
Heartbeat CPU 0 instructions: 148000000 cycles: 231766093 heartbeat IPC: 0.625158 cumulative IPC: 0.476237 (Simulation time: 1 hr 29 min 9 sec) 
Heartbeat CPU 0 instructions: 149000002 cycles: 233334492 heartbeat IPC: 0.637594 cumulative IPC: 0.477457 (Simulation time: 1 hr 29 min 13 sec) 
Heartbeat CPU 0 instructions: 150000003 cycles: 234932179 heartbeat IPC: 0.625905 cumulative IPC: 0.478592 (Simulation time: 1 hr 29 min 19 sec) 
Finished CPU 0 instructions: 100000000 cycles: 208946153 cummulative IPC: 0.478592 (Simulation time: 1 hr 29 min 19 sec) 

ChampSim completed all CPUs

Region of Interest Statistics

CPU 0 cummulative IPC: 0.478592 instructions: 100000000 cycles: 208946153
LLC TOTAL     ACCESS:   12337575  HIT:   10078631  MISS:    2258944
LLC LOAD      ACCESS:    4933143  HIT:    4185273  MISS:     747870
LLC RFO       ACCESS:         16  HIT:          0  MISS:         16
LLC PREFETCH  ACCESS:    6495354  HIT:    5049551  MISS:    1445803
LLC WRITEBACK ACCESS:     909062  HIT:     843807  MISS:      65255
OPTgen accesses: 111176
OPTgen hits: 174086
OPTgen hit rate: 156.586


