
*** ChampSim Multicore Out-of-Order Simulator ***

Warmup Instructions: 50000000
Simulation Instructions: 100000000
Configuration: 2
Number of CPUs: 1
LLC sets: 2048
LLC ways: 16
Off-chip DRAM Channels: 1 Width: 64-bit Data Rate: 1600 MT/s

CPU 0 runs /datasets/cs240c-wi22-a00-public/data/Assignment2-gz/omnetpp_340B.trace.gz
CPU 0 L1D next line prefetcher
CPU 0 L2C IP-based stride prefetcher
Initialize Hawkeye state
Heartbeat CPU 0 instructions: 1000001 cycles: 576945 heartbeat IPC: 1.73327 cumulative IPC: 1.73327 (Simulation time: 0 hr 0 min 40 sec) 
Heartbeat CPU 0 instructions: 2000000 cycles: 1160881 heartbeat IPC: 1.71251 cumulative IPC: 1.72283 (Simulation time: 0 hr 1 min 17 sec) 
Heartbeat CPU 0 instructions: 3000001 cycles: 1758188 heartbeat IPC: 1.67418 cumulative IPC: 1.7063 (Simulation time: 0 hr 1 min 54 sec) 
Heartbeat CPU 0 instructions: 4000000 cycles: 2379201 heartbeat IPC: 1.61027 cumulative IPC: 1.68124 (Simulation time: 0 hr 2 min 33 sec) 
Heartbeat CPU 0 instructions: 5000002 cycles: 2954755 heartbeat IPC: 1.73746 cumulative IPC: 1.69219 (Simulation time: 0 hr 3 min 12 sec) 
Heartbeat CPU 0 instructions: 6000003 cycles: 3556198 heartbeat IPC: 1.66267 cumulative IPC: 1.6872 (Simulation time: 0 hr 3 min 53 sec) 
Heartbeat CPU 0 instructions: 7000003 cycles: 4205600 heartbeat IPC: 1.53988 cumulative IPC: 1.66445 (Simulation time: 0 hr 4 min 30 sec) 
Heartbeat CPU 0 instructions: 8000000 cycles: 4800109 heartbeat IPC: 1.68206 cumulative IPC: 1.66663 (Simulation time: 0 hr 5 min 9 sec) 
Heartbeat CPU 0 instructions: 9000002 cycles: 5433380 heartbeat IPC: 1.57911 cumulative IPC: 1.65643 (Simulation time: 0 hr 5 min 50 sec) 
Heartbeat CPU 0 instructions: 10000002 cycles: 6027951 heartbeat IPC: 1.68188 cumulative IPC: 1.65894 (Simulation time: 0 hr 6 min 33 sec) 
Heartbeat CPU 0 instructions: 11000003 cycles: 6627411 heartbeat IPC: 1.66817 cumulative IPC: 1.65977 (Simulation time: 0 hr 7 min 10 sec) 
Heartbeat CPU 0 instructions: 12000000 cycles: 7229919 heartbeat IPC: 1.65972 cumulative IPC: 1.65977 (Simulation time: 0 hr 7 min 48 sec) 
Heartbeat CPU 0 instructions: 13000002 cycles: 7833426 heartbeat IPC: 1.65698 cumulative IPC: 1.65956 (Simulation time: 0 hr 8 min 28 sec) 
Heartbeat CPU 0 instructions: 14000000 cycles: 8429257 heartbeat IPC: 1.67832 cumulative IPC: 1.66088 (Simulation time: 0 hr 9 min 8 sec) 
Heartbeat CPU 0 instructions: 15000001 cycles: 9020907 heartbeat IPC: 1.69019 cumulative IPC: 1.6628 (Simulation time: 0 hr 9 min 49 sec) 
Heartbeat CPU 0 instructions: 16000000 cycles: 9644041 heartbeat IPC: 1.60479 cumulative IPC: 1.65906 (Simulation time: 0 hr 10 min 26 sec) 
Heartbeat CPU 0 instructions: 17000000 cycles: 10249853 heartbeat IPC: 1.65068 cumulative IPC: 1.65856 (Simulation time: 0 hr 11 min 5 sec) 
Heartbeat CPU 0 instructions: 18000000 cycles: 10870214 heartbeat IPC: 1.61196 cumulative IPC: 1.6559 (Simulation time: 0 hr 11 min 43 sec) 
Heartbeat CPU 0 instructions: 19000000 cycles: 11501818 heartbeat IPC: 1.58327 cumulative IPC: 1.65191 (Simulation time: 0 hr 12 min 26 sec) 
Heartbeat CPU 0 instructions: 20000000 cycles: 12087975 heartbeat IPC: 1.70603 cumulative IPC: 1.65454 (Simulation time: 0 hr 13 min 7 sec) 
Heartbeat CPU 0 instructions: 21000000 cycles: 12685480 heartbeat IPC: 1.67363 cumulative IPC: 1.65544 (Simulation time: 0 hr 13 min 47 sec) 
Heartbeat CPU 0 instructions: 22000001 cycles: 13299893 heartbeat IPC: 1.62757 cumulative IPC: 1.65415 (Simulation time: 0 hr 14 min 23 sec) 
Heartbeat CPU 0 instructions: 23000001 cycles: 13921878 heartbeat IPC: 1.60776 cumulative IPC: 1.65208 (Simulation time: 0 hr 14 min 59 sec) 
Heartbeat CPU 0 instructions: 24000000 cycles: 14544872 heartbeat IPC: 1.60515 cumulative IPC: 1.65007 (Simulation time: 0 hr 15 min 35 sec) 
Heartbeat CPU 0 instructions: 25000001 cycles: 15161882 heartbeat IPC: 1.62072 cumulative IPC: 1.64887 (Simulation time: 0 hr 16 min 12 sec) 
Heartbeat CPU 0 instructions: 26000001 cycles: 15752638 heartbeat IPC: 1.69275 cumulative IPC: 1.65052 (Simulation time: 0 hr 16 min 50 sec) 
Heartbeat CPU 0 instructions: 27000000 cycles: 16323417 heartbeat IPC: 1.75199 cumulative IPC: 1.65407 (Simulation time: 0 hr 17 min 30 sec) 
Heartbeat CPU 0 instructions: 28000000 cycles: 16918871 heartbeat IPC: 1.67939 cumulative IPC: 1.65496 (Simulation time: 0 hr 18 min 9 sec) 
Heartbeat CPU 0 instructions: 29000003 cycles: 17542541 heartbeat IPC: 1.60342 cumulative IPC: 1.65312 (Simulation time: 0 hr 18 min 48 sec) 
Heartbeat CPU 0 instructions: 30000003 cycles: 18119627 heartbeat IPC: 1.73284 cumulative IPC: 1.65566 (Simulation time: 0 hr 19 min 24 sec) 
Heartbeat CPU 0 instructions: 31000001 cycles: 18728490 heartbeat IPC: 1.6424 cumulative IPC: 1.65523 (Simulation time: 0 hr 20 min 5 sec) 
Heartbeat CPU 0 instructions: 32000000 cycles: 19333777 heartbeat IPC: 1.65211 cumulative IPC: 1.65513 (Simulation time: 0 hr 20 min 40 sec) 
Heartbeat CPU 0 instructions: 33000001 cycles: 19913742 heartbeat IPC: 1.72424 cumulative IPC: 1.65715 (Simulation time: 0 hr 21 min 19 sec) 
Heartbeat CPU 0 instructions: 34000001 cycles: 20564604 heartbeat IPC: 1.53642 cumulative IPC: 1.65333 (Simulation time: 0 hr 21 min 55 sec) 
Heartbeat CPU 0 instructions: 35000002 cycles: 21144915 heartbeat IPC: 1.72322 cumulative IPC: 1.65524 (Simulation time: 0 hr 22 min 37 sec) 
Heartbeat CPU 0 instructions: 36000000 cycles: 21754348 heartbeat IPC: 1.64087 cumulative IPC: 1.65484 (Simulation time: 0 hr 23 min 15 sec) 
Heartbeat CPU 0 instructions: 37000002 cycles: 22393500 heartbeat IPC: 1.56458 cumulative IPC: 1.65227 (Simulation time: 0 hr 23 min 55 sec) 
Heartbeat CPU 0 instructions: 38000000 cycles: 22976412 heartbeat IPC: 1.71552 cumulative IPC: 1.65387 (Simulation time: 0 hr 24 min 32 sec) 
Heartbeat CPU 0 instructions: 39000001 cycles: 23645011 heartbeat IPC: 1.49567 cumulative IPC: 1.6494 (Simulation time: 0 hr 25 min 10 sec) 
Heartbeat CPU 0 instructions: 40000000 cycles: 24234845 heartbeat IPC: 1.69539 cumulative IPC: 1.65052 (Simulation time: 0 hr 25 min 46 sec) 
Heartbeat CPU 0 instructions: 41000000 cycles: 24823318 heartbeat IPC: 1.69931 cumulative IPC: 1.65167 (Simulation time: 0 hr 26 min 23 sec) 
Heartbeat CPU 0 instructions: 42000001 cycles: 25451212 heartbeat IPC: 1.59263 cumulative IPC: 1.65022 (Simulation time: 0 hr 26 min 59 sec) 
Heartbeat CPU 0 instructions: 43000003 cycles: 26057137 heartbeat IPC: 1.65037 cumulative IPC: 1.65022 (Simulation time: 0 hr 27 min 38 sec) 
Heartbeat CPU 0 instructions: 44000000 cycles: 26610628 heartbeat IPC: 1.80671 cumulative IPC: 1.65347 (Simulation time: 0 hr 28 min 12 sec) 
Heartbeat CPU 0 instructions: 45000003 cycles: 27169989 heartbeat IPC: 1.78776 cumulative IPC: 1.65624 (Simulation time: 0 hr 28 min 51 sec) 
Heartbeat CPU 0 instructions: 46000001 cycles: 27785228 heartbeat IPC: 1.62538 cumulative IPC: 1.65556 (Simulation time: 0 hr 29 min 27 sec) 
Heartbeat CPU 0 instructions: 47000000 cycles: 28358652 heartbeat IPC: 1.74391 cumulative IPC: 1.65734 (Simulation time: 0 hr 30 min 9 sec) 
Heartbeat CPU 0 instructions: 48000000 cycles: 28960663 heartbeat IPC: 1.6611 cumulative IPC: 1.65742 (Simulation time: 0 hr 30 min 52 sec) 
Heartbeat CPU 0 instructions: 49000000 cycles: 29540264 heartbeat IPC: 1.72532 cumulative IPC: 1.65875 (Simulation time: 0 hr 31 min 28 sec) 
Heartbeat CPU 0 instructions: 50000000 cycles: 30183623 heartbeat IPC: 1.55434 cumulative IPC: 1.65653 (Simulation time: 0 hr 32 min 5 sec) 

Warmup complete CPU 0 instructions: 50000004 cycles: 30183624 (Simulation time: 0 hr 32 min 5 sec) 

Heartbeat CPU 0 instructions: 51000003 cycles: 33952301 heartbeat IPC: 0.265346 cumulative IPC: 0.265345 (Simulation time: 0 hr 32 min 56 sec) 
Heartbeat CPU 0 instructions: 52000000 cycles: 37965785 heartbeat IPC: 0.249159 cumulative IPC: 0.256997 (Simulation time: 0 hr 34 min 0 sec) 
Heartbeat CPU 0 instructions: 53000000 cycles: 42527249 heartbeat IPC: 0.219228 cumulative IPC: 0.24304 (Simulation time: 0 hr 34 min 49 sec) 
Heartbeat CPU 0 instructions: 54000002 cycles: 46600795 heartbeat IPC: 0.245487 cumulative IPC: 0.243647 (Simulation time: 0 hr 35 min 37 sec) 
Heartbeat CPU 0 instructions: 55000001 cycles: 50444783 heartbeat IPC: 0.260146 cumulative IPC: 0.246777 (Simulation time: 0 hr 36 min 29 sec) 
Heartbeat CPU 0 instructions: 56000000 cycles: 54695154 heartbeat IPC: 0.235273 cumulative IPC: 0.244783 (Simulation time: 0 hr 37 min 20 sec) 
Heartbeat CPU 0 instructions: 57000001 cycles: 58758886 heartbeat IPC: 0.246079 cumulative IPC: 0.244967 (Simulation time: 0 hr 38 min 12 sec) 
Heartbeat CPU 0 instructions: 58000000 cycles: 62011784 heartbeat IPC: 0.307418 cumulative IPC: 0.25135 (Simulation time: 0 hr 38 min 58 sec) 
Heartbeat CPU 0 instructions: 59000003 cycles: 65944586 heartbeat IPC: 0.254272 cumulative IPC: 0.251671 (Simulation time: 0 hr 39 min 51 sec) 
Heartbeat CPU 0 instructions: 60000000 cycles: 70385291 heartbeat IPC: 0.225189 cumulative IPC: 0.248746 (Simulation time: 0 hr 40 min 41 sec) 
Heartbeat CPU 0 instructions: 61000001 cycles: 74836404 heartbeat IPC: 0.224663 cumulative IPC: 0.246345 (Simulation time: 0 hr 41 min 29 sec) 
Heartbeat CPU 0 instructions: 62000000 cycles: 79287772 heartbeat IPC: 0.22465 cumulative IPC: 0.244378 (Simulation time: 0 hr 42 min 18 sec) 
Heartbeat CPU 0 instructions: 63000001 cycles: 83006430 heartbeat IPC: 0.268914 cumulative IPC: 0.246106 (Simulation time: 0 hr 43 min 8 sec) 
Heartbeat CPU 0 instructions: 64000000 cycles: 86822845 heartbeat IPC: 0.262026 cumulative IPC: 0.247178 (Simulation time: 0 hr 43 min 53 sec) 
Heartbeat CPU 0 instructions: 65000001 cycles: 90234094 heartbeat IPC: 0.293148 cumulative IPC: 0.24979 (Simulation time: 0 hr 44 min 42 sec) 
Heartbeat CPU 0 instructions: 66000002 cycles: 94232101 heartbeat IPC: 0.250125 cumulative IPC: 0.249811 (Simulation time: 0 hr 45 min 29 sec) 
Heartbeat CPU 0 instructions: 67000002 cycles: 97973977 heartbeat IPC: 0.267246 cumulative IPC: 0.250773 (Simulation time: 0 hr 46 min 17 sec) 
Heartbeat CPU 0 instructions: 68000000 cycles: 101854390 heartbeat IPC: 0.257704 cumulative IPC: 0.251148 (Simulation time: 0 hr 47 min 9 sec) 
Heartbeat CPU 0 instructions: 69000000 cycles: 105868335 heartbeat IPC: 0.249131 cumulative IPC: 0.251041 (Simulation time: 0 hr 48 min 1 sec) 
Heartbeat CPU 0 instructions: 70000001 cycles: 109572921 heartbeat IPC: 0.269936 cumulative IPC: 0.251923 (Simulation time: 0 hr 48 min 47 sec) 
Heartbeat CPU 0 instructions: 71000003 cycles: 113523591 heartbeat IPC: 0.253122 cumulative IPC: 0.25198 (Simulation time: 0 hr 49 min 33 sec) 
Heartbeat CPU 0 instructions: 72000000 cycles: 118000900 heartbeat IPC: 0.223348 cumulative IPC: 0.25052 (Simulation time: 0 hr 50 min 25 sec) 
Heartbeat CPU 0 instructions: 73000002 cycles: 122016076 heartbeat IPC: 0.249056 cumulative IPC: 0.250456 (Simulation time: 0 hr 51 min 15 sec) 
Heartbeat CPU 0 instructions: 74000000 cycles: 125842188 heartbeat IPC: 0.261361 cumulative IPC: 0.250892 (Simulation time: 0 hr 52 min 4 sec) 
Heartbeat CPU 0 instructions: 75000003 cycles: 129861412 heartbeat IPC: 0.248805 cumulative IPC: 0.250808 (Simulation time: 0 hr 52 min 56 sec) 
Heartbeat CPU 0 instructions: 76000000 cycles: 133671833 heartbeat IPC: 0.262437 cumulative IPC: 0.251236 (Simulation time: 0 hr 53 min 43 sec) 
Heartbeat CPU 0 instructions: 77000002 cycles: 138290198 heartbeat IPC: 0.216527 cumulative IPC: 0.249754 (Simulation time: 0 hr 54 min 35 sec) 
Heartbeat CPU 0 instructions: 78000003 cycles: 142081209 heartbeat IPC: 0.263782 cumulative IPC: 0.250229 (Simulation time: 0 hr 55 min 24 sec) 
Heartbeat CPU 0 instructions: 79000002 cycles: 145936095 heartbeat IPC: 0.259411 cumulative IPC: 0.250535 (Simulation time: 0 hr 56 min 10 sec) 
Heartbeat CPU 0 instructions: 80000000 cycles: 149725184 heartbeat IPC: 0.263915 cumulative IPC: 0.250959 (Simulation time: 0 hr 56 min 56 sec) 
Heartbeat CPU 0 instructions: 81000002 cycles: 153812734 heartbeat IPC: 0.244646 cumulative IPC: 0.25075 (Simulation time: 0 hr 57 min 51 sec) 
Heartbeat CPU 0 instructions: 82000000 cycles: 158259152 heartbeat IPC: 0.2249 cumulative IPC: 0.249853 (Simulation time: 0 hr 58 min 41 sec) 
Heartbeat CPU 0 instructions: 83000002 cycles: 161931603 heartbeat IPC: 0.272298 cumulative IPC: 0.250478 (Simulation time: 0 hr 59 min 26 sec) 
Heartbeat CPU 0 instructions: 84000000 cycles: 165869286 heartbeat IPC: 0.253956 cumulative IPC: 0.250579 (Simulation time: 1 hr 0 min 16 sec) 
Heartbeat CPU 0 instructions: 85000000 cycles: 169622395 heartbeat IPC: 0.266446 cumulative IPC: 0.251006 (Simulation time: 1 hr 1 min 3 sec) 
Heartbeat CPU 0 instructions: 86000000 cycles: 173544983 heartbeat IPC: 0.254934 cumulative IPC: 0.251114 (Simulation time: 1 hr 1 min 55 sec) 
Heartbeat CPU 0 instructions: 87000001 cycles: 177346917 heartbeat IPC: 0.263024 cumulative IPC: 0.251421 (Simulation time: 1 hr 2 min 45 sec) 
Heartbeat CPU 0 instructions: 88000000 cycles: 181161543 heartbeat IPC: 0.262149 cumulative IPC: 0.251692 (Simulation time: 1 hr 3 min 31 sec) 
Heartbeat CPU 0 instructions: 89000003 cycles: 184687420 heartbeat IPC: 0.283618 cumulative IPC: 0.252421 (Simulation time: 1 hr 4 min 18 sec) 
Heartbeat CPU 0 instructions: 90000000 cycles: 188556353 heartbeat IPC: 0.258468 cumulative IPC: 0.252569 (Simulation time: 1 hr 5 min 6 sec) 
Heartbeat CPU 0 instructions: 91000001 cycles: 192192019 heartbeat IPC: 0.275053 cumulative IPC: 0.253073 (Simulation time: 1 hr 5 min 54 sec) 
Heartbeat CPU 0 instructions: 92000000 cycles: 196238902 heartbeat IPC: 0.247104 cumulative IPC: 0.252928 (Simulation time: 1 hr 6 min 45 sec) 
Heartbeat CPU 0 instructions: 93000001 cycles: 200663729 heartbeat IPC: 0.225998 cumulative IPC: 0.252229 (Simulation time: 1 hr 7 min 33 sec) 
Heartbeat CPU 0 instructions: 94000001 cycles: 204477744 heartbeat IPC: 0.262191 cumulative IPC: 0.252447 (Simulation time: 1 hr 8 min 21 sec) 
Heartbeat CPU 0 instructions: 95000000 cycles: 208465541 heartbeat IPC: 0.250765 cumulative IPC: 0.252409 (Simulation time: 1 hr 9 min 8 sec) 
Heartbeat CPU 0 instructions: 96000000 cycles: 212838736 heartbeat IPC: 0.228666 cumulative IPC: 0.251841 (Simulation time: 1 hr 9 min 52 sec) 
Heartbeat CPU 0 instructions: 97000000 cycles: 216436574 heartbeat IPC: 0.277945 cumulative IPC: 0.252345 (Simulation time: 1 hr 10 min 32 sec) 
Heartbeat CPU 0 instructions: 98000000 cycles: 220615005 heartbeat IPC: 0.239324 cumulative IPC: 0.252059 (Simulation time: 1 hr 11 min 16 sec) 
Heartbeat CPU 0 instructions: 99000000 cycles: 225113954 heartbeat IPC: 0.222274 cumulative IPC: 0.251372 (Simulation time: 1 hr 11 min 57 sec) 
Heartbeat CPU 0 instructions: 100000000 cycles: 229154730 heartbeat IPC: 0.247477 cumulative IPC: 0.251293 (Simulation time: 1 hr 12 min 35 sec) 
Heartbeat CPU 0 instructions: 101000000 cycles: 233050240 heartbeat IPC: 0.256706 cumulative IPC: 0.251397 (Simulation time: 1 hr 13 min 11 sec) 
Heartbeat CPU 0 instructions: 102000003 cycles: 237231664 heartbeat IPC: 0.239154 cumulative IPC: 0.251149 (Simulation time: 1 hr 13 min 48 sec) 
Heartbeat CPU 0 instructions: 103000000 cycles: 241005293 heartbeat IPC: 0.264996 cumulative IPC: 0.251397 (Simulation time: 1 hr 14 min 23 sec) 
Heartbeat CPU 0 instructions: 104000000 cycles: 244774904 heartbeat IPC: 0.265279 cumulative IPC: 0.251641 (Simulation time: 1 hr 14 min 56 sec) 
Heartbeat CPU 0 instructions: 105000003 cycles: 248822072 heartbeat IPC: 0.247087 cumulative IPC: 0.251557 (Simulation time: 1 hr 15 min 27 sec) 
Heartbeat CPU 0 instructions: 106000001 cycles: 252461031 heartbeat IPC: 0.274803 cumulative IPC: 0.251937 (Simulation time: 1 hr 15 min 55 sec) 
Heartbeat CPU 0 instructions: 107000000 cycles: 256673235 heartbeat IPC: 0.237405 cumulative IPC: 0.251667 (Simulation time: 1 hr 16 min 28 sec) 
Heartbeat CPU 0 instructions: 108000000 cycles: 260672934 heartbeat IPC: 0.250019 cumulative IPC: 0.251639 (Simulation time: 1 hr 16 min 59 sec) 
Heartbeat CPU 0 instructions: 109000000 cycles: 265153926 heartbeat IPC: 0.223165 cumulative IPC: 0.251096 (Simulation time: 1 hr 17 min 30 sec) 
Heartbeat CPU 0 instructions: 110000000 cycles: 268777067 heartbeat IPC: 0.276004 cumulative IPC: 0.251474 (Simulation time: 1 hr 18 min 0 sec) 
Heartbeat CPU 0 instructions: 111000002 cycles: 273232981 heartbeat IPC: 0.224421 cumulative IPC: 0.250978 (Simulation time: 1 hr 18 min 28 sec) 
Heartbeat CPU 0 instructions: 112000000 cycles: 277138037 heartbeat IPC: 0.256078 cumulative IPC: 0.251058 (Simulation time: 1 hr 18 min 55 sec) 
Heartbeat CPU 0 instructions: 113000002 cycles: 280721570 heartbeat IPC: 0.279055 cumulative IPC: 0.251459 (Simulation time: 1 hr 19 min 21 sec) 
Heartbeat CPU 0 instructions: 114000000 cycles: 284179011 heartbeat IPC: 0.289231 cumulative IPC: 0.251973 (Simulation time: 1 hr 19 min 46 sec) 
Heartbeat CPU 0 instructions: 115000000 cycles: 287914084 heartbeat IPC: 0.267732 cumulative IPC: 0.252201 (Simulation time: 1 hr 20 min 12 sec) 
Heartbeat CPU 0 instructions: 116000000 cycles: 292076935 heartbeat IPC: 0.24022 cumulative IPC: 0.252011 (Simulation time: 1 hr 20 min 38 sec) 
Heartbeat CPU 0 instructions: 117000000 cycles: 295839906 heartbeat IPC: 0.265747 cumulative IPC: 0.252206 (Simulation time: 1 hr 21 min 2 sec) 
Heartbeat CPU 0 instructions: 118000000 cycles: 299518641 heartbeat IPC: 0.271833 cumulative IPC: 0.252474 (Simulation time: 1 hr 21 min 24 sec) 
Heartbeat CPU 0 instructions: 119000001 cycles: 303323539 heartbeat IPC: 0.262819 cumulative IPC: 0.252618 (Simulation time: 1 hr 21 min 46 sec) 
Heartbeat CPU 0 instructions: 120000000 cycles: 306982355 heartbeat IPC: 0.273312 cumulative IPC: 0.252891 (Simulation time: 1 hr 22 min 8 sec) 
Heartbeat CPU 0 instructions: 121000001 cycles: 310481944 heartbeat IPC: 0.285748 cumulative IPC: 0.253302 (Simulation time: 1 hr 22 min 30 sec) 
Heartbeat CPU 0 instructions: 122000001 cycles: 314114940 heartbeat IPC: 0.275255 cumulative IPC: 0.253582 (Simulation time: 1 hr 22 min 52 sec) 
Heartbeat CPU 0 instructions: 123000000 cycles: 317743975 heartbeat IPC: 0.275555 cumulative IPC: 0.25386 (Simulation time: 1 hr 23 min 13 sec) 
Heartbeat CPU 0 instructions: 124000000 cycles: 321433451 heartbeat IPC: 0.271041 cumulative IPC: 0.254077 (Simulation time: 1 hr 23 min 34 sec) 
Heartbeat CPU 0 instructions: 125000001 cycles: 325075025 heartbeat IPC: 0.274607 cumulative IPC: 0.254331 (Simulation time: 1 hr 23 min 54 sec) 
Heartbeat CPU 0 instructions: 126000003 cycles: 328657753 heartbeat IPC: 0.279117 cumulative IPC: 0.254628 (Simulation time: 1 hr 24 min 12 sec) 
Heartbeat CPU 0 instructions: 127000001 cycles: 332186176 heartbeat IPC: 0.283412 cumulative IPC: 0.254965 (Simulation time: 1 hr 24 min 29 sec) 
Heartbeat CPU 0 instructions: 128000000 cycles: 335760205 heartbeat IPC: 0.279796 cumulative IPC: 0.255255 (Simulation time: 1 hr 24 min 45 sec) 
Heartbeat CPU 0 instructions: 129000001 cycles: 339053216 heartbeat IPC: 0.303674 cumulative IPC: 0.255771 (Simulation time: 1 hr 25 min 1 sec) 
Heartbeat CPU 0 instructions: 130000000 cycles: 342689480 heartbeat IPC: 0.275007 cumulative IPC: 0.255995 (Simulation time: 1 hr 25 min 16 sec) 
Heartbeat CPU 0 instructions: 131000000 cycles: 346360037 heartbeat IPC: 0.272438 cumulative IPC: 0.256186 (Simulation time: 1 hr 25 min 30 sec) 
Heartbeat CPU 0 instructions: 132000000 cycles: 350190254 heartbeat IPC: 0.261082 cumulative IPC: 0.256245 (Simulation time: 1 hr 25 min 44 sec) 
Heartbeat CPU 0 instructions: 133000003 cycles: 354070540 heartbeat IPC: 0.257714 cumulative IPC: 0.256262 (Simulation time: 1 hr 25 min 58 sec) 
Heartbeat CPU 0 instructions: 134000000 cycles: 358084299 heartbeat IPC: 0.249142 cumulative IPC: 0.256175 (Simulation time: 1 hr 26 min 13 sec) 
Heartbeat CPU 0 instructions: 135000001 cycles: 361923887 heartbeat IPC: 0.260445 cumulative IPC: 0.256225 (Simulation time: 1 hr 26 min 26 sec) 
Heartbeat CPU 0 instructions: 136000000 cycles: 365714633 heartbeat IPC: 0.2638 cumulative IPC: 0.25631 (Simulation time: 1 hr 26 min 40 sec) 
Heartbeat CPU 0 instructions: 137000000 cycles: 369574676 heartbeat IPC: 0.259064 cumulative IPC: 0.256341 (Simulation time: 1 hr 26 min 51 sec) 
Heartbeat CPU 0 instructions: 138000000 cycles: 373410018 heartbeat IPC: 0.260733 cumulative IPC: 0.256391 (Simulation time: 1 hr 27 min 2 sec) 
Heartbeat CPU 0 instructions: 139000000 cycles: 377467620 heartbeat IPC: 0.246451 cumulative IPC: 0.256274 (Simulation time: 1 hr 27 min 10 sec) 
Heartbeat CPU 0 instructions: 140000000 cycles: 381019572 heartbeat IPC: 0.281535 cumulative IPC: 0.25653 (Simulation time: 1 hr 27 min 18 sec) 
Heartbeat CPU 0 instructions: 141000001 cycles: 385332927 heartbeat IPC: 0.231838 cumulative IPC: 0.25623 (Simulation time: 1 hr 27 min 26 sec) 
Heartbeat CPU 0 instructions: 142000000 cycles: 389376739 heartbeat IPC: 0.247291 cumulative IPC: 0.25613 (Simulation time: 1 hr 27 min 33 sec) 
Heartbeat CPU 0 instructions: 143000000 cycles: 393514340 heartbeat IPC: 0.241686 cumulative IPC: 0.255965 (Simulation time: 1 hr 27 min 39 sec) 
Heartbeat CPU 0 instructions: 144000000 cycles: 397540615 heartbeat IPC: 0.248369 cumulative IPC: 0.255882 (Simulation time: 1 hr 27 min 46 sec) 
Heartbeat CPU 0 instructions: 145000001 cycles: 400872534 heartbeat IPC: 0.300128 cumulative IPC: 0.25628 (Simulation time: 1 hr 27 min 51 sec) 
Heartbeat CPU 0 instructions: 146000001 cycles: 405043831 heartbeat IPC: 0.239734 cumulative IPC: 0.256095 (Simulation time: 1 hr 27 min 58 sec) 
Heartbeat CPU 0 instructions: 147000002 cycles: 409251749 heartbeat IPC: 0.237647 cumulative IPC: 0.255891 (Simulation time: 1 hr 28 min 3 sec) 
Heartbeat CPU 0 instructions: 148000000 cycles: 413029289 heartbeat IPC: 0.264722 cumulative IPC: 0.255978 (Simulation time: 1 hr 28 min 8 sec) 
Heartbeat CPU 0 instructions: 149000000 cycles: 416774615 heartbeat IPC: 0.266999 cumulative IPC: 0.256085 (Simulation time: 1 hr 28 min 13 sec) 
Heartbeat CPU 0 instructions: 150000000 cycles: 419975546 heartbeat IPC: 0.312409 cumulative IPC: 0.256547 (Simulation time: 1 hr 28 min 18 sec) 
Finished CPU 0 instructions: 100000000 cycles: 389791923 cummulative IPC: 0.256547 (Simulation time: 1 hr 28 min 18 sec) 

ChampSim completed all CPUs

Region of Interest Statistics

CPU 0 cummulative IPC: 0.256547 instructions: 100000000 cycles: 389791923
LLC TOTAL     ACCESS:    4288134  HIT:    1638435  MISS:    2649699
LLC LOAD      ACCESS:    1519357  HIT:     465927  MISS:    1053430
LLC RFO       ACCESS:     246550  HIT:      99376  MISS:     147174
LLC PREFETCH  ACCESS:    1524674  HIT:     321481  MISS:    1203193
LLC WRITEBACK ACCESS:     997553  HIT:     751651  MISS:     245902
OPTgen accesses: 39546
OPTgen hits: 22440
OPTgen hit rate: 56.744


