
*** ChampSim Multicore Out-of-Order Simulator ***

Warmup Instructions: 50000000
Simulation Instructions: 100000000
Configuration: 2
Number of CPUs: 1
LLC sets: 2048
LLC ways: 16
Off-chip DRAM Channels: 1 Width: 64-bit Data Rate: 1600 MT/s

CPU 0 runs /datasets/cs240c-wi22-a00-public/data/Assignment2-gz/GemsFDTD_109B.trace.gz
CPU 0 L1D next line prefetcher
CPU 0 L2C IP-based stride prefetcher
Initialize Hawkeye state
Heartbeat CPU 0 instructions: 1000002 cycles: 579772 heartbeat IPC: 1.72482 cumulative IPC: 1.72482 (Simulation time: 0 hr 0 min 44 sec) 
Heartbeat CPU 0 instructions: 2000001 cycles: 1159543 heartbeat IPC: 1.72482 cumulative IPC: 1.72482 (Simulation time: 0 hr 1 min 27 sec) 
Heartbeat CPU 0 instructions: 3000000 cycles: 1738735 heartbeat IPC: 1.72654 cumulative IPC: 1.72539 (Simulation time: 0 hr 2 min 6 sec) 
Heartbeat CPU 0 instructions: 4000000 cycles: 2317737 heartbeat IPC: 1.72711 cumulative IPC: 1.72582 (Simulation time: 0 hr 2 min 49 sec) 
Heartbeat CPU 0 instructions: 5000000 cycles: 2897551 heartbeat IPC: 1.72469 cumulative IPC: 1.7256 (Simulation time: 0 hr 3 min 34 sec) 
Heartbeat CPU 0 instructions: 6000002 cycles: 3478271 heartbeat IPC: 1.722 cumulative IPC: 1.725 (Simulation time: 0 hr 4 min 16 sec) 
Heartbeat CPU 0 instructions: 7000001 cycles: 4058933 heartbeat IPC: 1.72217 cumulative IPC: 1.72459 (Simulation time: 0 hr 5 min 1 sec) 
Heartbeat CPU 0 instructions: 8000000 cycles: 4639129 heartbeat IPC: 1.72355 cumulative IPC: 1.72446 (Simulation time: 0 hr 5 min 45 sec) 
Heartbeat CPU 0 instructions: 9000002 cycles: 5219299 heartbeat IPC: 1.72364 cumulative IPC: 1.72437 (Simulation time: 0 hr 6 min 27 sec) 
Heartbeat CPU 0 instructions: 10000001 cycles: 5799482 heartbeat IPC: 1.72359 cumulative IPC: 1.72429 (Simulation time: 0 hr 7 min 7 sec) 
Heartbeat CPU 0 instructions: 11000000 cycles: 6379303 heartbeat IPC: 1.72467 cumulative IPC: 1.72433 (Simulation time: 0 hr 7 min 50 sec) 
Heartbeat CPU 0 instructions: 12000000 cycles: 6959186 heartbeat IPC: 1.72449 cumulative IPC: 1.72434 (Simulation time: 0 hr 8 min 29 sec) 
Heartbeat CPU 0 instructions: 13000001 cycles: 7539244 heartbeat IPC: 1.72397 cumulative IPC: 1.72431 (Simulation time: 0 hr 9 min 8 sec) 
Heartbeat CPU 0 instructions: 14000003 cycles: 8119139 heartbeat IPC: 1.72445 cumulative IPC: 1.72432 (Simulation time: 0 hr 9 min 45 sec) 
Heartbeat CPU 0 instructions: 15000000 cycles: 8699238 heartbeat IPC: 1.72384 cumulative IPC: 1.72429 (Simulation time: 0 hr 10 min 23 sec) 
Heartbeat CPU 0 instructions: 16000000 cycles: 9279411 heartbeat IPC: 1.72362 cumulative IPC: 1.72425 (Simulation time: 0 hr 11 min 2 sec) 
Heartbeat CPU 0 instructions: 17000002 cycles: 9859633 heartbeat IPC: 1.72348 cumulative IPC: 1.7242 (Simulation time: 0 hr 11 min 42 sec) 
Heartbeat CPU 0 instructions: 18000003 cycles: 10439479 heartbeat IPC: 1.7246 cumulative IPC: 1.72422 (Simulation time: 0 hr 12 min 25 sec) 
Heartbeat CPU 0 instructions: 19000000 cycles: 11019321 heartbeat IPC: 1.7246 cumulative IPC: 1.72424 (Simulation time: 0 hr 13 min 4 sec) 
Heartbeat CPU 0 instructions: 20000000 cycles: 11596236 heartbeat IPC: 1.73336 cumulative IPC: 1.7247 (Simulation time: 0 hr 13 min 44 sec) 
Heartbeat CPU 0 instructions: 21000000 cycles: 12041369 heartbeat IPC: 2.24652 cumulative IPC: 1.74399 (Simulation time: 0 hr 14 min 17 sec) 
Heartbeat CPU 0 instructions: 22000000 cycles: 12573582 heartbeat IPC: 1.87895 cumulative IPC: 1.7497 (Simulation time: 0 hr 14 min 48 sec) 
Heartbeat CPU 0 instructions: 23000000 cycles: 13023020 heartbeat IPC: 2.225 cumulative IPC: 1.7661 (Simulation time: 0 hr 15 min 16 sec) 
Heartbeat CPU 0 instructions: 24000000 cycles: 13564895 heartbeat IPC: 1.84544 cumulative IPC: 1.76927 (Simulation time: 0 hr 15 min 46 sec) 
Heartbeat CPU 0 instructions: 25000001 cycles: 14023980 heartbeat IPC: 2.17825 cumulative IPC: 1.78266 (Simulation time: 0 hr 16 min 17 sec) 
Heartbeat CPU 0 instructions: 26000000 cycles: 14554217 heartbeat IPC: 1.88595 cumulative IPC: 1.78642 (Simulation time: 0 hr 16 min 51 sec) 
Heartbeat CPU 0 instructions: 27000000 cycles: 15030188 heartbeat IPC: 2.10097 cumulative IPC: 1.79638 (Simulation time: 0 hr 17 min 21 sec) 
Heartbeat CPU 0 instructions: 28000000 cycles: 15533184 heartbeat IPC: 1.98809 cumulative IPC: 1.80259 (Simulation time: 0 hr 17 min 52 sec) 
Heartbeat CPU 0 instructions: 29000000 cycles: 16006154 heartbeat IPC: 2.1143 cumulative IPC: 1.8118 (Simulation time: 0 hr 18 min 22 sec) 
Heartbeat CPU 0 instructions: 30000001 cycles: 16526092 heartbeat IPC: 1.92331 cumulative IPC: 1.81531 (Simulation time: 0 hr 18 min 51 sec) 
Heartbeat CPU 0 instructions: 31000001 cycles: 17026821 heartbeat IPC: 1.99709 cumulative IPC: 1.82066 (Simulation time: 0 hr 19 min 21 sec) 
Heartbeat CPU 0 instructions: 32000000 cycles: 17509027 heartbeat IPC: 2.0738 cumulative IPC: 1.82763 (Simulation time: 0 hr 19 min 50 sec) 
Heartbeat CPU 0 instructions: 33000003 cycles: 18012030 heartbeat IPC: 1.98807 cumulative IPC: 1.83211 (Simulation time: 0 hr 20 min 19 sec) 
Heartbeat CPU 0 instructions: 34000002 cycles: 18491916 heartbeat IPC: 2.08383 cumulative IPC: 1.83864 (Simulation time: 0 hr 20 min 45 sec) 
Heartbeat CPU 0 instructions: 35000002 cycles: 18994629 heartbeat IPC: 1.98921 cumulative IPC: 1.84263 (Simulation time: 0 hr 21 min 18 sec) 
Heartbeat CPU 0 instructions: 36000000 cycles: 19486780 heartbeat IPC: 2.03189 cumulative IPC: 1.84741 (Simulation time: 0 hr 21 min 46 sec) 
Heartbeat CPU 0 instructions: 37000000 cycles: 19901827 heartbeat IPC: 2.40937 cumulative IPC: 1.85913 (Simulation time: 0 hr 22 min 20 sec) 
Heartbeat CPU 0 instructions: 38000001 cycles: 20316872 heartbeat IPC: 2.40938 cumulative IPC: 1.87037 (Simulation time: 0 hr 22 min 52 sec) 
Heartbeat CPU 0 instructions: 39000000 cycles: 20731858 heartbeat IPC: 2.40972 cumulative IPC: 1.88116 (Simulation time: 0 hr 23 min 22 sec) 
Heartbeat CPU 0 instructions: 40000000 cycles: 21146867 heartbeat IPC: 2.40959 cumulative IPC: 1.89153 (Simulation time: 0 hr 23 min 50 sec) 
Heartbeat CPU 0 instructions: 41000000 cycles: 21657599 heartbeat IPC: 1.95797 cumulative IPC: 1.8931 (Simulation time: 0 hr 24 min 15 sec) 
Heartbeat CPU 0 instructions: 42000000 cycles: 22072616 heartbeat IPC: 2.40954 cumulative IPC: 1.90281 (Simulation time: 0 hr 24 min 43 sec) 
Heartbeat CPU 0 instructions: 43000000 cycles: 22487669 heartbeat IPC: 2.40933 cumulative IPC: 1.91216 (Simulation time: 0 hr 25 min 14 sec) 
Heartbeat CPU 0 instructions: 44000000 cycles: 22902621 heartbeat IPC: 2.40992 cumulative IPC: 1.92118 (Simulation time: 0 hr 25 min 42 sec) 
Heartbeat CPU 0 instructions: 45000000 cycles: 23317630 heartbeat IPC: 2.40959 cumulative IPC: 1.92987 (Simulation time: 0 hr 26 min 11 sec) 
Heartbeat CPU 0 instructions: 46000003 cycles: 23728093 heartbeat IPC: 2.43628 cumulative IPC: 1.93863 (Simulation time: 0 hr 26 min 42 sec) 
Heartbeat CPU 0 instructions: 47000001 cycles: 24361973 heartbeat IPC: 1.57758 cumulative IPC: 1.92924 (Simulation time: 0 hr 27 min 9 sec) 
Heartbeat CPU 0 instructions: 48000000 cycles: 24962819 heartbeat IPC: 1.66432 cumulative IPC: 1.92286 (Simulation time: 0 hr 27 min 39 sec) 
Heartbeat CPU 0 instructions: 49000003 cycles: 25556761 heartbeat IPC: 1.68367 cumulative IPC: 1.9173 (Simulation time: 0 hr 28 min 25 sec) 
Heartbeat CPU 0 instructions: 50000001 cycles: 26222992 heartbeat IPC: 1.50098 cumulative IPC: 1.90672 (Simulation time: 0 hr 29 min 5 sec) 

Warmup complete CPU 0 instructions: 50000001 cycles: 26222992 (Simulation time: 0 hr 29 min 5 sec) 

Heartbeat CPU 0 instructions: 51000001 cycles: 27742582 heartbeat IPC: 0.658072 cumulative IPC: 0.658072 (Simulation time: 0 hr 29 min 51 sec) 
Heartbeat CPU 0 instructions: 52000000 cycles: 29288647 heartbeat IPC: 0.646803 cumulative IPC: 0.652389 (Simulation time: 0 hr 30 min 44 sec) 
Heartbeat CPU 0 instructions: 53000000 cycles: 30893896 heartbeat IPC: 0.622956 cumulative IPC: 0.642274 (Simulation time: 0 hr 31 min 28 sec) 
Heartbeat CPU 0 instructions: 54000000 cycles: 32507526 heartbeat IPC: 0.619721 cumulative IPC: 0.636483 (Simulation time: 0 hr 32 min 16 sec) 
Heartbeat CPU 0 instructions: 55000003 cycles: 34098605 heartbeat IPC: 0.628506 cumulative IPC: 0.634871 (Simulation time: 0 hr 32 min 59 sec) 
Heartbeat CPU 0 instructions: 56000000 cycles: 35702945 heartbeat IPC: 0.623307 cumulative IPC: 0.632914 (Simulation time: 0 hr 33 min 39 sec) 
Heartbeat CPU 0 instructions: 57000002 cycles: 37341214 heartbeat IPC: 0.610402 cumulative IPC: 0.629597 (Simulation time: 0 hr 34 min 25 sec) 
Heartbeat CPU 0 instructions: 58000002 cycles: 38951722 heartbeat IPC: 0.620922 cumulative IPC: 0.6285 (Simulation time: 0 hr 35 min 8 sec) 
Heartbeat CPU 0 instructions: 59000001 cycles: 40572135 heartbeat IPC: 0.617126 cumulative IPC: 0.627215 (Simulation time: 0 hr 35 min 55 sec) 
Heartbeat CPU 0 instructions: 60000000 cycles: 42190411 heartbeat IPC: 0.617941 cumulative IPC: 0.626275 (Simulation time: 0 hr 36 min 35 sec) 
Heartbeat CPU 0 instructions: 61000000 cycles: 43780379 heartbeat IPC: 0.628944 cumulative IPC: 0.626517 (Simulation time: 0 hr 37 min 20 sec) 
Heartbeat CPU 0 instructions: 62000003 cycles: 45368161 heartbeat IPC: 0.629811 cumulative IPC: 0.62679 (Simulation time: 0 hr 38 min 5 sec) 
Heartbeat CPU 0 instructions: 63000000 cycles: 46965790 heartbeat IPC: 0.625926 cumulative IPC: 0.626724 (Simulation time: 0 hr 38 min 48 sec) 
Heartbeat CPU 0 instructions: 64000000 cycles: 48589092 heartbeat IPC: 0.616028 cumulative IPC: 0.625947 (Simulation time: 0 hr 39 min 26 sec) 
Heartbeat CPU 0 instructions: 65000003 cycles: 50214901 heartbeat IPC: 0.61508 cumulative IPC: 0.625211 (Simulation time: 0 hr 40 min 9 sec) 
Heartbeat CPU 0 instructions: 66000001 cycles: 51853904 heartbeat IPC: 0.610126 cumulative IPC: 0.624246 (Simulation time: 0 hr 40 min 59 sec) 
Heartbeat CPU 0 instructions: 67000000 cycles: 53460539 heartbeat IPC: 0.622418 cumulative IPC: 0.624138 (Simulation time: 0 hr 41 min 42 sec) 
Heartbeat CPU 0 instructions: 68000000 cycles: 55080643 heartbeat IPC: 0.617244 cumulative IPC: 0.623751 (Simulation time: 0 hr 42 min 28 sec) 
Heartbeat CPU 0 instructions: 69000000 cycles: 56701389 heartbeat IPC: 0.617 cumulative IPC: 0.623392 (Simulation time: 0 hr 43 min 9 sec) 
Heartbeat CPU 0 instructions: 70000003 cycles: 58285879 heartbeat IPC: 0.63112 cumulative IPC: 0.623774 (Simulation time: 0 hr 43 min 51 sec) 
Heartbeat CPU 0 instructions: 71000003 cycles: 59899810 heartbeat IPC: 0.619605 cumulative IPC: 0.623574 (Simulation time: 0 hr 44 min 34 sec) 
Heartbeat CPU 0 instructions: 72000000 cycles: 61489577 heartbeat IPC: 0.629021 cumulative IPC: 0.62382 (Simulation time: 0 hr 45 min 15 sec) 
Heartbeat CPU 0 instructions: 73000002 cycles: 63112296 heartbeat IPC: 0.616251 cumulative IPC: 0.623487 (Simulation time: 0 hr 46 min 1 sec) 
Heartbeat CPU 0 instructions: 74000000 cycles: 64735533 heartbeat IPC: 0.616052 cumulative IPC: 0.623174 (Simulation time: 0 hr 46 min 48 sec) 
Heartbeat CPU 0 instructions: 75000000 cycles: 66366135 heartbeat IPC: 0.61327 cumulative IPC: 0.622771 (Simulation time: 0 hr 47 min 35 sec) 
Heartbeat CPU 0 instructions: 76000000 cycles: 67954133 heartbeat IPC: 0.629724 cumulative IPC: 0.623036 (Simulation time: 0 hr 48 min 19 sec) 
Heartbeat CPU 0 instructions: 77000003 cycles: 69584639 heartbeat IPC: 0.613308 cumulative IPC: 0.62267 (Simulation time: 0 hr 49 min 1 sec) 
Heartbeat CPU 0 instructions: 78000000 cycles: 71191453 heartbeat IPC: 0.622348 cumulative IPC: 0.622659 (Simulation time: 0 hr 49 min 41 sec) 
Heartbeat CPU 0 instructions: 79000001 cycles: 72780900 heartbeat IPC: 0.62915 cumulative IPC: 0.62288 (Simulation time: 0 hr 50 min 22 sec) 
Heartbeat CPU 0 instructions: 80000000 cycles: 74382885 heartbeat IPC: 0.624225 cumulative IPC: 0.622925 (Simulation time: 0 hr 51 min 3 sec) 
Heartbeat CPU 0 instructions: 81000001 cycles: 75993331 heartbeat IPC: 0.620947 cumulative IPC: 0.622861 (Simulation time: 0 hr 51 min 49 sec) 
Heartbeat CPU 0 instructions: 82000000 cycles: 77597267 heartbeat IPC: 0.623466 cumulative IPC: 0.62288 (Simulation time: 0 hr 52 min 32 sec) 
Heartbeat CPU 0 instructions: 83000001 cycles: 79193274 heartbeat IPC: 0.626564 cumulative IPC: 0.622991 (Simulation time: 0 hr 53 min 16 sec) 
Heartbeat CPU 0 instructions: 84000000 cycles: 80781141 heartbeat IPC: 0.629775 cumulative IPC: 0.623188 (Simulation time: 0 hr 53 min 58 sec) 
Heartbeat CPU 0 instructions: 85000001 cycles: 82402176 heartbeat IPC: 0.61689 cumulative IPC: 0.623007 (Simulation time: 0 hr 54 min 38 sec) 
Heartbeat CPU 0 instructions: 86000000 cycles: 84016598 heartbeat IPC: 0.619416 cumulative IPC: 0.622906 (Simulation time: 0 hr 55 min 19 sec) 
Heartbeat CPU 0 instructions: 87000002 cycles: 85624354 heartbeat IPC: 0.621986 cumulative IPC: 0.622881 (Simulation time: 0 hr 56 min 0 sec) 
Heartbeat CPU 0 instructions: 88000000 cycles: 87250557 heartbeat IPC: 0.614928 cumulative IPC: 0.622669 (Simulation time: 0 hr 56 min 42 sec) 
Heartbeat CPU 0 instructions: 89000003 cycles: 88892140 heartbeat IPC: 0.60917 cumulative IPC: 0.622316 (Simulation time: 0 hr 57 min 23 sec) 
Heartbeat CPU 0 instructions: 90000000 cycles: 90535340 heartbeat IPC: 0.608567 cumulative IPC: 0.621965 (Simulation time: 0 hr 58 min 6 sec) 
Heartbeat CPU 0 instructions: 91000000 cycles: 92168880 heartbeat IPC: 0.612167 cumulative IPC: 0.621722 (Simulation time: 0 hr 58 min 48 sec) 
Heartbeat CPU 0 instructions: 92000000 cycles: 93782220 heartbeat IPC: 0.619832 cumulative IPC: 0.621677 (Simulation time: 0 hr 59 min 27 sec) 
Heartbeat CPU 0 instructions: 93000001 cycles: 95404117 heartbeat IPC: 0.616563 cumulative IPC: 0.621557 (Simulation time: 1 hr 0 min 9 sec) 
Heartbeat CPU 0 instructions: 94000003 cycles: 97010676 heartbeat IPC: 0.62245 cumulative IPC: 0.621577 (Simulation time: 1 hr 0 min 51 sec) 
Heartbeat CPU 0 instructions: 95000000 cycles: 98600965 heartbeat IPC: 0.628815 cumulative IPC: 0.621736 (Simulation time: 1 hr 1 min 33 sec) 
Heartbeat CPU 0 instructions: 96000000 cycles: 100218170 heartbeat IPC: 0.618351 cumulative IPC: 0.621662 (Simulation time: 1 hr 2 min 15 sec) 
Heartbeat CPU 0 instructions: 97000002 cycles: 101826098 heartbeat IPC: 0.62192 cumulative IPC: 0.621668 (Simulation time: 1 hr 2 min 59 sec) 
Heartbeat CPU 0 instructions: 98000000 cycles: 103451785 heartbeat IPC: 0.615123 cumulative IPC: 0.62153 (Simulation time: 1 hr 3 min 40 sec) 
Heartbeat CPU 0 instructions: 99000001 cycles: 105036262 heartbeat IPC: 0.631124 cumulative IPC: 0.621723 (Simulation time: 1 hr 4 min 22 sec) 
Heartbeat CPU 0 instructions: 100000000 cycles: 106661989 heartbeat IPC: 0.615109 cumulative IPC: 0.621589 (Simulation time: 1 hr 5 min 3 sec) 
Heartbeat CPU 0 instructions: 101000001 cycles: 108282822 heartbeat IPC: 0.616967 cumulative IPC: 0.621498 (Simulation time: 1 hr 5 min 48 sec) 
Heartbeat CPU 0 instructions: 102000000 cycles: 109906510 heartbeat IPC: 0.615881 cumulative IPC: 0.621389 (Simulation time: 1 hr 6 min 31 sec) 
Heartbeat CPU 0 instructions: 103000003 cycles: 111510875 heartbeat IPC: 0.623301 cumulative IPC: 0.621425 (Simulation time: 1 hr 7 min 12 sec) 
Heartbeat CPU 0 instructions: 104000000 cycles: 113134205 heartbeat IPC: 0.616016 cumulative IPC: 0.621324 (Simulation time: 1 hr 7 min 54 sec) 
Heartbeat CPU 0 instructions: 105000000 cycles: 114760269 heartbeat IPC: 0.614982 cumulative IPC: 0.621207 (Simulation time: 1 hr 8 min 33 sec) 
Heartbeat CPU 0 instructions: 106000001 cycles: 116377159 heartbeat IPC: 0.618472 cumulative IPC: 0.621158 (Simulation time: 1 hr 9 min 10 sec) 
Heartbeat CPU 0 instructions: 107000001 cycles: 118000985 heartbeat IPC: 0.61583 cumulative IPC: 0.621064 (Simulation time: 1 hr 9 min 48 sec) 
Heartbeat CPU 0 instructions: 108000000 cycles: 119621582 heartbeat IPC: 0.617056 cumulative IPC: 0.620994 (Simulation time: 1 hr 10 min 26 sec) 
Heartbeat CPU 0 instructions: 109000003 cycles: 121205736 heartbeat IPC: 0.631254 cumulative IPC: 0.621165 (Simulation time: 1 hr 11 min 3 sec) 
Heartbeat CPU 0 instructions: 110000002 cycles: 122813294 heartbeat IPC: 0.622061 cumulative IPC: 0.62118 (Simulation time: 1 hr 11 min 40 sec) 
Heartbeat CPU 0 instructions: 111000000 cycles: 124404594 heartbeat IPC: 0.628416 cumulative IPC: 0.621298 (Simulation time: 1 hr 12 min 16 sec) 
Heartbeat CPU 0 instructions: 112000000 cycles: 126008663 heartbeat IPC: 0.623415 cumulative IPC: 0.621332 (Simulation time: 1 hr 12 min 51 sec) 
Heartbeat CPU 0 instructions: 113000001 cycles: 127594724 heartbeat IPC: 0.630493 cumulative IPC: 0.621475 (Simulation time: 1 hr 13 min 27 sec) 
Heartbeat CPU 0 instructions: 114000000 cycles: 129187749 heartbeat IPC: 0.627736 cumulative IPC: 0.621572 (Simulation time: 1 hr 14 min 2 sec) 
Heartbeat CPU 0 instructions: 115000001 cycles: 130809637 heartbeat IPC: 0.616566 cumulative IPC: 0.621494 (Simulation time: 1 hr 14 min 39 sec) 
Heartbeat CPU 0 instructions: 116000000 cycles: 132399786 heartbeat IPC: 0.628871 cumulative IPC: 0.621605 (Simulation time: 1 hr 15 min 12 sec) 
Heartbeat CPU 0 instructions: 117000002 cycles: 134002252 heartbeat IPC: 0.624039 cumulative IPC: 0.621641 (Simulation time: 1 hr 15 min 43 sec) 
Heartbeat CPU 0 instructions: 118000003 cycles: 135611138 heartbeat IPC: 0.621549 cumulative IPC: 0.62164 (Simulation time: 1 hr 16 min 14 sec) 
Heartbeat CPU 0 instructions: 119000001 cycles: 137225113 heartbeat IPC: 0.619587 cumulative IPC: 0.62161 (Simulation time: 1 hr 16 min 45 sec) 
Heartbeat CPU 0 instructions: 120000000 cycles: 138867821 heartbeat IPC: 0.60875 cumulative IPC: 0.621422 (Simulation time: 1 hr 17 min 12 sec) 
Heartbeat CPU 0 instructions: 121000000 cycles: 140463200 heartbeat IPC: 0.62681 cumulative IPC: 0.621497 (Simulation time: 1 hr 17 min 39 sec) 
Heartbeat CPU 0 instructions: 122000002 cycles: 142079135 heartbeat IPC: 0.618838 cumulative IPC: 0.62146 (Simulation time: 1 hr 18 min 7 sec) 
Heartbeat CPU 0 instructions: 123000000 cycles: 143717547 heartbeat IPC: 0.610346 cumulative IPC: 0.621305 (Simulation time: 1 hr 18 min 35 sec) 
Heartbeat CPU 0 instructions: 124000000 cycles: 145323422 heartbeat IPC: 0.622713 cumulative IPC: 0.621324 (Simulation time: 1 hr 18 min 59 sec) 
Heartbeat CPU 0 instructions: 125000000 cycles: 146921030 heartbeat IPC: 0.625936 cumulative IPC: 0.621385 (Simulation time: 1 hr 19 min 23 sec) 
Heartbeat CPU 0 instructions: 126000000 cycles: 148513424 heartbeat IPC: 0.627985 cumulative IPC: 0.621471 (Simulation time: 1 hr 19 min 46 sec) 
Heartbeat CPU 0 instructions: 127000003 cycles: 150136866 heartbeat IPC: 0.615977 cumulative IPC: 0.621399 (Simulation time: 1 hr 20 min 8 sec) 
Heartbeat CPU 0 instructions: 128000000 cycles: 151761579 heartbeat IPC: 0.615491 cumulative IPC: 0.621323 (Simulation time: 1 hr 20 min 30 sec) 
Heartbeat CPU 0 instructions: 129000002 cycles: 153338620 heartbeat IPC: 0.6341 cumulative IPC: 0.621481 (Simulation time: 1 hr 20 min 50 sec) 
Heartbeat CPU 0 instructions: 130000000 cycles: 154950800 heartbeat IPC: 0.620277 cumulative IPC: 0.621466 (Simulation time: 1 hr 21 min 11 sec) 
Heartbeat CPU 0 instructions: 131000001 cycles: 156527774 heartbeat IPC: 0.634126 cumulative IPC: 0.62162 (Simulation time: 1 hr 21 min 31 sec) 
Heartbeat CPU 0 instructions: 132000000 cycles: 158147327 heartbeat IPC: 0.617454 cumulative IPC: 0.621568 (Simulation time: 1 hr 21 min 51 sec) 
Heartbeat CPU 0 instructions: 133000001 cycles: 159770652 heartbeat IPC: 0.61602 cumulative IPC: 0.621501 (Simulation time: 1 hr 22 min 12 sec) 
Heartbeat CPU 0 instructions: 134000003 cycles: 161396785 heartbeat IPC: 0.614957 cumulative IPC: 0.621422 (Simulation time: 1 hr 22 min 33 sec) 
Heartbeat CPU 0 instructions: 135000000 cycles: 163012363 heartbeat IPC: 0.618972 cumulative IPC: 0.621393 (Simulation time: 1 hr 22 min 52 sec) 
Heartbeat CPU 0 instructions: 136000000 cycles: 164616732 heartbeat IPC: 0.623298 cumulative IPC: 0.621415 (Simulation time: 1 hr 23 min 11 sec) 
Heartbeat CPU 0 instructions: 137000001 cycles: 166239719 heartbeat IPC: 0.616148 cumulative IPC: 0.621354 (Simulation time: 1 hr 23 min 29 sec) 
Heartbeat CPU 0 instructions: 138000002 cycles: 167838709 heartbeat IPC: 0.625395 cumulative IPC: 0.6214 (Simulation time: 1 hr 23 min 46 sec) 
Heartbeat CPU 0 instructions: 139000000 cycles: 169441011 heartbeat IPC: 0.624101 cumulative IPC: 0.62143 (Simulation time: 1 hr 24 min 4 sec) 
Heartbeat CPU 0 instructions: 140000000 cycles: 171059239 heartbeat IPC: 0.61796 cumulative IPC: 0.621391 (Simulation time: 1 hr 24 min 21 sec) 
Heartbeat CPU 0 instructions: 141000003 cycles: 172642056 heartbeat IPC: 0.631787 cumulative IPC: 0.621504 (Simulation time: 1 hr 24 min 37 sec) 
Heartbeat CPU 0 instructions: 142000001 cycles: 174253281 heartbeat IPC: 0.620645 cumulative IPC: 0.621494 (Simulation time: 1 hr 24 min 52 sec) 
Heartbeat CPU 0 instructions: 143000001 cycles: 175846618 heartbeat IPC: 0.627614 cumulative IPC: 0.62156 (Simulation time: 1 hr 25 min 7 sec) 
Heartbeat CPU 0 instructions: 144000000 cycles: 177435979 heartbeat IPC: 0.629183 cumulative IPC: 0.62164 (Simulation time: 1 hr 25 min 21 sec) 
Heartbeat CPU 0 instructions: 145000003 cycles: 179035739 heartbeat IPC: 0.625096 cumulative IPC: 0.621676 (Simulation time: 1 hr 25 min 35 sec) 
Heartbeat CPU 0 instructions: 146000000 cycles: 180628369 heartbeat IPC: 0.62789 cumulative IPC: 0.62174 (Simulation time: 1 hr 25 min 50 sec) 
Heartbeat CPU 0 instructions: 147000002 cycles: 182274359 heartbeat IPC: 0.607538 cumulative IPC: 0.62159 (Simulation time: 1 hr 26 min 5 sec) 
Heartbeat CPU 0 instructions: 148000000 cycles: 183871328 heartbeat IPC: 0.626185 cumulative IPC: 0.621637 (Simulation time: 1 hr 26 min 19 sec) 
Heartbeat CPU 0 instructions: 149000002 cycles: 185481591 heartbeat IPC: 0.621018 cumulative IPC: 0.62163 (Simulation time: 1 hr 26 min 34 sec) 
Heartbeat CPU 0 instructions: 150000003 cycles: 187116949 heartbeat IPC: 0.611488 cumulative IPC: 0.621527 (Simulation time: 1 hr 26 min 46 sec) 
Finished CPU 0 instructions: 100000002 cycles: 160893957 cummulative IPC: 0.621527 (Simulation time: 1 hr 26 min 46 sec) 

ChampSim completed all CPUs

Region of Interest Statistics

CPU 0 cummulative IPC: 0.621527 instructions: 100000002 cycles: 160893957
LLC TOTAL     ACCESS:    5406452  HIT:     232300  MISS:    5174152
LLC LOAD      ACCESS:     223302  HIT:      58108  MISS:     165194
LLC RFO       ACCESS:          0  HIT:          0  MISS:          0
LLC PREFETCH  ACCESS:    3748111  HIT:      31073  MISS:    3717038
LLC WRITEBACK ACCESS:    1435039  HIT:     143119  MISS:    1291920
OPTgen accesses: 11252
OPTgen hits: 3570
OPTgen hit rate: 31.7277


