
*** ChampSim Multicore Out-of-Order Simulator ***

Warmup Instructions: 50000000
Simulation Instructions: 100000000
Configuration: 2
Number of CPUs: 1
LLC sets: 2048
LLC ways: 16
Off-chip DRAM Channels: 1 Width: 64-bit Data Rate: 1600 MT/s

CPU 0 runs /datasets/cs240c-wi22-a00-public/data/Assignment2-gz/zeusmp_600B.trace.gz
CPU 0 L1D next line prefetcher
CPU 0 L2C IP-based stride prefetcher
Initialize Hawkeye state
Heartbeat CPU 0 instructions: 1000000 cycles: 407346 heartbeat IPC: 2.45492 cumulative IPC: 2.45492 (Simulation time: 0 hr 0 min 25 sec) 
Heartbeat CPU 0 instructions: 2000001 cycles: 814284 heartbeat IPC: 2.45738 cumulative IPC: 2.45615 (Simulation time: 0 hr 0 min 50 sec) 
Heartbeat CPU 0 instructions: 3000000 cycles: 1221753 heartbeat IPC: 2.45417 cumulative IPC: 2.45549 (Simulation time: 0 hr 1 min 18 sec) 
Heartbeat CPU 0 instructions: 4000000 cycles: 1629404 heartbeat IPC: 2.45308 cumulative IPC: 2.45489 (Simulation time: 0 hr 1 min 45 sec) 
Heartbeat CPU 0 instructions: 5000001 cycles: 2036967 heartbeat IPC: 2.45361 cumulative IPC: 2.45463 (Simulation time: 0 hr 2 min 16 sec) 
Heartbeat CPU 0 instructions: 6000000 cycles: 2444291 heartbeat IPC: 2.45505 cumulative IPC: 2.4547 (Simulation time: 0 hr 2 min 44 sec) 
Heartbeat CPU 0 instructions: 7000000 cycles: 2851775 heartbeat IPC: 2.45408 cumulative IPC: 2.45461 (Simulation time: 0 hr 3 min 8 sec) 
Heartbeat CPU 0 instructions: 8000000 cycles: 3259377 heartbeat IPC: 2.45337 cumulative IPC: 2.45446 (Simulation time: 0 hr 3 min 33 sec) 
Heartbeat CPU 0 instructions: 9000003 cycles: 3666450 heartbeat IPC: 2.45657 cumulative IPC: 2.45469 (Simulation time: 0 hr 3 min 58 sec) 
Heartbeat CPU 0 instructions: 10000001 cycles: 4073948 heartbeat IPC: 2.45399 cumulative IPC: 2.45462 (Simulation time: 0 hr 4 min 24 sec) 
Heartbeat CPU 0 instructions: 11000000 cycles: 4481314 heartbeat IPC: 2.45479 cumulative IPC: 2.45464 (Simulation time: 0 hr 4 min 50 sec) 
Heartbeat CPU 0 instructions: 12000000 cycles: 4888910 heartbeat IPC: 2.45341 cumulative IPC: 2.45453 (Simulation time: 0 hr 5 min 18 sec) 
Heartbeat CPU 0 instructions: 13000003 cycles: 5296038 heartbeat IPC: 2.45624 cumulative IPC: 2.45467 (Simulation time: 0 hr 5 min 44 sec) 
Heartbeat CPU 0 instructions: 14000001 cycles: 5703620 heartbeat IPC: 2.45349 cumulative IPC: 2.45458 (Simulation time: 0 hr 6 min 8 sec) 
Heartbeat CPU 0 instructions: 15000003 cycles: 6111272 heartbeat IPC: 2.45308 cumulative IPC: 2.45448 (Simulation time: 0 hr 6 min 32 sec) 
Heartbeat CPU 0 instructions: 16000000 cycles: 6519155 heartbeat IPC: 2.45168 cumulative IPC: 2.45431 (Simulation time: 0 hr 6 min 56 sec) 
Heartbeat CPU 0 instructions: 17000002 cycles: 6945425 heartbeat IPC: 2.34594 cumulative IPC: 2.44765 (Simulation time: 0 hr 7 min 21 sec) 
Heartbeat CPU 0 instructions: 18000000 cycles: 7402887 heartbeat IPC: 2.18597 cumulative IPC: 2.43148 (Simulation time: 0 hr 7 min 44 sec) 
Heartbeat CPU 0 instructions: 19000000 cycles: 7812630 heartbeat IPC: 2.44055 cumulative IPC: 2.43196 (Simulation time: 0 hr 8 min 7 sec) 
Heartbeat CPU 0 instructions: 20000000 cycles: 8225104 heartbeat IPC: 2.4244 cumulative IPC: 2.43158 (Simulation time: 0 hr 8 min 33 sec) 
Heartbeat CPU 0 instructions: 21000001 cycles: 8686461 heartbeat IPC: 2.16752 cumulative IPC: 2.41756 (Simulation time: 0 hr 9 min 1 sec) 
Heartbeat CPU 0 instructions: 22000000 cycles: 9108334 heartbeat IPC: 2.37038 cumulative IPC: 2.41537 (Simulation time: 0 hr 9 min 27 sec) 
Heartbeat CPU 0 instructions: 23000000 cycles: 9515148 heartbeat IPC: 2.45813 cumulative IPC: 2.4172 (Simulation time: 0 hr 9 min 52 sec) 
Heartbeat CPU 0 instructions: 24000000 cycles: 9968802 heartbeat IPC: 2.20432 cumulative IPC: 2.40751 (Simulation time: 0 hr 10 min 16 sec) 
Heartbeat CPU 0 instructions: 25000000 cycles: 10408183 heartbeat IPC: 2.27593 cumulative IPC: 2.40196 (Simulation time: 0 hr 10 min 41 sec) 
Heartbeat CPU 0 instructions: 26000000 cycles: 10815138 heartbeat IPC: 2.45727 cumulative IPC: 2.40404 (Simulation time: 0 hr 11 min 5 sec) 
Heartbeat CPU 0 instructions: 27000003 cycles: 11253213 heartbeat IPC: 2.28272 cumulative IPC: 2.39932 (Simulation time: 0 hr 11 min 29 sec) 
Heartbeat CPU 0 instructions: 28000000 cycles: 11711458 heartbeat IPC: 2.18223 cumulative IPC: 2.39082 (Simulation time: 0 hr 11 min 54 sec) 
Heartbeat CPU 0 instructions: 29000000 cycles: 12119005 heartbeat IPC: 2.4537 cumulative IPC: 2.39294 (Simulation time: 0 hr 12 min 24 sec) 
Heartbeat CPU 0 instructions: 30000002 cycles: 12541765 heartbeat IPC: 2.36541 cumulative IPC: 2.39201 (Simulation time: 0 hr 12 min 53 sec) 
Heartbeat CPU 0 instructions: 31000002 cycles: 13008150 heartbeat IPC: 2.14415 cumulative IPC: 2.38312 (Simulation time: 0 hr 13 min 19 sec) 
Heartbeat CPU 0 instructions: 32000000 cycles: 13426549 heartbeat IPC: 2.39006 cumulative IPC: 2.38334 (Simulation time: 0 hr 13 min 47 sec) 
Heartbeat CPU 0 instructions: 33000002 cycles: 13838100 heartbeat IPC: 2.42984 cumulative IPC: 2.38472 (Simulation time: 0 hr 14 min 12 sec) 
Heartbeat CPU 0 instructions: 34000000 cycles: 14301781 heartbeat IPC: 2.15665 cumulative IPC: 2.37733 (Simulation time: 0 hr 14 min 37 sec) 
Heartbeat CPU 0 instructions: 35000001 cycles: 14738010 heartbeat IPC: 2.29238 cumulative IPC: 2.37481 (Simulation time: 0 hr 15 min 3 sec) 
Heartbeat CPU 0 instructions: 36000000 cycles: 15145659 heartbeat IPC: 2.45309 cumulative IPC: 2.37692 (Simulation time: 0 hr 15 min 28 sec) 
Heartbeat CPU 0 instructions: 37000001 cycles: 15596599 heartbeat IPC: 2.21759 cumulative IPC: 2.37231 (Simulation time: 0 hr 15 min 56 sec) 
Heartbeat CPU 0 instructions: 38000001 cycles: 16052826 heartbeat IPC: 2.19189 cumulative IPC: 2.36718 (Simulation time: 0 hr 16 min 21 sec) 
Heartbeat CPU 0 instructions: 39000002 cycles: 16459963 heartbeat IPC: 2.45618 cumulative IPC: 2.36939 (Simulation time: 0 hr 16 min 46 sec) 
Heartbeat CPU 0 instructions: 40000000 cycles: 16894194 heartbeat IPC: 2.30292 cumulative IPC: 2.36768 (Simulation time: 0 hr 17 min 12 sec) 
Heartbeat CPU 0 instructions: 41000002 cycles: 17361930 heartbeat IPC: 2.13796 cumulative IPC: 2.36149 (Simulation time: 0 hr 17 min 38 sec) 
Heartbeat CPU 0 instructions: 42000000 cycles: 17776371 heartbeat IPC: 2.41288 cumulative IPC: 2.36269 (Simulation time: 0 hr 18 min 4 sec) 
Heartbeat CPU 0 instructions: 43000003 cycles: 18194814 heartbeat IPC: 2.38982 cumulative IPC: 2.36331 (Simulation time: 0 hr 18 min 28 sec) 
Heartbeat CPU 0 instructions: 44000000 cycles: 18662028 heartbeat IPC: 2.14034 cumulative IPC: 2.35773 (Simulation time: 0 hr 18 min 52 sec) 
Heartbeat CPU 0 instructions: 45000003 cycles: 19093775 heartbeat IPC: 2.31618 cumulative IPC: 2.35679 (Simulation time: 0 hr 19 min 18 sec) 
Heartbeat CPU 0 instructions: 46000003 cycles: 19502051 heartbeat IPC: 2.44932 cumulative IPC: 2.35873 (Simulation time: 0 hr 19 min 42 sec) 
Heartbeat CPU 0 instructions: 47000001 cycles: 19962544 heartbeat IPC: 2.17158 cumulative IPC: 2.35441 (Simulation time: 0 hr 20 min 7 sec) 
Heartbeat CPU 0 instructions: 48000000 cycles: 20413616 heartbeat IPC: 2.21694 cumulative IPC: 2.35137 (Simulation time: 0 hr 20 min 32 sec) 
Heartbeat CPU 0 instructions: 49000001 cycles: 20820466 heartbeat IPC: 2.45791 cumulative IPC: 2.35345 (Simulation time: 0 hr 20 min 57 sec) 
Heartbeat CPU 0 instructions: 50000000 cycles: 21265973 heartbeat IPC: 2.24463 cumulative IPC: 2.35117 (Simulation time: 0 hr 21 min 22 sec) 

Warmup complete CPU 0 instructions: 50000001 cycles: 21265974 (Simulation time: 0 hr 21 min 22 sec) 

Heartbeat CPU 0 instructions: 51000001 cycles: 22043893 heartbeat IPC: 1.28548 cumulative IPC: 1.28548 (Simulation time: 0 hr 21 min 48 sec) 
Heartbeat CPU 0 instructions: 52000000 cycles: 22808172 heartbeat IPC: 1.30842 cumulative IPC: 1.29685 (Simulation time: 0 hr 22 min 24 sec) 
Heartbeat CPU 0 instructions: 53000001 cycles: 23582984 heartbeat IPC: 1.29064 cumulative IPC: 1.29477 (Simulation time: 0 hr 22 min 53 sec) 
Heartbeat CPU 0 instructions: 54000000 cycles: 24356450 heartbeat IPC: 1.29288 cumulative IPC: 1.2943 (Simulation time: 0 hr 23 min 23 sec) 
Heartbeat CPU 0 instructions: 55000001 cycles: 25126325 heartbeat IPC: 1.29891 cumulative IPC: 1.29522 (Simulation time: 0 hr 23 min 53 sec) 
Heartbeat CPU 0 instructions: 56000000 cycles: 25897280 heartbeat IPC: 1.29709 cumulative IPC: 1.29553 (Simulation time: 0 hr 24 min 25 sec) 
Heartbeat CPU 0 instructions: 57000003 cycles: 26678270 heartbeat IPC: 1.28043 cumulative IPC: 1.29335 (Simulation time: 0 hr 24 min 53 sec) 
Heartbeat CPU 0 instructions: 58000001 cycles: 27444680 heartbeat IPC: 1.30478 cumulative IPC: 1.29477 (Simulation time: 0 hr 25 min 24 sec) 
Heartbeat CPU 0 instructions: 59000000 cycles: 28219783 heartbeat IPC: 1.29015 cumulative IPC: 1.29425 (Simulation time: 0 hr 25 min 56 sec) 
Heartbeat CPU 0 instructions: 60000000 cycles: 28992808 heartbeat IPC: 1.29362 cumulative IPC: 1.29419 (Simulation time: 0 hr 26 min 27 sec) 
Heartbeat CPU 0 instructions: 61000003 cycles: 29762846 heartbeat IPC: 1.29864 cumulative IPC: 1.29459 (Simulation time: 0 hr 26 min 57 sec) 
Heartbeat CPU 0 instructions: 62000001 cycles: 30542605 heartbeat IPC: 1.28244 cumulative IPC: 1.29357 (Simulation time: 0 hr 27 min 27 sec) 
Heartbeat CPU 0 instructions: 63000000 cycles: 31317265 heartbeat IPC: 1.29089 cumulative IPC: 1.29337 (Simulation time: 0 hr 27 min 56 sec) 
Heartbeat CPU 0 instructions: 64000000 cycles: 32086441 heartbeat IPC: 1.30009 cumulative IPC: 1.29384 (Simulation time: 0 hr 28 min 22 sec) 
Heartbeat CPU 0 instructions: 65000001 cycles: 32867895 heartbeat IPC: 1.27967 cumulative IPC: 1.29289 (Simulation time: 0 hr 28 min 52 sec) 
Heartbeat CPU 0 instructions: 66000000 cycles: 33651515 heartbeat IPC: 1.27613 cumulative IPC: 1.29183 (Simulation time: 0 hr 29 min 24 sec) 
Heartbeat CPU 0 instructions: 67000001 cycles: 34432892 heartbeat IPC: 1.27979 cumulative IPC: 1.29111 (Simulation time: 0 hr 29 min 53 sec) 
Heartbeat CPU 0 instructions: 68000000 cycles: 35217169 heartbeat IPC: 1.27506 cumulative IPC: 1.29021 (Simulation time: 0 hr 30 min 24 sec) 
Heartbeat CPU 0 instructions: 69000002 cycles: 36000760 heartbeat IPC: 1.27618 cumulative IPC: 1.28947 (Simulation time: 0 hr 30 min 55 sec) 
Heartbeat CPU 0 instructions: 70000000 cycles: 36778547 heartbeat IPC: 1.2857 cumulative IPC: 1.28928 (Simulation time: 0 hr 31 min 23 sec) 
Heartbeat CPU 0 instructions: 71000001 cycles: 37558638 heartbeat IPC: 1.2819 cumulative IPC: 1.28892 (Simulation time: 0 hr 31 min 51 sec) 
Heartbeat CPU 0 instructions: 72000000 cycles: 38337716 heartbeat IPC: 1.28357 cumulative IPC: 1.28868 (Simulation time: 0 hr 32 min 24 sec) 
Heartbeat CPU 0 instructions: 73000003 cycles: 39108735 heartbeat IPC: 1.29699 cumulative IPC: 1.28904 (Simulation time: 0 hr 32 min 52 sec) 
Heartbeat CPU 0 instructions: 74000002 cycles: 39889792 heartbeat IPC: 1.28032 cumulative IPC: 1.28867 (Simulation time: 0 hr 33 min 19 sec) 
Heartbeat CPU 0 instructions: 75000003 cycles: 40667794 heartbeat IPC: 1.28535 cumulative IPC: 1.28854 (Simulation time: 0 hr 33 min 48 sec) 
Heartbeat CPU 0 instructions: 76000000 cycles: 41446831 heartbeat IPC: 1.28363 cumulative IPC: 1.28835 (Simulation time: 0 hr 34 min 22 sec) 
Heartbeat CPU 0 instructions: 77000000 cycles: 42221356 heartbeat IPC: 1.29111 cumulative IPC: 1.28845 (Simulation time: 0 hr 34 min 52 sec) 
Heartbeat CPU 0 instructions: 78000003 cycles: 43001177 heartbeat IPC: 1.28235 cumulative IPC: 1.28823 (Simulation time: 0 hr 35 min 22 sec) 
Heartbeat CPU 0 instructions: 79000000 cycles: 43777178 heartbeat IPC: 1.28865 cumulative IPC: 1.28825 (Simulation time: 0 hr 35 min 53 sec) 
Heartbeat CPU 0 instructions: 80000000 cycles: 44560642 heartbeat IPC: 1.27638 cumulative IPC: 1.28785 (Simulation time: 0 hr 36 min 25 sec) 
Heartbeat CPU 0 instructions: 81000002 cycles: 45337567 heartbeat IPC: 1.28713 cumulative IPC: 1.28783 (Simulation time: 0 hr 36 min 55 sec) 
Heartbeat CPU 0 instructions: 82000002 cycles: 46115511 heartbeat IPC: 1.28544 cumulative IPC: 1.28775 (Simulation time: 0 hr 37 min 26 sec) 
Heartbeat CPU 0 instructions: 83000001 cycles: 46886049 heartbeat IPC: 1.29779 cumulative IPC: 1.28805 (Simulation time: 0 hr 37 min 58 sec) 
Heartbeat CPU 0 instructions: 84000000 cycles: 47667855 heartbeat IPC: 1.27909 cumulative IPC: 1.28779 (Simulation time: 0 hr 38 min 29 sec) 
Heartbeat CPU 0 instructions: 85000002 cycles: 48447343 heartbeat IPC: 1.2829 cumulative IPC: 1.28765 (Simulation time: 0 hr 38 min 58 sec) 
Heartbeat CPU 0 instructions: 86000002 cycles: 49225285 heartbeat IPC: 1.28544 cumulative IPC: 1.28759 (Simulation time: 0 hr 39 min 28 sec) 
Heartbeat CPU 0 instructions: 87000000 cycles: 50009896 heartbeat IPC: 1.27451 cumulative IPC: 1.28723 (Simulation time: 0 hr 39 min 57 sec) 
Heartbeat CPU 0 instructions: 88000000 cycles: 50791206 heartbeat IPC: 1.2799 cumulative IPC: 1.28703 (Simulation time: 0 hr 40 min 27 sec) 
Heartbeat CPU 0 instructions: 89000002 cycles: 51567075 heartbeat IPC: 1.28888 cumulative IPC: 1.28708 (Simulation time: 0 hr 40 min 56 sec) 
Heartbeat CPU 0 instructions: 90000002 cycles: 52342779 heartbeat IPC: 1.28915 cumulative IPC: 1.28713 (Simulation time: 0 hr 41 min 26 sec) 
Heartbeat CPU 0 instructions: 91000001 cycles: 53120525 heartbeat IPC: 1.28577 cumulative IPC: 1.2871 (Simulation time: 0 hr 41 min 58 sec) 
Heartbeat CPU 0 instructions: 92000000 cycles: 53911380 heartbeat IPC: 1.26445 cumulative IPC: 1.28655 (Simulation time: 0 hr 42 min 30 sec) 
Heartbeat CPU 0 instructions: 93000000 cycles: 54689945 heartbeat IPC: 1.28441 cumulative IPC: 1.2865 (Simulation time: 0 hr 42 min 58 sec) 
Heartbeat CPU 0 instructions: 94000002 cycles: 55469051 heartbeat IPC: 1.28352 cumulative IPC: 1.28643 (Simulation time: 0 hr 43 min 28 sec) 
Heartbeat CPU 0 instructions: 95000001 cycles: 56252243 heartbeat IPC: 1.27682 cumulative IPC: 1.28622 (Simulation time: 0 hr 43 min 58 sec) 
Heartbeat CPU 0 instructions: 96000000 cycles: 57027057 heartbeat IPC: 1.29063 cumulative IPC: 1.28631 (Simulation time: 0 hr 44 min 25 sec) 
Heartbeat CPU 0 instructions: 97000003 cycles: 57801500 heartbeat IPC: 1.29125 cumulative IPC: 1.28642 (Simulation time: 0 hr 44 min 54 sec) 
Heartbeat CPU 0 instructions: 98000002 cycles: 58579460 heartbeat IPC: 1.28541 cumulative IPC: 1.2864 (Simulation time: 0 hr 45 min 21 sec) 
Heartbeat CPU 0 instructions: 99000000 cycles: 59368000 heartbeat IPC: 1.26816 cumulative IPC: 1.28602 (Simulation time: 0 hr 45 min 49 sec) 
Heartbeat CPU 0 instructions: 100000000 cycles: 60143815 heartbeat IPC: 1.28897 cumulative IPC: 1.28608 (Simulation time: 0 hr 46 min 15 sec) 
Heartbeat CPU 0 instructions: 101000002 cycles: 60915740 heartbeat IPC: 1.29547 cumulative IPC: 1.28626 (Simulation time: 0 hr 46 min 43 sec) 
Heartbeat CPU 0 instructions: 102000002 cycles: 61706981 heartbeat IPC: 1.26384 cumulative IPC: 1.28582 (Simulation time: 0 hr 47 min 12 sec) 
Heartbeat CPU 0 instructions: 103000001 cycles: 62480095 heartbeat IPC: 1.29347 cumulative IPC: 1.28597 (Simulation time: 0 hr 47 min 41 sec) 
Heartbeat CPU 0 instructions: 104000000 cycles: 63268114 heartbeat IPC: 1.269 cumulative IPC: 1.28565 (Simulation time: 0 hr 48 min 11 sec) 
Heartbeat CPU 0 instructions: 105000001 cycles: 64053442 heartbeat IPC: 1.27335 cumulative IPC: 1.28542 (Simulation time: 0 hr 48 min 42 sec) 
Heartbeat CPU 0 instructions: 106000000 cycles: 64829481 heartbeat IPC: 1.28859 cumulative IPC: 1.28548 (Simulation time: 0 hr 49 min 11 sec) 
Heartbeat CPU 0 instructions: 107000000 cycles: 65609199 heartbeat IPC: 1.28251 cumulative IPC: 1.28543 (Simulation time: 0 hr 49 min 40 sec) 
Heartbeat CPU 0 instructions: 108000000 cycles: 66389653 heartbeat IPC: 1.28131 cumulative IPC: 1.28536 (Simulation time: 0 hr 50 min 9 sec) 
Heartbeat CPU 0 instructions: 109000000 cycles: 67175162 heartbeat IPC: 1.27306 cumulative IPC: 1.28515 (Simulation time: 0 hr 50 min 36 sec) 
Heartbeat CPU 0 instructions: 110000002 cycles: 67961371 heartbeat IPC: 1.27193 cumulative IPC: 1.28492 (Simulation time: 0 hr 51 min 5 sec) 
Heartbeat CPU 0 instructions: 111000000 cycles: 68738948 heartbeat IPC: 1.28604 cumulative IPC: 1.28494 (Simulation time: 0 hr 51 min 32 sec) 
Heartbeat CPU 0 instructions: 112000000 cycles: 69528376 heartbeat IPC: 1.26674 cumulative IPC: 1.28464 (Simulation time: 0 hr 52 min 2 sec) 
Heartbeat CPU 0 instructions: 113000003 cycles: 70311891 heartbeat IPC: 1.2763 cumulative IPC: 1.28451 (Simulation time: 0 hr 52 min 30 sec) 
Heartbeat CPU 0 instructions: 114000000 cycles: 71093941 heartbeat IPC: 1.27869 cumulative IPC: 1.28442 (Simulation time: 0 hr 52 min 58 sec) 
Heartbeat CPU 0 instructions: 115000000 cycles: 71873756 heartbeat IPC: 1.28236 cumulative IPC: 1.28439 (Simulation time: 0 hr 53 min 27 sec) 
Heartbeat CPU 0 instructions: 116000000 cycles: 72654056 heartbeat IPC: 1.28156 cumulative IPC: 1.28434 (Simulation time: 0 hr 53 min 55 sec) 
Heartbeat CPU 0 instructions: 117000000 cycles: 73437480 heartbeat IPC: 1.27645 cumulative IPC: 1.28423 (Simulation time: 0 hr 54 min 23 sec) 
Heartbeat CPU 0 instructions: 118000000 cycles: 74218616 heartbeat IPC: 1.28019 cumulative IPC: 1.28417 (Simulation time: 0 hr 54 min 52 sec) 
Heartbeat CPU 0 instructions: 119000000 cycles: 74994986 heartbeat IPC: 1.28805 cumulative IPC: 1.28422 (Simulation time: 0 hr 55 min 20 sec) 
Heartbeat CPU 0 instructions: 120000000 cycles: 75783221 heartbeat IPC: 1.26866 cumulative IPC: 1.284 (Simulation time: 0 hr 55 min 47 sec) 
Heartbeat CPU 0 instructions: 121000000 cycles: 76564997 heartbeat IPC: 1.27914 cumulative IPC: 1.28393 (Simulation time: 0 hr 56 min 20 sec) 
Heartbeat CPU 0 instructions: 122000003 cycles: 77344005 heartbeat IPC: 1.28369 cumulative IPC: 1.28393 (Simulation time: 0 hr 56 min 51 sec) 
Heartbeat CPU 0 instructions: 123000001 cycles: 78125170 heartbeat IPC: 1.28014 cumulative IPC: 1.28387 (Simulation time: 0 hr 57 min 19 sec) 
Heartbeat CPU 0 instructions: 124000000 cycles: 78907264 heartbeat IPC: 1.27862 cumulative IPC: 1.2838 (Simulation time: 0 hr 57 min 47 sec) 
Heartbeat CPU 0 instructions: 125000001 cycles: 79688372 heartbeat IPC: 1.28023 cumulative IPC: 1.28375 (Simulation time: 0 hr 58 min 16 sec) 
Heartbeat CPU 0 instructions: 126000003 cycles: 80471195 heartbeat IPC: 1.27743 cumulative IPC: 1.28367 (Simulation time: 0 hr 58 min 47 sec) 
Heartbeat CPU 0 instructions: 127000003 cycles: 81257219 heartbeat IPC: 1.27223 cumulative IPC: 1.28352 (Simulation time: 0 hr 59 min 16 sec) 
Heartbeat CPU 0 instructions: 128000000 cycles: 82027047 heartbeat IPC: 1.29899 cumulative IPC: 1.28372 (Simulation time: 0 hr 59 min 45 sec) 
Heartbeat CPU 0 instructions: 129000002 cycles: 82801820 heartbeat IPC: 1.2907 cumulative IPC: 1.2838 (Simulation time: 1 hr 0 min 19 sec) 
Heartbeat CPU 0 instructions: 130000003 cycles: 83584750 heartbeat IPC: 1.27725 cumulative IPC: 1.28372 (Simulation time: 1 hr 0 min 47 sec) 
Heartbeat CPU 0 instructions: 131000003 cycles: 84370283 heartbeat IPC: 1.27302 cumulative IPC: 1.28359 (Simulation time: 1 hr 1 min 16 sec) 
Heartbeat CPU 0 instructions: 132000000 cycles: 85152812 heartbeat IPC: 1.2779 cumulative IPC: 1.28352 (Simulation time: 1 hr 1 min 45 sec) 
Heartbeat CPU 0 instructions: 133000001 cycles: 85929901 heartbeat IPC: 1.28686 cumulative IPC: 1.28356 (Simulation time: 1 hr 2 min 18 sec) 
Heartbeat CPU 0 instructions: 134000003 cycles: 86715546 heartbeat IPC: 1.27284 cumulative IPC: 1.28343 (Simulation time: 1 hr 2 min 51 sec) 
Heartbeat CPU 0 instructions: 135000000 cycles: 87493152 heartbeat IPC: 1.28599 cumulative IPC: 1.28346 (Simulation time: 1 hr 3 min 22 sec) 
Heartbeat CPU 0 instructions: 136000000 cycles: 88285385 heartbeat IPC: 1.26225 cumulative IPC: 1.28321 (Simulation time: 1 hr 3 min 51 sec) 
Heartbeat CPU 0 instructions: 137000003 cycles: 89060123 heartbeat IPC: 1.29076 cumulative IPC: 1.2833 (Simulation time: 1 hr 4 min 21 sec) 
Heartbeat CPU 0 instructions: 138000000 cycles: 89827077 heartbeat IPC: 1.30386 cumulative IPC: 1.28353 (Simulation time: 1 hr 4 min 54 sec) 
Heartbeat CPU 0 instructions: 139000000 cycles: 90615004 heartbeat IPC: 1.26915 cumulative IPC: 1.28336 (Simulation time: 1 hr 5 min 22 sec) 
Heartbeat CPU 0 instructions: 140000000 cycles: 91406273 heartbeat IPC: 1.26379 cumulative IPC: 1.28314 (Simulation time: 1 hr 5 min 53 sec) 
Heartbeat CPU 0 instructions: 141000000 cycles: 92182137 heartbeat IPC: 1.28889 cumulative IPC: 1.28321 (Simulation time: 1 hr 6 min 24 sec) 
Heartbeat CPU 0 instructions: 142000003 cycles: 92961646 heartbeat IPC: 1.28286 cumulative IPC: 1.2832 (Simulation time: 1 hr 6 min 51 sec) 
Heartbeat CPU 0 instructions: 143000001 cycles: 93748979 heartbeat IPC: 1.27011 cumulative IPC: 1.28306 (Simulation time: 1 hr 7 min 16 sec) 
Heartbeat CPU 0 instructions: 144000000 cycles: 94529727 heartbeat IPC: 1.28082 cumulative IPC: 1.28304 (Simulation time: 1 hr 7 min 44 sec) 
Heartbeat CPU 0 instructions: 145000001 cycles: 95311923 heartbeat IPC: 1.27845 cumulative IPC: 1.28299 (Simulation time: 1 hr 8 min 13 sec) 
Heartbeat CPU 0 instructions: 146000000 cycles: 96097350 heartbeat IPC: 1.27319 cumulative IPC: 1.28288 (Simulation time: 1 hr 8 min 37 sec) 
Heartbeat CPU 0 instructions: 147000000 cycles: 96880190 heartbeat IPC: 1.2774 cumulative IPC: 1.28283 (Simulation time: 1 hr 9 min 3 sec) 
Heartbeat CPU 0 instructions: 148000000 cycles: 97658560 heartbeat IPC: 1.28474 cumulative IPC: 1.28285 (Simulation time: 1 hr 9 min 28 sec) 
Heartbeat CPU 0 instructions: 149000001 cycles: 98431817 heartbeat IPC: 1.29323 cumulative IPC: 1.28295 (Simulation time: 1 hr 9 min 54 sec) 
Heartbeat CPU 0 instructions: 150000000 cycles: 99214903 heartbeat IPC: 1.277 cumulative IPC: 1.28289 (Simulation time: 1 hr 10 min 20 sec) 
Finished CPU 0 instructions: 100000003 cycles: 77948930 cummulative IPC: 1.28289 (Simulation time: 1 hr 10 min 20 sec) 

ChampSim completed all CPUs

Region of Interest Statistics

CPU 0 cummulative IPC: 1.28289 instructions: 100000003 cycles: 77948930
LLC TOTAL     ACCESS:     381302  HIT:      61862  MISS:     319440
LLC LOAD      ACCESS:      29200  HIT:         69  MISS:      29131
LLC RFO       ACCESS:          0  HIT:          0  MISS:          0
LLC PREFETCH  ACCESS:     288344  HIT:        942  MISS:     287402
LLC WRITEBACK ACCESS:      63758  HIT:      60851  MISS:       2907
OPTgen accesses: 721
OPTgen hits: 108
OPTgen hit rate: 14.9792


