
*** ChampSim Multicore Out-of-Order Simulator ***

Warmup Instructions: 50000000
Simulation Instructions: 100000000
Configuration: 2
Number of CPUs: 1
LLC sets: 2048
LLC ways: 16
Off-chip DRAM Channels: 1 Width: 64-bit Data Rate: 1600 MT/s

CPU 0 runs /datasets/cs240c-wi22-a00-public/data/Assignment2-gz/omnetpp_4B.trace.gz
CPU 0 L1D next line prefetcher
CPU 0 L2C IP-based stride prefetcher
Initialize Hawkeye state
Heartbeat CPU 0 instructions: 1000001 cycles: 566981 heartbeat IPC: 1.76373 cumulative IPC: 1.76373 (Simulation time: 0 hr 0 min 29 sec) 
Heartbeat CPU 0 instructions: 2000001 cycles: 1135674 heartbeat IPC: 1.75842 cumulative IPC: 1.76107 (Simulation time: 0 hr 1 min 2 sec) 
Heartbeat CPU 0 instructions: 3000001 cycles: 1722678 heartbeat IPC: 1.70357 cumulative IPC: 1.74148 (Simulation time: 0 hr 1 min 36 sec) 
Heartbeat CPU 0 instructions: 4000000 cycles: 2292030 heartbeat IPC: 1.75638 cumulative IPC: 1.74518 (Simulation time: 0 hr 2 min 10 sec) 
Heartbeat CPU 0 instructions: 5000000 cycles: 2866260 heartbeat IPC: 1.74146 cumulative IPC: 1.74443 (Simulation time: 0 hr 2 min 42 sec) 
Heartbeat CPU 0 instructions: 6000000 cycles: 3442502 heartbeat IPC: 1.73538 cumulative IPC: 1.74292 (Simulation time: 0 hr 3 min 11 sec) 
Heartbeat CPU 0 instructions: 7000000 cycles: 4011836 heartbeat IPC: 1.75644 cumulative IPC: 1.74484 (Simulation time: 0 hr 3 min 39 sec) 
Heartbeat CPU 0 instructions: 8000000 cycles: 4565386 heartbeat IPC: 1.80652 cumulative IPC: 1.75232 (Simulation time: 0 hr 4 min 8 sec) 
Heartbeat CPU 0 instructions: 9000001 cycles: 5147554 heartbeat IPC: 1.71772 cumulative IPC: 1.7484 (Simulation time: 0 hr 4 min 39 sec) 
Heartbeat CPU 0 instructions: 10000000 cycles: 5701613 heartbeat IPC: 1.80486 cumulative IPC: 1.75389 (Simulation time: 0 hr 5 min 9 sec) 
Heartbeat CPU 0 instructions: 11000000 cycles: 6288832 heartbeat IPC: 1.70294 cumulative IPC: 1.74913 (Simulation time: 0 hr 5 min 42 sec) 
Heartbeat CPU 0 instructions: 12000000 cycles: 6939914 heartbeat IPC: 1.5359 cumulative IPC: 1.72913 (Simulation time: 0 hr 6 min 8 sec) 
Heartbeat CPU 0 instructions: 13000002 cycles: 7587100 heartbeat IPC: 1.54515 cumulative IPC: 1.71343 (Simulation time: 0 hr 6 min 34 sec) 
Heartbeat CPU 0 instructions: 14000000 cycles: 8237601 heartbeat IPC: 1.53727 cumulative IPC: 1.69952 (Simulation time: 0 hr 7 min 1 sec) 
Heartbeat CPU 0 instructions: 15000000 cycles: 8891132 heartbeat IPC: 1.53015 cumulative IPC: 1.68707 (Simulation time: 0 hr 7 min 27 sec) 
Heartbeat CPU 0 instructions: 16000000 cycles: 9461597 heartbeat IPC: 1.75296 cumulative IPC: 1.69105 (Simulation time: 0 hr 7 min 57 sec) 
Heartbeat CPU 0 instructions: 17000000 cycles: 10043613 heartbeat IPC: 1.71817 cumulative IPC: 1.69262 (Simulation time: 0 hr 8 min 26 sec) 
Heartbeat CPU 0 instructions: 18000000 cycles: 10615143 heartbeat IPC: 1.74969 cumulative IPC: 1.69569 (Simulation time: 0 hr 8 min 55 sec) 
Heartbeat CPU 0 instructions: 19000002 cycles: 11183938 heartbeat IPC: 1.75811 cumulative IPC: 1.69887 (Simulation time: 0 hr 9 min 25 sec) 
Heartbeat CPU 0 instructions: 20000000 cycles: 11731691 heartbeat IPC: 1.82564 cumulative IPC: 1.70478 (Simulation time: 0 hr 9 min 56 sec) 
Heartbeat CPU 0 instructions: 21000000 cycles: 12279926 heartbeat IPC: 1.82404 cumulative IPC: 1.71011 (Simulation time: 0 hr 10 min 27 sec) 
Heartbeat CPU 0 instructions: 22000001 cycles: 12832894 heartbeat IPC: 1.80842 cumulative IPC: 1.71434 (Simulation time: 0 hr 10 min 57 sec) 
Heartbeat CPU 0 instructions: 23000000 cycles: 13414518 heartbeat IPC: 1.71932 cumulative IPC: 1.71456 (Simulation time: 0 hr 11 min 29 sec) 
Heartbeat CPU 0 instructions: 24000000 cycles: 13984321 heartbeat IPC: 1.75499 cumulative IPC: 1.71621 (Simulation time: 0 hr 11 min 59 sec) 
Heartbeat CPU 0 instructions: 25000000 cycles: 14547206 heartbeat IPC: 1.77656 cumulative IPC: 1.71854 (Simulation time: 0 hr 12 min 30 sec) 
Heartbeat CPU 0 instructions: 26000001 cycles: 15116790 heartbeat IPC: 1.75567 cumulative IPC: 1.71994 (Simulation time: 0 hr 13 min 1 sec) 
Heartbeat CPU 0 instructions: 27000001 cycles: 15683504 heartbeat IPC: 1.76456 cumulative IPC: 1.72155 (Simulation time: 0 hr 13 min 34 sec) 
Heartbeat CPU 0 instructions: 28000000 cycles: 16252746 heartbeat IPC: 1.75672 cumulative IPC: 1.72279 (Simulation time: 0 hr 14 min 4 sec) 
Heartbeat CPU 0 instructions: 29000000 cycles: 16839147 heartbeat IPC: 1.70532 cumulative IPC: 1.72218 (Simulation time: 0 hr 14 min 34 sec) 
Heartbeat CPU 0 instructions: 30000000 cycles: 17409950 heartbeat IPC: 1.75192 cumulative IPC: 1.72315 (Simulation time: 0 hr 15 min 3 sec) 
Heartbeat CPU 0 instructions: 31000000 cycles: 17985564 heartbeat IPC: 1.73728 cumulative IPC: 1.7236 (Simulation time: 0 hr 15 min 30 sec) 
Heartbeat CPU 0 instructions: 32000000 cycles: 18555405 heartbeat IPC: 1.75488 cumulative IPC: 1.72456 (Simulation time: 0 hr 15 min 58 sec) 
Heartbeat CPU 0 instructions: 33000000 cycles: 19114069 heartbeat IPC: 1.78998 cumulative IPC: 1.72648 (Simulation time: 0 hr 16 min 26 sec) 
Heartbeat CPU 0 instructions: 34000001 cycles: 19666729 heartbeat IPC: 1.80943 cumulative IPC: 1.72881 (Simulation time: 0 hr 16 min 55 sec) 
Heartbeat CPU 0 instructions: 35000001 cycles: 20247792 heartbeat IPC: 1.72098 cumulative IPC: 1.72858 (Simulation time: 0 hr 17 min 25 sec) 
Heartbeat CPU 0 instructions: 36000000 cycles: 20803541 heartbeat IPC: 1.79937 cumulative IPC: 1.73047 (Simulation time: 0 hr 17 min 55 sec) 
Heartbeat CPU 0 instructions: 37000001 cycles: 21375798 heartbeat IPC: 1.74747 cumulative IPC: 1.73093 (Simulation time: 0 hr 18 min 25 sec) 
Heartbeat CPU 0 instructions: 38000001 cycles: 21936348 heartbeat IPC: 1.78396 cumulative IPC: 1.73228 (Simulation time: 0 hr 18 min 55 sec) 
Heartbeat CPU 0 instructions: 39000001 cycles: 22549219 heartbeat IPC: 1.63166 cumulative IPC: 1.72955 (Simulation time: 0 hr 19 min 24 sec) 
Heartbeat CPU 0 instructions: 40000000 cycles: 23198224 heartbeat IPC: 1.54082 cumulative IPC: 1.72427 (Simulation time: 0 hr 19 min 50 sec) 
Heartbeat CPU 0 instructions: 41000001 cycles: 23847180 heartbeat IPC: 1.54094 cumulative IPC: 1.71928 (Simulation time: 0 hr 20 min 16 sec) 
Heartbeat CPU 0 instructions: 42000001 cycles: 24494104 heartbeat IPC: 1.54578 cumulative IPC: 1.7147 (Simulation time: 0 hr 20 min 41 sec) 
Heartbeat CPU 0 instructions: 43000000 cycles: 25162768 heartbeat IPC: 1.49552 cumulative IPC: 1.70887 (Simulation time: 0 hr 21 min 7 sec) 
Heartbeat CPU 0 instructions: 44000000 cycles: 25726605 heartbeat IPC: 1.77356 cumulative IPC: 1.71029 (Simulation time: 0 hr 21 min 36 sec) 
Heartbeat CPU 0 instructions: 45000000 cycles: 26290373 heartbeat IPC: 1.77378 cumulative IPC: 1.71165 (Simulation time: 0 hr 22 min 7 sec) 
Heartbeat CPU 0 instructions: 46000000 cycles: 26836607 heartbeat IPC: 1.83072 cumulative IPC: 1.71408 (Simulation time: 0 hr 22 min 38 sec) 
Heartbeat CPU 0 instructions: 47000000 cycles: 27382814 heartbeat IPC: 1.83081 cumulative IPC: 1.71641 (Simulation time: 0 hr 23 min 5 sec) 
Heartbeat CPU 0 instructions: 48000000 cycles: 27934361 heartbeat IPC: 1.81308 cumulative IPC: 1.71831 (Simulation time: 0 hr 23 min 33 sec) 
Heartbeat CPU 0 instructions: 49000002 cycles: 28515279 heartbeat IPC: 1.72142 cumulative IPC: 1.71838 (Simulation time: 0 hr 24 min 3 sec) 
Heartbeat CPU 0 instructions: 50000000 cycles: 29085310 heartbeat IPC: 1.75429 cumulative IPC: 1.71908 (Simulation time: 0 hr 24 min 29 sec) 

Warmup complete CPU 0 instructions: 50000002 cycles: 29085311 (Simulation time: 0 hr 24 min 29 sec) 

Heartbeat CPU 0 instructions: 51000003 cycles: 31984303 heartbeat IPC: 0.344948 cumulative IPC: 0.344948 (Simulation time: 0 hr 25 min 1 sec) 
Heartbeat CPU 0 instructions: 52000000 cycles: 34867262 heartbeat IPC: 0.346865 cumulative IPC: 0.345904 (Simulation time: 0 hr 25 min 33 sec) 
Heartbeat CPU 0 instructions: 53000003 cycles: 37771917 heartbeat IPC: 0.344276 cumulative IPC: 0.345359 (Simulation time: 0 hr 26 min 5 sec) 
Heartbeat CPU 0 instructions: 54000001 cycles: 40642761 heartbeat IPC: 0.348329 cumulative IPC: 0.346097 (Simulation time: 0 hr 26 min 36 sec) 
Heartbeat CPU 0 instructions: 55000001 cycles: 43654904 heartbeat IPC: 0.33199 cumulative IPC: 0.34318 (Simulation time: 0 hr 27 min 8 sec) 
Heartbeat CPU 0 instructions: 56000000 cycles: 46525945 heartbeat IPC: 0.348305 cumulative IPC: 0.344024 (Simulation time: 0 hr 27 min 41 sec) 
Heartbeat CPU 0 instructions: 57000003 cycles: 49378327 heartbeat IPC: 0.350585 cumulative IPC: 0.344946 (Simulation time: 0 hr 28 min 12 sec) 
Heartbeat CPU 0 instructions: 58000001 cycles: 52469815 heartbeat IPC: 0.323468 cumulative IPC: 0.342107 (Simulation time: 0 hr 28 min 47 sec) 
Heartbeat CPU 0 instructions: 59000001 cycles: 55883236 heartbeat IPC: 0.292961 cumulative IPC: 0.335847 (Simulation time: 0 hr 29 min 23 sec) 
Heartbeat CPU 0 instructions: 60000000 cycles: 58973401 heartbeat IPC: 0.323607 cumulative IPC: 0.334581 (Simulation time: 0 hr 30 min 2 sec) 
Heartbeat CPU 0 instructions: 61000001 cycles: 62099833 heartbeat IPC: 0.319854 cumulative IPC: 0.333187 (Simulation time: 0 hr 30 min 40 sec) 
Heartbeat CPU 0 instructions: 62000000 cycles: 65538301 heartbeat IPC: 0.290827 cumulative IPC: 0.329191 (Simulation time: 0 hr 31 min 11 sec) 
Heartbeat CPU 0 instructions: 63000001 cycles: 68464975 heartbeat IPC: 0.341685 cumulative IPC: 0.33012 (Simulation time: 0 hr 31 min 41 sec) 
Heartbeat CPU 0 instructions: 64000000 cycles: 71367937 heartbeat IPC: 0.344475 cumulative IPC: 0.331105 (Simulation time: 0 hr 32 min 18 sec) 
Heartbeat CPU 0 instructions: 65000001 cycles: 74261532 heartbeat IPC: 0.345591 cumulative IPC: 0.332033 (Simulation time: 0 hr 32 min 51 sec) 
Heartbeat CPU 0 instructions: 66000002 cycles: 78563824 heartbeat IPC: 0.232434 cumulative IPC: 0.323373 (Simulation time: 0 hr 33 min 36 sec) 
Heartbeat CPU 0 instructions: 67000001 cycles: 80235800 heartbeat IPC: 0.598094 cumulative IPC: 0.332353 (Simulation time: 0 hr 34 min 7 sec) 
Heartbeat CPU 0 instructions: 68000000 cycles: 81359547 heartbeat IPC: 0.889879 cumulative IPC: 0.344338 (Simulation time: 0 hr 34 min 31 sec) 
Heartbeat CPU 0 instructions: 69000003 cycles: 82501689 heartbeat IPC: 0.875551 cumulative IPC: 0.355696 (Simulation time: 0 hr 34 min 56 sec) 
Heartbeat CPU 0 instructions: 70000000 cycles: 83622228 heartbeat IPC: 0.892425 cumulative IPC: 0.366724 (Simulation time: 0 hr 35 min 22 sec) 
Heartbeat CPU 0 instructions: 71000001 cycles: 84794959 heartbeat IPC: 0.852711 cumulative IPC: 0.376954 (Simulation time: 0 hr 35 min 48 sec) 
Heartbeat CPU 0 instructions: 72000000 cycles: 88217289 heartbeat IPC: 0.292198 cumulative IPC: 0.372049 (Simulation time: 0 hr 36 min 23 sec) 
Heartbeat CPU 0 instructions: 73000000 cycles: 91734834 heartbeat IPC: 0.284289 cumulative IPC: 0.367122 (Simulation time: 0 hr 36 min 57 sec) 
Heartbeat CPU 0 instructions: 74000001 cycles: 95204486 heartbeat IPC: 0.288214 cumulative IPC: 0.362981 (Simulation time: 0 hr 37 min 31 sec) 
Heartbeat CPU 0 instructions: 75000001 cycles: 98180419 heartbeat IPC: 0.336029 cumulative IPC: 0.36182 (Simulation time: 0 hr 38 min 8 sec) 
Heartbeat CPU 0 instructions: 76000000 cycles: 101056731 heartbeat IPC: 0.347667 cumulative IPC: 0.361254 (Simulation time: 0 hr 38 min 40 sec) 
Heartbeat CPU 0 instructions: 77000000 cycles: 103967304 heartbeat IPC: 0.343575 cumulative IPC: 0.360567 (Simulation time: 0 hr 39 min 12 sec) 
Heartbeat CPU 0 instructions: 78000001 cycles: 106879054 heartbeat IPC: 0.343436 cumulative IPC: 0.359926 (Simulation time: 0 hr 39 min 42 sec) 
Heartbeat CPU 0 instructions: 79000001 cycles: 109783572 heartbeat IPC: 0.344291 cumulative IPC: 0.359363 (Simulation time: 0 hr 40 min 12 sec) 
Heartbeat CPU 0 instructions: 80000000 cycles: 112664673 heartbeat IPC: 0.347089 cumulative IPC: 0.35894 (Simulation time: 0 hr 40 min 47 sec) 
Heartbeat CPU 0 instructions: 81000002 cycles: 115618075 heartbeat IPC: 0.338593 cumulative IPC: 0.358246 (Simulation time: 0 hr 41 min 22 sec) 
Heartbeat CPU 0 instructions: 82000001 cycles: 118485954 heartbeat IPC: 0.348689 cumulative IPC: 0.357939 (Simulation time: 0 hr 41 min 54 sec) 
Heartbeat CPU 0 instructions: 83000002 cycles: 121413260 heartbeat IPC: 0.341611 cumulative IPC: 0.357422 (Simulation time: 0 hr 42 min 27 sec) 
Heartbeat CPU 0 instructions: 84000000 cycles: 124375707 heartbeat IPC: 0.337558 cumulative IPC: 0.356804 (Simulation time: 0 hr 43 min 1 sec) 
Heartbeat CPU 0 instructions: 85000002 cycles: 127830324 heartbeat IPC: 0.289468 cumulative IPC: 0.354448 (Simulation time: 0 hr 43 min 38 sec) 
Heartbeat CPU 0 instructions: 86000002 cycles: 131278174 heartbeat IPC: 0.290036 cumulative IPC: 0.352275 (Simulation time: 0 hr 44 min 14 sec) 
Heartbeat CPU 0 instructions: 87000000 cycles: 134380938 heartbeat IPC: 0.322293 cumulative IPC: 0.351392 (Simulation time: 0 hr 44 min 46 sec) 
Heartbeat CPU 0 instructions: 88000000 cycles: 137486527 heartbeat IPC: 0.322 cumulative IPC: 0.35055 (Simulation time: 0 hr 45 min 18 sec) 
Heartbeat CPU 0 instructions: 89000002 cycles: 140673516 heartbeat IPC: 0.313776 cumulative IPC: 0.349499 (Simulation time: 0 hr 45 min 49 sec) 
Heartbeat CPU 0 instructions: 90000001 cycles: 143525209 heartbeat IPC: 0.350669 cumulative IPC: 0.349528 (Simulation time: 0 hr 46 min 19 sec) 
Heartbeat CPU 0 instructions: 91000001 cycles: 146397409 heartbeat IPC: 0.348165 cumulative IPC: 0.349495 (Simulation time: 0 hr 46 min 52 sec) 
Heartbeat CPU 0 instructions: 92000000 cycles: 149365259 heartbeat IPC: 0.336944 cumulative IPC: 0.349185 (Simulation time: 0 hr 47 min 26 sec) 
Heartbeat CPU 0 instructions: 93000000 cycles: 152252682 heartbeat IPC: 0.34633 cumulative IPC: 0.349118 (Simulation time: 0 hr 48 min 0 sec) 
Heartbeat CPU 0 instructions: 94000000 cycles: 156954254 heartbeat IPC: 0.212695 cumulative IPC: 0.344102 (Simulation time: 0 hr 48 min 41 sec) 
Heartbeat CPU 0 instructions: 95000000 cycles: 158142320 heartbeat IPC: 0.841704 cumulative IPC: 0.348683 (Simulation time: 0 hr 49 min 7 sec) 
Heartbeat CPU 0 instructions: 96000000 cycles: 159285301 heartbeat IPC: 0.874905 cumulative IPC: 0.353303 (Simulation time: 0 hr 49 min 37 sec) 
Heartbeat CPU 0 instructions: 97000002 cycles: 160404004 heartbeat IPC: 0.893894 cumulative IPC: 0.357908 (Simulation time: 0 hr 50 min 10 sec) 
Heartbeat CPU 0 instructions: 98000001 cycles: 161545941 heartbeat IPC: 0.875704 cumulative IPC: 0.362372 (Simulation time: 0 hr 50 min 37 sec) 
Heartbeat CPU 0 instructions: 99000002 cycles: 163454514 heartbeat IPC: 0.523952 cumulative IPC: 0.364667 (Simulation time: 0 hr 51 min 7 sec) 
Heartbeat CPU 0 instructions: 100000000 cycles: 166988124 heartbeat IPC: 0.282996 cumulative IPC: 0.362574 (Simulation time: 0 hr 51 min 48 sec) 
Heartbeat CPU 0 instructions: 101000002 cycles: 170166381 heartbeat IPC: 0.314638 cumulative IPC: 0.361494 (Simulation time: 0 hr 52 min 23 sec) 
Heartbeat CPU 0 instructions: 102000001 cycles: 173260302 heartbeat IPC: 0.323214 cumulative IPC: 0.360673 (Simulation time: 0 hr 52 min 55 sec) 
Heartbeat CPU 0 instructions: 103000000 cycles: 176156382 heartbeat IPC: 0.345294 cumulative IPC: 0.36037 (Simulation time: 0 hr 53 min 27 sec) 
Heartbeat CPU 0 instructions: 104000000 cycles: 179041678 heartbeat IPC: 0.346585 cumulative IPC: 0.360105 (Simulation time: 0 hr 54 min 0 sec) 
Heartbeat CPU 0 instructions: 105000001 cycles: 181901292 heartbeat IPC: 0.349698 cumulative IPC: 0.35991 (Simulation time: 0 hr 54 min 33 sec) 
Heartbeat CPU 0 instructions: 106000000 cycles: 184872403 heartbeat IPC: 0.336574 cumulative IPC: 0.359465 (Simulation time: 0 hr 55 min 6 sec) 
Heartbeat CPU 0 instructions: 107000002 cycles: 187754510 heartbeat IPC: 0.346969 cumulative IPC: 0.359238 (Simulation time: 0 hr 55 min 38 sec) 
Heartbeat CPU 0 instructions: 108000000 cycles: 190647795 heartbeat IPC: 0.345627 cumulative IPC: 0.358994 (Simulation time: 0 hr 56 min 13 sec) 
Heartbeat CPU 0 instructions: 109000002 cycles: 193545275 heartbeat IPC: 0.345128 cumulative IPC: 0.35875 (Simulation time: 0 hr 56 min 50 sec) 
Heartbeat CPU 0 instructions: 110000001 cycles: 196448892 heartbeat IPC: 0.344398 cumulative IPC: 0.358501 (Simulation time: 0 hr 57 min 24 sec) 
Heartbeat CPU 0 instructions: 111000001 cycles: 199531398 heartbeat IPC: 0.324411 cumulative IPC: 0.357884 (Simulation time: 0 hr 57 min 57 sec) 
Heartbeat CPU 0 instructions: 112000000 cycles: 202953787 heartbeat IPC: 0.292193 cumulative IPC: 0.356591 (Simulation time: 0 hr 58 min 32 sec) 
Heartbeat CPU 0 instructions: 113000002 cycles: 206069204 heartbeat IPC: 0.320985 cumulative IPC: 0.355965 (Simulation time: 0 hr 59 min 9 sec) 
Heartbeat CPU 0 instructions: 114000001 cycles: 209484837 heartbeat IPC: 0.292771 cumulative IPC: 0.354768 (Simulation time: 0 hr 59 min 44 sec) 
Heartbeat CPU 0 instructions: 115000001 cycles: 212683132 heartbeat IPC: 0.312667 cumulative IPC: 0.354035 (Simulation time: 1 hr 0 min 18 sec) 
Heartbeat CPU 0 instructions: 116000000 cycles: 215643199 heartbeat IPC: 0.33783 cumulative IPC: 0.353778 (Simulation time: 1 hr 0 min 52 sec) 
Heartbeat CPU 0 instructions: 117000001 cycles: 218544509 heartbeat IPC: 0.344672 cumulative IPC: 0.353638 (Simulation time: 1 hr 1 min 26 sec) 
Heartbeat CPU 0 instructions: 118000000 cycles: 221540984 heartbeat IPC: 0.333725 cumulative IPC: 0.353328 (Simulation time: 1 hr 2 min 1 sec) 
Heartbeat CPU 0 instructions: 119000001 cycles: 224452634 heartbeat IPC: 0.343448 cumulative IPC: 0.353181 (Simulation time: 1 hr 2 min 35 sec) 
Heartbeat CPU 0 instructions: 120000000 cycles: 227376483 heartbeat IPC: 0.342015 cumulative IPC: 0.353016 (Simulation time: 1 hr 3 min 6 sec) 
Heartbeat CPU 0 instructions: 121000003 cycles: 230310648 heartbeat IPC: 0.340813 cumulative IPC: 0.352838 (Simulation time: 1 hr 3 min 36 sec) 
Heartbeat CPU 0 instructions: 122000000 cycles: 235025633 heartbeat IPC: 0.212089 cumulative IPC: 0.349616 (Simulation time: 1 hr 4 min 14 sec) 
Heartbeat CPU 0 instructions: 123000001 cycles: 236191934 heartbeat IPC: 0.857412 cumulative IPC: 0.352475 (Simulation time: 1 hr 4 min 40 sec) 
Heartbeat CPU 0 instructions: 124000000 cycles: 237313920 heartbeat IPC: 0.891276 cumulative IPC: 0.355379 (Simulation time: 1 hr 5 min 4 sec) 
Heartbeat CPU 0 instructions: 125000000 cycles: 238455592 heartbeat IPC: 0.875908 cumulative IPC: 0.358217 (Simulation time: 1 hr 5 min 30 sec) 
Heartbeat CPU 0 instructions: 126000001 cycles: 239669578 heartbeat IPC: 0.823734 cumulative IPC: 0.360901 (Simulation time: 1 hr 5 min 54 sec) 
Heartbeat CPU 0 instructions: 127000000 cycles: 241704496 heartbeat IPC: 0.49142 cumulative IPC: 0.36215 (Simulation time: 1 hr 6 min 22 sec) 
Heartbeat CPU 0 instructions: 128000000 cycles: 245210919 heartbeat IPC: 0.285191 cumulative IPC: 0.360901 (Simulation time: 1 hr 6 min 54 sec) 
Heartbeat CPU 0 instructions: 129000001 cycles: 248411580 heartbeat IPC: 0.312436 cumulative IPC: 0.360194 (Simulation time: 1 hr 7 min 25 sec) 
Heartbeat CPU 0 instructions: 130000000 cycles: 251318331 heartbeat IPC: 0.344026 cumulative IPC: 0.359982 (Simulation time: 1 hr 7 min 57 sec) 
Heartbeat CPU 0 instructions: 131000001 cycles: 254233158 heartbeat IPC: 0.343074 cumulative IPC: 0.359764 (Simulation time: 1 hr 8 min 29 sec) 
Heartbeat CPU 0 instructions: 132000000 cycles: 257178274 heartbeat IPC: 0.339545 cumulative IPC: 0.359503 (Simulation time: 1 hr 9 min 0 sec) 
Heartbeat CPU 0 instructions: 133000000 cycles: 260127117 heartbeat IPC: 0.339116 cumulative IPC: 0.359242 (Simulation time: 1 hr 9 min 29 sec) 
Heartbeat CPU 0 instructions: 134000000 cycles: 263056528 heartbeat IPC: 0.341366 cumulative IPC: 0.359019 (Simulation time: 1 hr 9 min 59 sec) 
Heartbeat CPU 0 instructions: 135000000 cycles: 265969079 heartbeat IPC: 0.343342 cumulative IPC: 0.358826 (Simulation time: 1 hr 10 min 28 sec) 
Heartbeat CPU 0 instructions: 136000000 cycles: 268884842 heartbeat IPC: 0.342963 cumulative IPC: 0.358633 (Simulation time: 1 hr 10 min 59 sec) 
Heartbeat CPU 0 instructions: 137000000 cycles: 271769059 heartbeat IPC: 0.346715 cumulative IPC: 0.358491 (Simulation time: 1 hr 11 min 27 sec) 
Heartbeat CPU 0 instructions: 138000001 cycles: 275117794 heartbeat IPC: 0.298621 cumulative IPC: 0.357676 (Simulation time: 1 hr 11 min 55 sec) 
Heartbeat CPU 0 instructions: 139000000 cycles: 277905664 heartbeat IPC: 0.358696 cumulative IPC: 0.357688 (Simulation time: 1 hr 12 min 23 sec) 
Heartbeat CPU 0 instructions: 140000000 cycles: 281377461 heartbeat IPC: 0.288035 cumulative IPC: 0.356729 (Simulation time: 1 hr 12 min 50 sec) 
Heartbeat CPU 0 instructions: 141000002 cycles: 284836786 heartbeat IPC: 0.289074 cumulative IPC: 0.355814 (Simulation time: 1 hr 13 min 16 sec) 
Heartbeat CPU 0 instructions: 142000001 cycles: 288201379 heartbeat IPC: 0.297212 cumulative IPC: 0.355053 (Simulation time: 1 hr 13 min 41 sec) 
Heartbeat CPU 0 instructions: 143000001 cycles: 291160875 heartbeat IPC: 0.337895 cumulative IPC: 0.354859 (Simulation time: 1 hr 14 min 5 sec) 
Heartbeat CPU 0 instructions: 144000000 cycles: 294157564 heartbeat IPC: 0.333701 cumulative IPC: 0.35462 (Simulation time: 1 hr 14 min 30 sec) 
Heartbeat CPU 0 instructions: 145000001 cycles: 297049704 heartbeat IPC: 0.345765 cumulative IPC: 0.354525 (Simulation time: 1 hr 14 min 53 sec) 
Heartbeat CPU 0 instructions: 146000000 cycles: 299988722 heartbeat IPC: 0.340249 cumulative IPC: 0.35437 (Simulation time: 1 hr 15 min 14 sec) 
Heartbeat CPU 0 instructions: 147000001 cycles: 302939277 heartbeat IPC: 0.33892 cumulative IPC: 0.354203 (Simulation time: 1 hr 15 min 36 sec) 
Heartbeat CPU 0 instructions: 148000000 cycles: 305851844 heartbeat IPC: 0.343339 cumulative IPC: 0.354089 (Simulation time: 1 hr 15 min 58 sec) 
Heartbeat CPU 0 instructions: 149000002 cycles: 308733355 heartbeat IPC: 0.347041 cumulative IPC: 0.354016 (Simulation time: 1 hr 16 min 20 sec) 
Heartbeat CPU 0 instructions: 150000001 cycles: 313439763 heartbeat IPC: 0.212476 cumulative IPC: 0.351674 (Simulation time: 1 hr 16 min 47 sec) 
Finished CPU 0 instructions: 100000000 cycles: 284354455 cummulative IPC: 0.351674 (Simulation time: 1 hr 16 min 47 sec) 

ChampSim completed all CPUs

Region of Interest Statistics

CPU 0 cummulative IPC: 0.351674 instructions: 100000000 cycles: 284354455
LLC TOTAL     ACCESS:    4941547  HIT:    2169168  MISS:    2772379
LLC LOAD      ACCESS:    2311783  HIT:    1795034  MISS:     516749
LLC RFO       ACCESS:      25013  HIT:       7364  MISS:      17649
LLC PREFETCH  ACCESS:    2523449  HIT:     295547  MISS:    2227902
LLC WRITEBACK ACCESS:      81302  HIT:      71223  MISS:      10079
OPTgen accesses: 53253
OPTgen hits: 51424
OPTgen hit rate: 96.5655


