
*** ChampSim Multicore Out-of-Order Simulator ***

Warmup Instructions: 50000000
Simulation Instructions: 100000000
Configuration: 2
Number of CPUs: 1
LLC sets: 2048
LLC ways: 16
Off-chip DRAM Channels: 1 Width: 64-bit Data Rate: 1600 MT/s

CPU 0 runs /datasets/cs240c-wi22-a00-public/data/Assignment2-gz/cactusADM_734B.trace.gz
CPU 0 L1D next line prefetcher
CPU 0 L2C IP-based stride prefetcher
Initialize Hawkeye state
Heartbeat CPU 0 instructions: 1000003 cycles: 592726 heartbeat IPC: 1.68713 cumulative IPC: 1.68713 (Simulation time: 0 hr 0 min 37 sec) 
Heartbeat CPU 0 instructions: 2000001 cycles: 1185927 heartbeat IPC: 1.68577 cumulative IPC: 1.68645 (Simulation time: 0 hr 1 min 15 sec) 
Heartbeat CPU 0 instructions: 3000003 cycles: 1778979 heartbeat IPC: 1.6862 cumulative IPC: 1.68636 (Simulation time: 0 hr 1 min 56 sec) 
Heartbeat CPU 0 instructions: 4000000 cycles: 2371929 heartbeat IPC: 1.68648 cumulative IPC: 1.68639 (Simulation time: 0 hr 2 min 37 sec) 
Heartbeat CPU 0 instructions: 5000000 cycles: 2965279 heartbeat IPC: 1.68535 cumulative IPC: 1.68618 (Simulation time: 0 hr 3 min 23 sec) 
Heartbeat CPU 0 instructions: 6000002 cycles: 3558551 heartbeat IPC: 1.68557 cumulative IPC: 1.68608 (Simulation time: 0 hr 3 min 59 sec) 
Heartbeat CPU 0 instructions: 7000000 cycles: 4151394 heartbeat IPC: 1.68678 cumulative IPC: 1.68618 (Simulation time: 0 hr 4 min 40 sec) 
Heartbeat CPU 0 instructions: 8000000 cycles: 4744343 heartbeat IPC: 1.68649 cumulative IPC: 1.68622 (Simulation time: 0 hr 5 min 17 sec) 
Heartbeat CPU 0 instructions: 9000001 cycles: 5337493 heartbeat IPC: 1.68592 cumulative IPC: 1.68619 (Simulation time: 0 hr 5 min 52 sec) 
Heartbeat CPU 0 instructions: 10000003 cycles: 5958967 heartbeat IPC: 1.60908 cumulative IPC: 1.67814 (Simulation time: 0 hr 6 min 30 sec) 
Heartbeat CPU 0 instructions: 11000003 cycles: 6686336 heartbeat IPC: 1.37482 cumulative IPC: 1.64515 (Simulation time: 0 hr 7 min 12 sec) 
Heartbeat CPU 0 instructions: 12000000 cycles: 7279034 heartbeat IPC: 1.68719 cumulative IPC: 1.64857 (Simulation time: 0 hr 7 min 49 sec) 
Heartbeat CPU 0 instructions: 13000002 cycles: 7872643 heartbeat IPC: 1.68461 cumulative IPC: 1.65129 (Simulation time: 0 hr 8 min 30 sec) 
Heartbeat CPU 0 instructions: 14000000 cycles: 8465789 heartbeat IPC: 1.68592 cumulative IPC: 1.65371 (Simulation time: 0 hr 9 min 13 sec) 
Heartbeat CPU 0 instructions: 15000000 cycles: 9058690 heartbeat IPC: 1.68662 cumulative IPC: 1.65587 (Simulation time: 0 hr 9 min 51 sec) 
Heartbeat CPU 0 instructions: 16000000 cycles: 9651934 heartbeat IPC: 1.68565 cumulative IPC: 1.6577 (Simulation time: 0 hr 10 min 29 sec) 
Heartbeat CPU 0 instructions: 17000002 cycles: 10245052 heartbeat IPC: 1.68601 cumulative IPC: 1.65934 (Simulation time: 0 hr 11 min 6 sec) 
Heartbeat CPU 0 instructions: 18000001 cycles: 10838494 heartbeat IPC: 1.68508 cumulative IPC: 1.66075 (Simulation time: 0 hr 11 min 43 sec) 
Heartbeat CPU 0 instructions: 19000001 cycles: 11431295 heartbeat IPC: 1.68691 cumulative IPC: 1.6621 (Simulation time: 0 hr 12 min 24 sec) 
Heartbeat CPU 0 instructions: 20000000 cycles: 12024523 heartbeat IPC: 1.68569 cumulative IPC: 1.66327 (Simulation time: 0 hr 13 min 6 sec) 
Heartbeat CPU 0 instructions: 21000002 cycles: 12617792 heartbeat IPC: 1.68558 cumulative IPC: 1.66432 (Simulation time: 0 hr 13 min 48 sec) 
Heartbeat CPU 0 instructions: 22000000 cycles: 13210834 heartbeat IPC: 1.68622 cumulative IPC: 1.6653 (Simulation time: 0 hr 14 min 23 sec) 
Heartbeat CPU 0 instructions: 23000001 cycles: 13804229 heartbeat IPC: 1.68522 cumulative IPC: 1.66616 (Simulation time: 0 hr 15 min 4 sec) 
Heartbeat CPU 0 instructions: 24000000 cycles: 14558187 heartbeat IPC: 1.32633 cumulative IPC: 1.64856 (Simulation time: 0 hr 15 min 50 sec) 
Heartbeat CPU 0 instructions: 25000000 cycles: 15151187 heartbeat IPC: 1.68634 cumulative IPC: 1.65004 (Simulation time: 0 hr 16 min 29 sec) 
Heartbeat CPU 0 instructions: 26000001 cycles: 15743861 heartbeat IPC: 1.68727 cumulative IPC: 1.65144 (Simulation time: 0 hr 17 min 6 sec) 
Heartbeat CPU 0 instructions: 27000003 cycles: 16337253 heartbeat IPC: 1.68523 cumulative IPC: 1.65266 (Simulation time: 0 hr 17 min 45 sec) 
Heartbeat CPU 0 instructions: 28000000 cycles: 16930229 heartbeat IPC: 1.6864 cumulative IPC: 1.65385 (Simulation time: 0 hr 18 min 22 sec) 
Heartbeat CPU 0 instructions: 29000001 cycles: 17523500 heartbeat IPC: 1.68557 cumulative IPC: 1.65492 (Simulation time: 0 hr 18 min 59 sec) 
Heartbeat CPU 0 instructions: 30000001 cycles: 18116121 heartbeat IPC: 1.68742 cumulative IPC: 1.65598 (Simulation time: 0 hr 19 min 37 sec) 
Heartbeat CPU 0 instructions: 31000000 cycles: 18709261 heartbeat IPC: 1.68594 cumulative IPC: 1.65693 (Simulation time: 0 hr 20 min 16 sec) 
Heartbeat CPU 0 instructions: 32000000 cycles: 19302359 heartbeat IPC: 1.68606 cumulative IPC: 1.65783 (Simulation time: 0 hr 20 min 52 sec) 
Heartbeat CPU 0 instructions: 33000000 cycles: 19895116 heartbeat IPC: 1.68703 cumulative IPC: 1.6587 (Simulation time: 0 hr 21 min 31 sec) 
Heartbeat CPU 0 instructions: 34000002 cycles: 20488382 heartbeat IPC: 1.68559 cumulative IPC: 1.65948 (Simulation time: 0 hr 22 min 11 sec) 
Heartbeat CPU 0 instructions: 35000001 cycles: 21081413 heartbeat IPC: 1.68625 cumulative IPC: 1.66023 (Simulation time: 0 hr 22 min 51 sec) 
Heartbeat CPU 0 instructions: 36000000 cycles: 21674522 heartbeat IPC: 1.68603 cumulative IPC: 1.66094 (Simulation time: 0 hr 23 min 28 sec) 
Heartbeat CPU 0 instructions: 37000003 cycles: 22428235 heartbeat IPC: 1.32677 cumulative IPC: 1.64971 (Simulation time: 0 hr 24 min 16 sec) 
Heartbeat CPU 0 instructions: 38000001 cycles: 23021321 heartbeat IPC: 1.68609 cumulative IPC: 1.65064 (Simulation time: 0 hr 24 min 52 sec) 
Heartbeat CPU 0 instructions: 39000003 cycles: 23614300 heartbeat IPC: 1.6864 cumulative IPC: 1.65154 (Simulation time: 0 hr 25 min 30 sec) 
Heartbeat CPU 0 instructions: 40000000 cycles: 24207103 heartbeat IPC: 1.6869 cumulative IPC: 1.65241 (Simulation time: 0 hr 26 min 8 sec) 
Heartbeat CPU 0 instructions: 41000001 cycles: 24800326 heartbeat IPC: 1.68571 cumulative IPC: 1.6532 (Simulation time: 0 hr 26 min 45 sec) 
Heartbeat CPU 0 instructions: 42000002 cycles: 25393401 heartbeat IPC: 1.68613 cumulative IPC: 1.65397 (Simulation time: 0 hr 27 min 22 sec) 
Heartbeat CPU 0 instructions: 43000000 cycles: 25986460 heartbeat IPC: 1.68617 cumulative IPC: 1.65471 (Simulation time: 0 hr 28 min 2 sec) 
Heartbeat CPU 0 instructions: 44000000 cycles: 26579313 heartbeat IPC: 1.68676 cumulative IPC: 1.65542 (Simulation time: 0 hr 28 min 38 sec) 
Heartbeat CPU 0 instructions: 45000003 cycles: 27172287 heartbeat IPC: 1.68642 cumulative IPC: 1.6561 (Simulation time: 0 hr 29 min 16 sec) 
Heartbeat CPU 0 instructions: 46000003 cycles: 27765541 heartbeat IPC: 1.68562 cumulative IPC: 1.65673 (Simulation time: 0 hr 29 min 59 sec) 
Heartbeat CPU 0 instructions: 47000001 cycles: 28358151 heartbeat IPC: 1.68745 cumulative IPC: 1.65737 (Simulation time: 0 hr 30 min 39 sec) 
Heartbeat CPU 0 instructions: 48000000 cycles: 28951114 heartbeat IPC: 1.68644 cumulative IPC: 1.65797 (Simulation time: 0 hr 31 min 14 sec) 
Heartbeat CPU 0 instructions: 49000000 cycles: 29544111 heartbeat IPC: 1.68635 cumulative IPC: 1.65854 (Simulation time: 0 hr 31 min 53 sec) 
Heartbeat CPU 0 instructions: 50000000 cycles: 30298382 heartbeat IPC: 1.32578 cumulative IPC: 1.65025 (Simulation time: 0 hr 32 min 46 sec) 

Warmup complete CPU 0 instructions: 50000004 cycles: 30298383 (Simulation time: 0 hr 32 min 46 sec) 

Heartbeat CPU 0 instructions: 51000000 cycles: 32026578 heartbeat IPC: 0.578638 cumulative IPC: 0.578636 (Simulation time: 0 hr 33 min 29 sec) 
Heartbeat CPU 0 instructions: 52000000 cycles: 33764180 heartbeat IPC: 0.575506 cumulative IPC: 0.577067 (Simulation time: 0 hr 34 min 14 sec) 
Heartbeat CPU 0 instructions: 53000003 cycles: 35501533 heartbeat IPC: 0.57559 cumulative IPC: 0.576574 (Simulation time: 0 hr 34 min 58 sec) 
Heartbeat CPU 0 instructions: 54000000 cycles: 37188070 heartbeat IPC: 0.592929 cumulative IPC: 0.580577 (Simulation time: 0 hr 35 min 42 sec) 
Heartbeat CPU 0 instructions: 55000001 cycles: 38863303 heartbeat IPC: 0.596932 cumulative IPC: 0.583776 (Simulation time: 0 hr 36 min 27 sec) 
Heartbeat CPU 0 instructions: 56000000 cycles: 40614497 heartbeat IPC: 0.571038 cumulative IPC: 0.581614 (Simulation time: 0 hr 37 min 9 sec) 
Heartbeat CPU 0 instructions: 57000000 cycles: 42363445 heartbeat IPC: 0.571772 cumulative IPC: 0.580187 (Simulation time: 0 hr 37 min 51 sec) 
Heartbeat CPU 0 instructions: 58000001 cycles: 44097215 heartbeat IPC: 0.576778 cumulative IPC: 0.579759 (Simulation time: 0 hr 38 min 30 sec) 
Heartbeat CPU 0 instructions: 59000000 cycles: 45755601 heartbeat IPC: 0.602995 cumulative IPC: 0.582252 (Simulation time: 0 hr 39 min 10 sec) 
Heartbeat CPU 0 instructions: 60000000 cycles: 47463245 heartbeat IPC: 0.585602 cumulative IPC: 0.582585 (Simulation time: 0 hr 39 min 50 sec) 
Heartbeat CPU 0 instructions: 61000002 cycles: 49204670 heartbeat IPC: 0.574243 cumulative IPC: 0.581817 (Simulation time: 0 hr 40 min 31 sec) 
Heartbeat CPU 0 instructions: 62000002 cycles: 50946144 heartbeat IPC: 0.574226 cumulative IPC: 0.581177 (Simulation time: 0 hr 41 min 10 sec) 
Heartbeat CPU 0 instructions: 63000002 cycles: 58297867 heartbeat IPC: 0.136023 cumulative IPC: 0.464294 (Simulation time: 0 hr 41 min 57 sec) 
Heartbeat CPU 0 instructions: 64000000 cycles: 60246045 heartbeat IPC: 0.513299 cumulative IPC: 0.467482 (Simulation time: 0 hr 42 min 39 sec) 
Heartbeat CPU 0 instructions: 65000003 cycles: 61982323 heartbeat IPC: 0.575946 cumulative IPC: 0.473426 (Simulation time: 0 hr 43 min 21 sec) 
Heartbeat CPU 0 instructions: 66000001 cycles: 63721723 heartbeat IPC: 0.57491 cumulative IPC: 0.478707 (Simulation time: 0 hr 44 min 5 sec) 
Heartbeat CPU 0 instructions: 67000000 cycles: 65457105 heartbeat IPC: 0.576241 cumulative IPC: 0.483521 (Simulation time: 0 hr 44 min 44 sec) 
Heartbeat CPU 0 instructions: 68000000 cycles: 67119370 heartbeat IPC: 0.601589 cumulative IPC: 0.488852 (Simulation time: 0 hr 45 min 24 sec) 
Heartbeat CPU 0 instructions: 69000000 cycles: 68820289 heartbeat IPC: 0.587917 cumulative IPC: 0.493226 (Simulation time: 0 hr 46 min 2 sec) 
Heartbeat CPU 0 instructions: 70000001 cycles: 70560564 heartbeat IPC: 0.574622 cumulative IPC: 0.496744 (Simulation time: 0 hr 46 min 47 sec) 
Heartbeat CPU 0 instructions: 71000001 cycles: 72302306 heartbeat IPC: 0.574138 cumulative IPC: 0.499953 (Simulation time: 0 hr 47 min 30 sec) 
Heartbeat CPU 0 instructions: 72000000 cycles: 74023177 heartbeat IPC: 0.581101 cumulative IPC: 0.503147 (Simulation time: 0 hr 48 min 15 sec) 
Heartbeat CPU 0 instructions: 73000003 cycles: 75672413 heartbeat IPC: 0.606343 cumulative IPC: 0.506898 (Simulation time: 0 hr 48 min 56 sec) 
Heartbeat CPU 0 instructions: 74000002 cycles: 77404135 heartbeat IPC: 0.577459 cumulative IPC: 0.509492 (Simulation time: 0 hr 49 min 37 sec) 
Heartbeat CPU 0 instructions: 75000002 cycles: 79144985 heartbeat IPC: 0.574432 cumulative IPC: 0.511806 (Simulation time: 0 hr 50 min 19 sec) 
Heartbeat CPU 0 instructions: 76000000 cycles: 85309289 heartbeat IPC: 0.162224 cumulative IPC: 0.472633 (Simulation time: 0 hr 51 min 4 sec) 
Heartbeat CPU 0 instructions: 77000000 cycles: 88484356 heartbeat IPC: 0.314954 cumulative IPC: 0.464029 (Simulation time: 0 hr 51 min 49 sec) 
Heartbeat CPU 0 instructions: 78000002 cycles: 90178996 heartbeat IPC: 0.590097 cumulative IPC: 0.467597 (Simulation time: 0 hr 52 min 29 sec) 
Heartbeat CPU 0 instructions: 79000002 cycles: 91919014 heartbeat IPC: 0.574707 cumulative IPC: 0.470622 (Simulation time: 0 hr 53 min 14 sec) 
Heartbeat CPU 0 instructions: 80000000 cycles: 93655702 heartbeat IPC: 0.575808 cumulative IPC: 0.473505 (Simulation time: 0 hr 53 min 57 sec) 
Heartbeat CPU 0 instructions: 81000000 cycles: 95380849 heartbeat IPC: 0.579661 cumulative IPC: 0.476319 (Simulation time: 0 hr 54 min 40 sec) 
Heartbeat CPU 0 instructions: 82000003 cycles: 97025498 heartbeat IPC: 0.608034 cumulative IPC: 0.479565 (Simulation time: 0 hr 55 min 20 sec) 
Heartbeat CPU 0 instructions: 83000003 cycles: 98754267 heartbeat IPC: 0.578446 cumulative IPC: 0.482062 (Simulation time: 0 hr 56 min 0 sec) 
Heartbeat CPU 0 instructions: 84000000 cycles: 100491727 heartbeat IPC: 0.575551 cumulative IPC: 0.484376 (Simulation time: 0 hr 56 min 40 sec) 
Heartbeat CPU 0 instructions: 85000003 cycles: 102229719 heartbeat IPC: 0.575378 cumulative IPC: 0.486575 (Simulation time: 0 hr 57 min 24 sec) 
Heartbeat CPU 0 instructions: 86000000 cycles: 103923690 heartbeat IPC: 0.590327 cumulative IPC: 0.488962 (Simulation time: 0 hr 58 min 4 sec) 
Heartbeat CPU 0 instructions: 87000000 cycles: 105596013 heartbeat IPC: 0.597971 cumulative IPC: 0.491383 (Simulation time: 0 hr 58 min 44 sec) 
Heartbeat CPU 0 instructions: 88000000 cycles: 107362494 heartbeat IPC: 0.566097 cumulative IPC: 0.493096 (Simulation time: 0 hr 59 min 23 sec) 
Heartbeat CPU 0 instructions: 89000002 cycles: 112457770 heartbeat IPC: 0.196261 cumulative IPC: 0.474687 (Simulation time: 1 hr 0 min 8 sec) 
Heartbeat CPU 0 instructions: 90000002 cycles: 116707896 heartbeat IPC: 0.235287 cumulative IPC: 0.462912 (Simulation time: 1 hr 0 min 51 sec) 
Heartbeat CPU 0 instructions: 91000003 cycles: 118354355 heartbeat IPC: 0.607365 cumulative IPC: 0.465613 (Simulation time: 1 hr 1 min 35 sec) 
Heartbeat CPU 0 instructions: 92000000 cycles: 120080668 heartbeat IPC: 0.579268 cumulative IPC: 0.467798 (Simulation time: 1 hr 2 min 19 sec) 
Heartbeat CPU 0 instructions: 93000000 cycles: 121818859 heartbeat IPC: 0.575311 cumulative IPC: 0.46984 (Simulation time: 1 hr 3 min 0 sec) 
Heartbeat CPU 0 instructions: 94000003 cycles: 123558768 heartbeat IPC: 0.574744 cumulative IPC: 0.471797 (Simulation time: 1 hr 3 min 37 sec) 
Heartbeat CPU 0 instructions: 95000000 cycles: 125257783 heartbeat IPC: 0.588575 cumulative IPC: 0.473887 (Simulation time: 1 hr 4 min 23 sec) 
Heartbeat CPU 0 instructions: 96000000 cycles: 126927316 heartbeat IPC: 0.59897 cumulative IPC: 0.476048 (Simulation time: 1 hr 5 min 2 sec) 
Heartbeat CPU 0 instructions: 97000001 cycles: 128662598 heartbeat IPC: 0.576276 cumulative IPC: 0.477816 (Simulation time: 1 hr 5 min 41 sec) 
Heartbeat CPU 0 instructions: 98000000 cycles: 130401832 heartbeat IPC: 0.574965 cumulative IPC: 0.479504 (Simulation time: 1 hr 6 min 22 sec) 
Heartbeat CPU 0 instructions: 99000001 cycles: 132140022 heartbeat IPC: 0.575312 cumulative IPC: 0.481139 (Simulation time: 1 hr 7 min 1 sec) 
Heartbeat CPU 0 instructions: 100000000 cycles: 133807815 heartbeat IPC: 0.599594 cumulative IPC: 0.483048 (Simulation time: 1 hr 7 min 38 sec) 
Heartbeat CPU 0 instructions: 101000000 cycles: 135509339 heartbeat IPC: 0.587708 cumulative IPC: 0.48474 (Simulation time: 1 hr 8 min 20 sec) 
Heartbeat CPU 0 instructions: 102000002 cycles: 139523167 heartbeat IPC: 0.249139 cumulative IPC: 0.476082 (Simulation time: 1 hr 8 min 59 sec) 
Heartbeat CPU 0 instructions: 103000000 cycles: 144855938 heartbeat IPC: 0.187519 cumulative IPC: 0.462649 (Simulation time: 1 hr 9 min 38 sec) 
Heartbeat CPU 0 instructions: 104000000 cycles: 146558771 heartbeat IPC: 0.587257 cumulative IPC: 0.464475 (Simulation time: 1 hr 10 min 17 sec) 
Heartbeat CPU 0 instructions: 105000000 cycles: 148221257 heartbeat IPC: 0.601509 cumulative IPC: 0.466406 (Simulation time: 1 hr 10 min 54 sec) 
Heartbeat CPU 0 instructions: 106000002 cycles: 149952788 heartbeat IPC: 0.577525 cumulative IPC: 0.468015 (Simulation time: 1 hr 11 min 28 sec) 
Heartbeat CPU 0 instructions: 107000001 cycles: 151691607 heartbeat IPC: 0.575102 cumulative IPC: 0.469548 (Simulation time: 1 hr 12 min 4 sec) 
Heartbeat CPU 0 instructions: 108000000 cycles: 153426465 heartbeat IPC: 0.576415 cumulative IPC: 0.471054 (Simulation time: 1 hr 12 min 38 sec) 
Heartbeat CPU 0 instructions: 109000001 cycles: 155098602 heartbeat IPC: 0.598038 cumulative IPC: 0.472756 (Simulation time: 1 hr 13 min 14 sec) 
Heartbeat CPU 0 instructions: 110000003 cycles: 156791457 heartbeat IPC: 0.590719 cumulative IPC: 0.474334 (Simulation time: 1 hr 13 min 51 sec) 
Heartbeat CPU 0 instructions: 111000002 cycles: 158529862 heartbeat IPC: 0.575239 cumulative IPC: 0.475702 (Simulation time: 1 hr 14 min 24 sec) 
Heartbeat CPU 0 instructions: 112000000 cycles: 160269645 heartbeat IPC: 0.574783 cumulative IPC: 0.477028 (Simulation time: 1 hr 14 min 54 sec) 
Heartbeat CPU 0 instructions: 113000002 cycles: 161996279 heartbeat IPC: 0.579163 cumulative IPC: 0.478368 (Simulation time: 1 hr 15 min 23 sec) 
Heartbeat CPU 0 instructions: 114000000 cycles: 163642018 heartbeat IPC: 0.607629 cumulative IPC: 0.479963 (Simulation time: 1 hr 15 min 49 sec) 
Heartbeat CPU 0 instructions: 115000002 cycles: 166447087 heartbeat IPC: 0.356498 cumulative IPC: 0.477419 (Simulation time: 1 hr 16 min 18 sec) 
Heartbeat CPU 0 instructions: 116000000 cycles: 172964297 heartbeat IPC: 0.15344 cumulative IPC: 0.462619 (Simulation time: 1 hr 16 min 48 sec) 
Heartbeat CPU 0 instructions: 117000000 cycles: 174713407 heartbeat IPC: 0.571719 cumulative IPC: 0.463941 (Simulation time: 1 hr 17 min 14 sec) 
Heartbeat CPU 0 instructions: 118000002 cycles: 176392498 heartbeat IPC: 0.595562 cumulative IPC: 0.465453 (Simulation time: 1 hr 17 min 39 sec) 
Heartbeat CPU 0 instructions: 119000003 cycles: 178081948 heartbeat IPC: 0.591909 cumulative IPC: 0.466899 (Simulation time: 1 hr 18 min 4 sec) 
Heartbeat CPU 0 instructions: 120000000 cycles: 179822046 heartbeat IPC: 0.574679 cumulative IPC: 0.468153 (Simulation time: 1 hr 18 min 27 sec) 
Heartbeat CPU 0 instructions: 121000001 cycles: 181564870 heartbeat IPC: 0.573782 cumulative IPC: 0.46937 (Simulation time: 1 hr 18 min 49 sec) 
Heartbeat CPU 0 instructions: 122000003 cycles: 183294833 heartbeat IPC: 0.578048 cumulative IPC: 0.470599 (Simulation time: 1 hr 19 min 10 sec) 
Heartbeat CPU 0 instructions: 123000000 cycles: 184946810 heartbeat IPC: 0.605334 cumulative IPC: 0.472038 (Simulation time: 1 hr 19 min 33 sec) 
Heartbeat CPU 0 instructions: 124000000 cycles: 186671505 heartbeat IPC: 0.579813 cumulative IPC: 0.473227 (Simulation time: 1 hr 19 min 54 sec) 
Heartbeat CPU 0 instructions: 125000002 cycles: 188412377 heartbeat IPC: 0.574426 cumulative IPC: 0.474341 (Simulation time: 1 hr 20 min 17 sec) 
Heartbeat CPU 0 instructions: 126000000 cycles: 190153210 heartbeat IPC: 0.574436 cumulative IPC: 0.475431 (Simulation time: 1 hr 20 min 37 sec) 
Heartbeat CPU 0 instructions: 127000001 cycles: 191859219 heartbeat IPC: 0.586164 cumulative IPC: 0.476601 (Simulation time: 1 hr 20 min 57 sec) 
Heartbeat CPU 0 instructions: 128000000 cycles: 193529580 heartbeat IPC: 0.598672 cumulative IPC: 0.47785 (Simulation time: 1 hr 21 min 18 sec) 
Heartbeat CPU 0 instructions: 129000002 cycles: 201152866 heartbeat IPC: 0.131177 cumulative IPC: 0.462382 (Simulation time: 1 hr 21 min 42 sec) 
Heartbeat CPU 0 instructions: 130000001 cycles: 202892952 heartbeat IPC: 0.574684 cumulative IPC: 0.463514 (Simulation time: 1 hr 22 min 3 sec) 
Heartbeat CPU 0 instructions: 131000002 cycles: 204625069 heartbeat IPC: 0.577329 cumulative IPC: 0.464645 (Simulation time: 1 hr 22 min 23 sec) 
Heartbeat CPU 0 instructions: 132000000 cycles: 206280713 heartbeat IPC: 0.603993 cumulative IPC: 0.465956 (Simulation time: 1 hr 22 min 42 sec) 
Heartbeat CPU 0 instructions: 133000000 cycles: 207999632 heartbeat IPC: 0.581761 cumulative IPC: 0.467076 (Simulation time: 1 hr 23 min 2 sec) 
Heartbeat CPU 0 instructions: 134000000 cycles: 209739313 heartbeat IPC: 0.574818 cumulative IPC: 0.468121 (Simulation time: 1 hr 23 min 20 sec) 
Heartbeat CPU 0 instructions: 135000003 cycles: 211480309 heartbeat IPC: 0.574386 cumulative IPC: 0.469142 (Simulation time: 1 hr 23 min 39 sec) 
Heartbeat CPU 0 instructions: 136000000 cycles: 213187063 heartbeat IPC: 0.585906 cumulative IPC: 0.470231 (Simulation time: 1 hr 23 min 55 sec) 
Heartbeat CPU 0 instructions: 137000001 cycles: 214851833 heartbeat IPC: 0.600684 cumulative IPC: 0.471408 (Simulation time: 1 hr 24 min 11 sec) 
Heartbeat CPU 0 instructions: 138000003 cycles: 216587754 heartbeat IPC: 0.576064 cumulative IPC: 0.472383 (Simulation time: 1 hr 24 min 26 sec) 
Heartbeat CPU 0 instructions: 139000000 cycles: 218330168 heartbeat IPC: 0.573915 cumulative IPC: 0.473324 (Simulation time: 1 hr 24 min 41 sec) 
Heartbeat CPU 0 instructions: 140000000 cycles: 220069222 heartbeat IPC: 0.575025 cumulative IPC: 0.474256 (Simulation time: 1 hr 24 min 57 sec) 
Heartbeat CPU 0 instructions: 141000002 cycles: 221746274 heartbeat IPC: 0.596286 cumulative IPC: 0.475325 (Simulation time: 1 hr 25 min 12 sec) 
Heartbeat CPU 0 instructions: 142000000 cycles: 228879246 heartbeat IPC: 0.140194 cumulative IPC: 0.463287 (Simulation time: 1 hr 25 min 27 sec) 
Heartbeat CPU 0 instructions: 143000000 cycles: 230619232 heartbeat IPC: 0.574717 cumulative IPC: 0.464255 (Simulation time: 1 hr 25 min 39 sec) 
Heartbeat CPU 0 instructions: 144000000 cycles: 232361516 heartbeat IPC: 0.573959 cumulative IPC: 0.465201 (Simulation time: 1 hr 25 min 52 sec) 
Heartbeat CPU 0 instructions: 145000002 cycles: 234073690 heartbeat IPC: 0.584054 cumulative IPC: 0.4662 (Simulation time: 1 hr 26 min 4 sec) 
Heartbeat CPU 0 instructions: 146000003 cycles: 235735411 heartbeat IPC: 0.601786 cumulative IPC: 0.467296 (Simulation time: 1 hr 26 min 17 sec) 
Heartbeat CPU 0 instructions: 147000001 cycles: 237469900 heartbeat IPC: 0.576538 cumulative IPC: 0.468211 (Simulation time: 1 hr 26 min 30 sec) 
Heartbeat CPU 0 instructions: 148000000 cycles: 239251199 heartbeat IPC: 0.561387 cumulative IPC: 0.469005 (Simulation time: 1 hr 26 min 42 sec) 
Heartbeat CPU 0 instructions: 149000001 cycles: 240992527 heartbeat IPC: 0.574275 cumulative IPC: 0.469875 (Simulation time: 1 hr 26 min 52 sec) 
Heartbeat CPU 0 instructions: 150000000 cycles: 242671278 heartbeat IPC: 0.59568 cumulative IPC: 0.47087 (Simulation time: 1 hr 27 min 2 sec) 
Finished CPU 0 instructions: 100000000 cycles: 212372900 cummulative IPC: 0.47087 (Simulation time: 1 hr 27 min 2 sec) 

ChampSim completed all CPUs

Region of Interest Statistics

CPU 0 cummulative IPC: 0.47087 instructions: 100000000 cycles: 212372900
LLC TOTAL     ACCESS:    1107920  HIT:     291324  MISS:     816596
LLC LOAD      ACCESS:      19256  HIT:       2885  MISS:      16371
LLC RFO       ACCESS:     245174  HIT:      87745  MISS:     157429
LLC PREFETCH  ACCESS:     596926  HIT:      94772  MISS:     502154
LLC WRITEBACK ACCESS:     246564  HIT:     105922  MISS:     140642
OPTgen accesses: 6498
OPTgen hits: 2372
OPTgen hit rate: 36.5035


