
*** ChampSim Multicore Out-of-Order Simulator ***

Warmup Instructions: 50000000
Simulation Instructions: 100000000
Configuration: 2
Number of CPUs: 1
LLC sets: 2048
LLC ways: 16
Off-chip DRAM Channels: 1 Width: 64-bit Data Rate: 1600 MT/s

CPU 0 runs /datasets/cs240c-wi22-a00-public/data/Assignment2-gz/bzip2_259B.trace.gz
CPU 0 L1D next line prefetcher
CPU 0 L2C IP-based stride prefetcher
Initialize Hawkeye state
Heartbeat CPU 0 instructions: 1000002 cycles: 428875 heartbeat IPC: 2.33169 cumulative IPC: 2.33169 (Simulation time: 0 hr 0 min 39 sec) 
Heartbeat CPU 0 instructions: 2000003 cycles: 861057 heartbeat IPC: 2.31384 cumulative IPC: 2.32273 (Simulation time: 0 hr 1 min 22 sec) 
Heartbeat CPU 0 instructions: 3000001 cycles: 1286790 heartbeat IPC: 2.34889 cumulative IPC: 2.33138 (Simulation time: 0 hr 1 min 57 sec) 
Heartbeat CPU 0 instructions: 4000000 cycles: 1685062 heartbeat IPC: 2.51084 cumulative IPC: 2.3738 (Simulation time: 0 hr 2 min 34 sec) 
Heartbeat CPU 0 instructions: 5000001 cycles: 2103495 heartbeat IPC: 2.38987 cumulative IPC: 2.377 (Simulation time: 0 hr 3 min 13 sec) 
Heartbeat CPU 0 instructions: 6000001 cycles: 2532858 heartbeat IPC: 2.32903 cumulative IPC: 2.36887 (Simulation time: 0 hr 3 min 47 sec) 
Heartbeat CPU 0 instructions: 7000003 cycles: 2961906 heartbeat IPC: 2.33075 cumulative IPC: 2.36334 (Simulation time: 0 hr 4 min 20 sec) 
Heartbeat CPU 0 instructions: 8000000 cycles: 3391719 heartbeat IPC: 2.32659 cumulative IPC: 2.35869 (Simulation time: 0 hr 4 min 53 sec) 
Heartbeat CPU 0 instructions: 9000000 cycles: 3819845 heartbeat IPC: 2.33576 cumulative IPC: 2.35612 (Simulation time: 0 hr 5 min 24 sec) 
Heartbeat CPU 0 instructions: 10000002 cycles: 4193917 heartbeat IPC: 2.67329 cumulative IPC: 2.38441 (Simulation time: 0 hr 5 min 53 sec) 
Heartbeat CPU 0 instructions: 11000003 cycles: 4560316 heartbeat IPC: 2.72927 cumulative IPC: 2.41211 (Simulation time: 0 hr 6 min 16 sec) 
Heartbeat CPU 0 instructions: 12000000 cycles: 5001191 heartbeat IPC: 2.26821 cumulative IPC: 2.39943 (Simulation time: 0 hr 6 min 43 sec) 
Heartbeat CPU 0 instructions: 13000003 cycles: 5458025 heartbeat IPC: 2.18899 cumulative IPC: 2.38181 (Simulation time: 0 hr 7 min 14 sec) 
Heartbeat CPU 0 instructions: 14000002 cycles: 5909699 heartbeat IPC: 2.21398 cumulative IPC: 2.36899 (Simulation time: 0 hr 7 min 45 sec) 
Heartbeat CPU 0 instructions: 15000003 cycles: 6349535 heartbeat IPC: 2.27358 cumulative IPC: 2.36238 (Simulation time: 0 hr 8 min 16 sec) 
Heartbeat CPU 0 instructions: 16000000 cycles: 6790847 heartbeat IPC: 2.26596 cumulative IPC: 2.35611 (Simulation time: 0 hr 8 min 48 sec) 
Heartbeat CPU 0 instructions: 17000003 cycles: 7220656 heartbeat IPC: 2.32662 cumulative IPC: 2.35436 (Simulation time: 0 hr 9 min 20 sec) 
Heartbeat CPU 0 instructions: 18000000 cycles: 7665091 heartbeat IPC: 2.25004 cumulative IPC: 2.34831 (Simulation time: 0 hr 9 min 48 sec) 
Heartbeat CPU 0 instructions: 19000002 cycles: 8147886 heartbeat IPC: 2.07128 cumulative IPC: 2.33189 (Simulation time: 0 hr 10 min 11 sec) 
Heartbeat CPU 0 instructions: 20000000 cycles: 8643239 heartbeat IPC: 2.01876 cumulative IPC: 2.31395 (Simulation time: 0 hr 10 min 32 sec) 
Heartbeat CPU 0 instructions: 21000001 cycles: 9135536 heartbeat IPC: 2.0313 cumulative IPC: 2.29872 (Simulation time: 0 hr 10 min 53 sec) 
Heartbeat CPU 0 instructions: 22000002 cycles: 9619242 heartbeat IPC: 2.06737 cumulative IPC: 2.28708 (Simulation time: 0 hr 11 min 16 sec) 
Heartbeat CPU 0 instructions: 23000003 cycles: 10104880 heartbeat IPC: 2.05915 cumulative IPC: 2.27613 (Simulation time: 0 hr 11 min 36 sec) 
Heartbeat CPU 0 instructions: 24000000 cycles: 10588647 heartbeat IPC: 2.0671 cumulative IPC: 2.26658 (Simulation time: 0 hr 11 min 59 sec) 
Heartbeat CPU 0 instructions: 25000000 cycles: 11073913 heartbeat IPC: 2.06073 cumulative IPC: 2.25756 (Simulation time: 0 hr 12 min 23 sec) 
Heartbeat CPU 0 instructions: 26000003 cycles: 11575248 heartbeat IPC: 1.99468 cumulative IPC: 2.24617 (Simulation time: 0 hr 12 min 46 sec) 
Heartbeat CPU 0 instructions: 27000000 cycles: 12067734 heartbeat IPC: 2.03051 cumulative IPC: 2.23737 (Simulation time: 0 hr 13 min 11 sec) 
Heartbeat CPU 0 instructions: 28000000 cycles: 12556510 heartbeat IPC: 2.04593 cumulative IPC: 2.22992 (Simulation time: 0 hr 13 min 35 sec) 
Heartbeat CPU 0 instructions: 29000000 cycles: 13046259 heartbeat IPC: 2.04186 cumulative IPC: 2.22286 (Simulation time: 0 hr 13 min 58 sec) 
Heartbeat CPU 0 instructions: 30000000 cycles: 13547976 heartbeat IPC: 1.99316 cumulative IPC: 2.21435 (Simulation time: 0 hr 14 min 21 sec) 
Heartbeat CPU 0 instructions: 31000000 cycles: 14111762 heartbeat IPC: 1.77372 cumulative IPC: 2.19675 (Simulation time: 0 hr 14 min 43 sec) 
Heartbeat CPU 0 instructions: 32000000 cycles: 14704895 heartbeat IPC: 1.68596 cumulative IPC: 2.17615 (Simulation time: 0 hr 15 min 5 sec) 
Heartbeat CPU 0 instructions: 33000003 cycles: 15227553 heartbeat IPC: 1.9133 cumulative IPC: 2.16712 (Simulation time: 0 hr 15 min 25 sec) 
Heartbeat CPU 0 instructions: 34000002 cycles: 15629027 heartbeat IPC: 2.49082 cumulative IPC: 2.17544 (Simulation time: 0 hr 15 min 44 sec) 
Heartbeat CPU 0 instructions: 35000003 cycles: 16028400 heartbeat IPC: 2.50393 cumulative IPC: 2.18362 (Simulation time: 0 hr 16 min 10 sec) 
Heartbeat CPU 0 instructions: 36000000 cycles: 16469401 heartbeat IPC: 2.26756 cumulative IPC: 2.18587 (Simulation time: 0 hr 16 min 37 sec) 
Heartbeat CPU 0 instructions: 37000000 cycles: 16860803 heartbeat IPC: 2.55492 cumulative IPC: 2.19444 (Simulation time: 0 hr 17 min 8 sec) 
Heartbeat CPU 0 instructions: 38000000 cycles: 17283217 heartbeat IPC: 2.36735 cumulative IPC: 2.19866 (Simulation time: 0 hr 17 min 40 sec) 
Heartbeat CPU 0 instructions: 39000000 cycles: 17714575 heartbeat IPC: 2.31826 cumulative IPC: 2.20158 (Simulation time: 0 hr 18 min 12 sec) 
Heartbeat CPU 0 instructions: 40000000 cycles: 18136290 heartbeat IPC: 2.37127 cumulative IPC: 2.20552 (Simulation time: 0 hr 18 min 43 sec) 
Heartbeat CPU 0 instructions: 41000001 cycles: 18560819 heartbeat IPC: 2.35555 cumulative IPC: 2.20895 (Simulation time: 0 hr 19 min 14 sec) 
Heartbeat CPU 0 instructions: 42000000 cycles: 18998519 heartbeat IPC: 2.28467 cumulative IPC: 2.2107 (Simulation time: 0 hr 19 min 46 sec) 
Heartbeat CPU 0 instructions: 43000003 cycles: 19431469 heartbeat IPC: 2.30974 cumulative IPC: 2.21291 (Simulation time: 0 hr 20 min 17 sec) 
Heartbeat CPU 0 instructions: 44000000 cycles: 19863446 heartbeat IPC: 2.31493 cumulative IPC: 2.21512 (Simulation time: 0 hr 20 min 46 sec) 
Heartbeat CPU 0 instructions: 45000002 cycles: 20294439 heartbeat IPC: 2.32023 cumulative IPC: 2.21736 (Simulation time: 0 hr 21 min 18 sec) 
Heartbeat CPU 0 instructions: 46000001 cycles: 20725852 heartbeat IPC: 2.31796 cumulative IPC: 2.21945 (Simulation time: 0 hr 21 min 50 sec) 
Heartbeat CPU 0 instructions: 47000003 cycles: 21157211 heartbeat IPC: 2.31826 cumulative IPC: 2.22146 (Simulation time: 0 hr 22 min 25 sec) 
Heartbeat CPU 0 instructions: 48000000 cycles: 21590707 heartbeat IPC: 2.30682 cumulative IPC: 2.22318 (Simulation time: 0 hr 22 min 58 sec) 
Heartbeat CPU 0 instructions: 49000003 cycles: 22028811 heartbeat IPC: 2.28257 cumulative IPC: 2.22436 (Simulation time: 0 hr 23 min 36 sec) 
Heartbeat CPU 0 instructions: 50000003 cycles: 22446610 heartbeat IPC: 2.3935 cumulative IPC: 2.22751 (Simulation time: 0 hr 24 min 8 sec) 

Warmup complete CPU 0 instructions: 50000003 cycles: 22446610 (Simulation time: 0 hr 24 min 8 sec) 

Heartbeat CPU 0 instructions: 51000002 cycles: 23610741 heartbeat IPC: 0.859009 cumulative IPC: 0.859009 (Simulation time: 0 hr 24 min 39 sec) 
Heartbeat CPU 0 instructions: 52000000 cycles: 24728902 heartbeat IPC: 0.894324 cumulative IPC: 0.876311 (Simulation time: 0 hr 25 min 8 sec) 
Heartbeat CPU 0 instructions: 53000001 cycles: 25925167 heartbeat IPC: 0.835936 cumulative IPC: 0.862426 (Simulation time: 0 hr 25 min 40 sec) 
Heartbeat CPU 0 instructions: 54000000 cycles: 27150955 heartbeat IPC: 0.815801 cumulative IPC: 0.850277 (Simulation time: 0 hr 26 min 10 sec) 
Heartbeat CPU 0 instructions: 55000000 cycles: 28302558 heartbeat IPC: 0.868355 cumulative IPC: 0.853832 (Simulation time: 0 hr 26 min 38 sec) 
Heartbeat CPU 0 instructions: 56000000 cycles: 29527424 heartbeat IPC: 0.816416 cumulative IPC: 0.84736 (Simulation time: 0 hr 27 min 6 sec) 
Heartbeat CPU 0 instructions: 57000000 cycles: 30748473 heartbeat IPC: 0.818968 cumulative IPC: 0.843184 (Simulation time: 0 hr 27 min 38 sec) 
Heartbeat CPU 0 instructions: 58000002 cycles: 31781778 heartbeat IPC: 0.96777 cumulative IPC: 0.856974 (Simulation time: 0 hr 28 min 4 sec) 
Heartbeat CPU 0 instructions: 59000000 cycles: 32882681 heartbeat IPC: 0.908343 cumulative IPC: 0.862393 (Simulation time: 0 hr 28 min 33 sec) 
Heartbeat CPU 0 instructions: 60000000 cycles: 34062129 heartbeat IPC: 0.847854 cumulative IPC: 0.860917 (Simulation time: 0 hr 29 min 3 sec) 
Heartbeat CPU 0 instructions: 61000000 cycles: 35206267 heartbeat IPC: 0.87402 cumulative IPC: 0.862092 (Simulation time: 0 hr 29 min 34 sec) 
Heartbeat CPU 0 instructions: 62000002 cycles: 36050092 heartbeat IPC: 1.18508 cumulative IPC: 0.882127 (Simulation time: 0 hr 30 min 10 sec) 
Heartbeat CPU 0 instructions: 63000003 cycles: 36954805 heartbeat IPC: 1.10532 cumulative IPC: 0.896045 (Simulation time: 0 hr 30 min 46 sec) 
Heartbeat CPU 0 instructions: 64000000 cycles: 38037923 heartbeat IPC: 0.923258 cumulative IPC: 0.897936 (Simulation time: 0 hr 31 min 26 sec) 
Heartbeat CPU 0 instructions: 65000003 cycles: 39058733 heartbeat IPC: 0.979617 cumulative IPC: 0.902955 (Simulation time: 0 hr 32 min 3 sec) 
Heartbeat CPU 0 instructions: 66000003 cycles: 40028512 heartbeat IPC: 1.03116 cumulative IPC: 0.910027 (Simulation time: 0 hr 32 min 41 sec) 
Heartbeat CPU 0 instructions: 67000003 cycles: 41101182 heartbeat IPC: 0.932253 cumulative IPC: 0.911305 (Simulation time: 0 hr 33 min 22 sec) 
Heartbeat CPU 0 instructions: 68000000 cycles: 42218319 heartbeat IPC: 0.895143 cumulative IPC: 0.910392 (Simulation time: 0 hr 34 min 6 sec) 
Heartbeat CPU 0 instructions: 69000003 cycles: 43369897 heartbeat IPC: 0.868376 cumulative IPC: 0.908079 (Simulation time: 0 hr 34 min 49 sec) 
Heartbeat CPU 0 instructions: 70000003 cycles: 44654106 heartbeat IPC: 0.778689 cumulative IPC: 0.900597 (Simulation time: 0 hr 35 min 25 sec) 
Heartbeat CPU 0 instructions: 71000000 cycles: 45988759 heartbeat IPC: 0.749256 cumulative IPC: 0.892017 (Simulation time: 0 hr 35 min 58 sec) 
Heartbeat CPU 0 instructions: 72000000 cycles: 47124669 heartbeat IPC: 0.880351 cumulative IPC: 0.89148 (Simulation time: 0 hr 36 min 32 sec) 
Heartbeat CPU 0 instructions: 73000003 cycles: 48449129 heartbeat IPC: 0.755027 cumulative IPC: 0.88453 (Simulation time: 0 hr 37 min 6 sec) 
Heartbeat CPU 0 instructions: 74000001 cycles: 49641613 heartbeat IPC: 0.838584 cumulative IPC: 0.882515 (Simulation time: 0 hr 37 min 48 sec) 
Heartbeat CPU 0 instructions: 75000000 cycles: 50796904 heartbeat IPC: 0.865582 cumulative IPC: 0.881825 (Simulation time: 0 hr 38 min 21 sec) 
Heartbeat CPU 0 instructions: 76000000 cycles: 51899779 heartbeat IPC: 0.906721 cumulative IPC: 0.882757 (Simulation time: 0 hr 38 min 52 sec) 
Heartbeat CPU 0 instructions: 77000003 cycles: 52878603 heartbeat IPC: 1.02164 cumulative IPC: 0.887224 (Simulation time: 0 hr 39 min 23 sec) 
Heartbeat CPU 0 instructions: 78000000 cycles: 53859583 heartbeat IPC: 1.01939 cumulative IPC: 0.891351 (Simulation time: 0 hr 39 min 54 sec) 
Heartbeat CPU 0 instructions: 79000003 cycles: 54956097 heartbeat IPC: 0.911984 cumulative IPC: 0.892047 (Simulation time: 0 hr 40 min 28 sec) 
Heartbeat CPU 0 instructions: 80000000 cycles: 56283000 heartbeat IPC: 0.753632 cumulative IPC: 0.886619 (Simulation time: 0 hr 41 min 6 sec) 
Heartbeat CPU 0 instructions: 81000001 cycles: 57460061 heartbeat IPC: 0.849575 cumulative IPC: 0.885374 (Simulation time: 0 hr 41 min 40 sec) 
Heartbeat CPU 0 instructions: 82000003 cycles: 58586330 heartbeat IPC: 0.887889 cumulative IPC: 0.885452 (Simulation time: 0 hr 42 min 14 sec) 
Heartbeat CPU 0 instructions: 83000002 cycles: 59668747 heartbeat IPC: 0.923857 cumulative IPC: 0.886569 (Simulation time: 0 hr 42 min 49 sec) 
Heartbeat CPU 0 instructions: 84000000 cycles: 60628243 heartbeat IPC: 1.04221 cumulative IPC: 0.89048 (Simulation time: 0 hr 43 min 21 sec) 
Heartbeat CPU 0 instructions: 85000003 cycles: 61587698 heartbeat IPC: 1.04226 cumulative IPC: 0.894201 (Simulation time: 0 hr 43 min 51 sec) 
Heartbeat CPU 0 instructions: 86000003 cycles: 62640864 heartbeat IPC: 0.949518 cumulative IPC: 0.89565 (Simulation time: 0 hr 44 min 22 sec) 
Heartbeat CPU 0 instructions: 87000002 cycles: 63678687 heartbeat IPC: 0.963555 cumulative IPC: 0.89736 (Simulation time: 0 hr 44 min 52 sec) 
Heartbeat CPU 0 instructions: 88000000 cycles: 64804134 heartbeat IPC: 0.888534 cumulative IPC: 0.897125 (Simulation time: 0 hr 45 min 21 sec) 
Heartbeat CPU 0 instructions: 89000002 cycles: 65810500 heartbeat IPC: 0.993676 cumulative IPC: 0.899366 (Simulation time: 0 hr 45 min 48 sec) 
Heartbeat CPU 0 instructions: 90000001 cycles: 66934858 heartbeat IPC: 0.889396 cumulative IPC: 0.899114 (Simulation time: 0 hr 46 min 15 sec) 
Heartbeat CPU 0 instructions: 91000002 cycles: 68048378 heartbeat IPC: 0.898054 cumulative IPC: 0.899088 (Simulation time: 0 hr 46 min 40 sec) 
Heartbeat CPU 0 instructions: 92000000 cycles: 69086821 heartbeat IPC: 0.962978 cumulative IPC: 0.90051 (Simulation time: 0 hr 47 min 8 sec) 
Heartbeat CPU 0 instructions: 93000000 cycles: 70276157 heartbeat IPC: 0.840805 cumulative IPC: 0.899026 (Simulation time: 0 hr 47 min 38 sec) 
Heartbeat CPU 0 instructions: 94000003 cycles: 71452349 heartbeat IPC: 0.850204 cumulative IPC: 0.897854 (Simulation time: 0 hr 48 min 6 sec) 
Heartbeat CPU 0 instructions: 95000002 cycles: 72638251 heartbeat IPC: 0.843239 cumulative IPC: 0.896564 (Simulation time: 0 hr 48 min 35 sec) 
Heartbeat CPU 0 instructions: 96000000 cycles: 73808333 heartbeat IPC: 0.854639 cumulative IPC: 0.895609 (Simulation time: 0 hr 49 min 0 sec) 
Heartbeat CPU 0 instructions: 97000002 cycles: 75025241 heartbeat IPC: 0.821756 cumulative IPC: 0.893899 (Simulation time: 0 hr 49 min 26 sec) 
Heartbeat CPU 0 instructions: 98000000 cycles: 76258810 heartbeat IPC: 0.810654 cumulative IPC: 0.891991 (Simulation time: 0 hr 49 min 52 sec) 
Heartbeat CPU 0 instructions: 99000000 cycles: 77498814 heartbeat IPC: 0.806449 cumulative IPC: 0.890064 (Simulation time: 0 hr 50 min 19 sec) 
Heartbeat CPU 0 instructions: 100000000 cycles: 78740881 heartbeat IPC: 0.80511 cumulative IPC: 0.88819 (Simulation time: 0 hr 50 min 46 sec) 
Heartbeat CPU 0 instructions: 101000003 cycles: 79888668 heartbeat IPC: 0.871244 cumulative IPC: 0.887851 (Simulation time: 0 hr 51 min 14 sec) 
Heartbeat CPU 0 instructions: 102000000 cycles: 81008659 heartbeat IPC: 0.892862 cumulative IPC: 0.887947 (Simulation time: 0 hr 51 min 45 sec) 
Heartbeat CPU 0 instructions: 103000000 cycles: 82110017 heartbeat IPC: 0.90797 cumulative IPC: 0.888317 (Simulation time: 0 hr 52 min 11 sec) 
Heartbeat CPU 0 instructions: 104000000 cycles: 83264409 heartbeat IPC: 0.866257 cumulative IPC: 0.887898 (Simulation time: 0 hr 52 min 41 sec) 
Heartbeat CPU 0 instructions: 105000002 cycles: 84476412 heartbeat IPC: 0.825082 cumulative IPC: 0.886671 (Simulation time: 0 hr 53 min 7 sec) 
Heartbeat CPU 0 instructions: 106000001 cycles: 85609972 heartbeat IPC: 0.882176 cumulative IPC: 0.88659 (Simulation time: 0 hr 53 min 34 sec) 
Heartbeat CPU 0 instructions: 107000000 cycles: 86814578 heartbeat IPC: 0.830146 cumulative IPC: 0.885534 (Simulation time: 0 hr 54 min 6 sec) 
Heartbeat CPU 0 instructions: 108000000 cycles: 88014975 heartbeat IPC: 0.833058 cumulative IPC: 0.884573 (Simulation time: 0 hr 54 min 34 sec) 
Heartbeat CPU 0 instructions: 109000000 cycles: 89027319 heartbeat IPC: 0.987806 cumulative IPC: 0.886142 (Simulation time: 0 hr 55 min 1 sec) 
Heartbeat CPU 0 instructions: 110000000 cycles: 90189730 heartbeat IPC: 0.860281 cumulative IPC: 0.885699 (Simulation time: 0 hr 55 min 27 sec) 
Heartbeat CPU 0 instructions: 111000002 cycles: 91314785 heartbeat IPC: 0.888847 cumulative IPC: 0.88575 (Simulation time: 0 hr 55 min 53 sec) 
Heartbeat CPU 0 instructions: 112000000 cycles: 92462935 heartbeat IPC: 0.870965 cumulative IPC: 0.885508 (Simulation time: 0 hr 56 min 20 sec) 
Heartbeat CPU 0 instructions: 113000003 cycles: 93393265 heartbeat IPC: 1.07489 cumulative IPC: 0.887991 (Simulation time: 0 hr 56 min 49 sec) 
Heartbeat CPU 0 instructions: 114000001 cycles: 94134658 heartbeat IPC: 1.34881 cumulative IPC: 0.892757 (Simulation time: 0 hr 57 min 15 sec) 
Heartbeat CPU 0 instructions: 115000000 cycles: 95262114 heartbeat IPC: 0.886952 cumulative IPC: 0.892667 (Simulation time: 0 hr 57 min 52 sec) 
Heartbeat CPU 0 instructions: 116000000 cycles: 96238169 heartbeat IPC: 1.02453 cumulative IPC: 0.894411 (Simulation time: 0 hr 58 min 32 sec) 
Heartbeat CPU 0 instructions: 117000003 cycles: 97192865 heartbeat IPC: 1.04746 cumulative IPC: 0.896366 (Simulation time: 0 hr 59 min 7 sec) 
Heartbeat CPU 0 instructions: 118000001 cycles: 98133372 heartbeat IPC: 1.06325 cumulative IPC: 0.89844 (Simulation time: 0 hr 59 min 45 sec) 
Heartbeat CPU 0 instructions: 119000001 cycles: 99206033 heartbeat IPC: 0.932261 cumulative IPC: 0.898912 (Simulation time: 1 hr 0 min 22 sec) 
Heartbeat CPU 0 instructions: 120000000 cycles: 100412035 heartbeat IPC: 0.829185 cumulative IPC: 0.897834 (Simulation time: 1 hr 0 min 57 sec) 
Heartbeat CPU 0 instructions: 121000002 cycles: 101566653 heartbeat IPC: 0.866089 cumulative IPC: 0.897371 (Simulation time: 1 hr 1 min 37 sec) 
Heartbeat CPU 0 instructions: 122000000 cycles: 103092313 heartbeat IPC: 0.655453 cumulative IPC: 0.892794 (Simulation time: 1 hr 2 min 18 sec) 
Heartbeat CPU 0 instructions: 123000000 cycles: 104419709 heartbeat IPC: 0.753355 cumulative IPC: 0.890536 (Simulation time: 1 hr 2 min 56 sec) 
Heartbeat CPU 0 instructions: 124000000 cycles: 105687477 heartbeat IPC: 0.788788 cumulative IPC: 0.888986 (Simulation time: 1 hr 3 min 30 sec) 
Heartbeat CPU 0 instructions: 125000001 cycles: 106887645 heartbeat IPC: 0.833218 cumulative IPC: 0.888194 (Simulation time: 1 hr 4 min 2 sec) 
Heartbeat CPU 0 instructions: 126000002 cycles: 107914244 heartbeat IPC: 0.974091 cumulative IPC: 0.889225 (Simulation time: 1 hr 4 min 35 sec) 
Heartbeat CPU 0 instructions: 127000001 cycles: 108963726 heartbeat IPC: 0.95285 cumulative IPC: 0.889997 (Simulation time: 1 hr 5 min 8 sec) 
Heartbeat CPU 0 instructions: 128000000 cycles: 110058562 heartbeat IPC: 0.913378 cumulative IPC: 0.890289 (Simulation time: 1 hr 5 min 40 sec) 
Heartbeat CPU 0 instructions: 129000003 cycles: 111254711 heartbeat IPC: 0.836019 cumulative IPC: 0.889558 (Simulation time: 1 hr 6 min 14 sec) 
Heartbeat CPU 0 instructions: 130000001 cycles: 112553034 heartbeat IPC: 0.770223 cumulative IPC: 0.887839 (Simulation time: 1 hr 6 min 49 sec) 
Heartbeat CPU 0 instructions: 131000003 cycles: 113803501 heartbeat IPC: 0.799703 cumulative IPC: 0.886633 (Simulation time: 1 hr 7 min 19 sec) 
Heartbeat CPU 0 instructions: 132000000 cycles: 114850974 heartbeat IPC: 0.954676 cumulative IPC: 0.887404 (Simulation time: 1 hr 7 min 48 sec) 
Heartbeat CPU 0 instructions: 133000001 cycles: 115845628 heartbeat IPC: 1.00538 cumulative IPC: 0.88866 (Simulation time: 1 hr 8 min 17 sec) 
Heartbeat CPU 0 instructions: 134000002 cycles: 116838934 heartbeat IPC: 1.00674 cumulative IPC: 0.889903 (Simulation time: 1 hr 8 min 43 sec) 
Heartbeat CPU 0 instructions: 135000000 cycles: 117847821 heartbeat IPC: 0.991189 cumulative IPC: 0.890974 (Simulation time: 1 hr 9 min 11 sec) 
Heartbeat CPU 0 instructions: 136000000 cycles: 118779274 heartbeat IPC: 1.07359 cumulative IPC: 0.89274 (Simulation time: 1 hr 9 min 39 sec) 
Heartbeat CPU 0 instructions: 137000000 cycles: 119713539 heartbeat IPC: 1.07036 cumulative IPC: 0.894446 (Simulation time: 1 hr 10 min 6 sec) 
Heartbeat CPU 0 instructions: 138000003 cycles: 120642621 heartbeat IPC: 1.07633 cumulative IPC: 0.896167 (Simulation time: 1 hr 10 min 32 sec) 
Heartbeat CPU 0 instructions: 139000001 cycles: 121713997 heartbeat IPC: 0.933377 cumulative IPC: 0.896568 (Simulation time: 1 hr 10 min 57 sec) 
Heartbeat CPU 0 instructions: 140000000 cycles: 122737028 heartbeat IPC: 0.977486 cumulative IPC: 0.897394 (Simulation time: 1 hr 11 min 21 sec) 
Heartbeat CPU 0 instructions: 141000000 cycles: 123810383 heartbeat IPC: 0.931658 cumulative IPC: 0.897757 (Simulation time: 1 hr 11 min 45 sec) 
Heartbeat CPU 0 instructions: 142000000 cycles: 124728134 heartbeat IPC: 1.08962 cumulative IPC: 0.899478 (Simulation time: 1 hr 12 min 9 sec) 
Heartbeat CPU 0 instructions: 143000001 cycles: 125522654 heartbeat IPC: 1.25862 cumulative IPC: 0.902246 (Simulation time: 1 hr 12 min 34 sec) 
Heartbeat CPU 0 instructions: 144000000 cycles: 126345331 heartbeat IPC: 1.21554 cumulative IPC: 0.904727 (Simulation time: 1 hr 12 min 59 sec) 
Heartbeat CPU 0 instructions: 145000001 cycles: 127342319 heartbeat IPC: 1.00302 cumulative IPC: 0.905661 (Simulation time: 1 hr 13 min 21 sec) 
Heartbeat CPU 0 instructions: 146000000 cycles: 128295670 heartbeat IPC: 1.04893 cumulative IPC: 0.906952 (Simulation time: 1 hr 13 min 43 sec) 
Heartbeat CPU 0 instructions: 147000001 cycles: 129299319 heartbeat IPC: 0.996365 cumulative IPC: 0.907792 (Simulation time: 1 hr 14 min 7 sec) 
Heartbeat CPU 0 instructions: 148000000 cycles: 130277093 heartbeat IPC: 1.02273 cumulative IPC: 0.908834 (Simulation time: 1 hr 14 min 31 sec) 
Heartbeat CPU 0 instructions: 149000003 cycles: 131270066 heartbeat IPC: 1.00708 cumulative IPC: 0.90973 (Simulation time: 1 hr 14 min 52 sec) 
Heartbeat CPU 0 instructions: 150000003 cycles: 132282493 heartbeat IPC: 0.987726 cumulative IPC: 0.910449 (Simulation time: 1 hr 15 min 10 sec) 
Finished CPU 0 instructions: 100000000 cycles: 109835883 cummulative IPC: 0.910449 (Simulation time: 1 hr 15 min 10 sec) 

ChampSim completed all CPUs

Region of Interest Statistics

CPU 0 cummulative IPC: 0.910449 instructions: 100000000 cycles: 109835883
LLC TOTAL     ACCESS:    1666377  HIT:    1312686  MISS:     353691
LLC LOAD      ACCESS:     531454  HIT:     453087  MISS:      78367
LLC RFO       ACCESS:     108420  HIT:      63231  MISS:      45189
LLC PREFETCH  ACCESS:     824404  HIT:     622278  MISS:     202126
LLC WRITEBACK ACCESS:     202099  HIT:     174090  MISS:      28009
OPTgen accesses: 12326
OPTgen hits: 12914
OPTgen hit rate: 104.77


