
*** ChampSim Multicore Out-of-Order Simulator ***

Warmup Instructions: 50000000
Simulation Instructions: 100000000
Configuration: 2
Number of CPUs: 1
LLC sets: 2048
LLC ways: 16
Off-chip DRAM Channels: 1 Width: 64-bit Data Rate: 1600 MT/s

CPU 0 runs /datasets/cs240c-wi22-a00-public/data/Assignment2-gz/wrf_1650B.trace.gz
CPU 0 L1D next line prefetcher
CPU 0 L2C IP-based stride prefetcher
Initialize Hawkeye state
Heartbeat CPU 0 instructions: 1000000 cycles: 514299 heartbeat IPC: 1.94439 cumulative IPC: 1.94439 (Simulation time: 0 hr 0 min 29 sec) 
Heartbeat CPU 0 instructions: 2000000 cycles: 1028473 heartbeat IPC: 1.94487 cumulative IPC: 1.94463 (Simulation time: 0 hr 0 min 56 sec) 
Heartbeat CPU 0 instructions: 3000001 cycles: 1546184 heartbeat IPC: 1.93158 cumulative IPC: 1.94026 (Simulation time: 0 hr 1 min 27 sec) 
Heartbeat CPU 0 instructions: 4000000 cycles: 2063940 heartbeat IPC: 1.93141 cumulative IPC: 1.93804 (Simulation time: 0 hr 1 min 58 sec) 
Heartbeat CPU 0 instructions: 5000001 cycles: 2581687 heartbeat IPC: 1.93145 cumulative IPC: 1.93672 (Simulation time: 0 hr 2 min 30 sec) 
Heartbeat CPU 0 instructions: 6000003 cycles: 3099505 heartbeat IPC: 1.93118 cumulative IPC: 1.93579 (Simulation time: 0 hr 3 min 3 sec) 
Heartbeat CPU 0 instructions: 7000000 cycles: 3617214 heartbeat IPC: 1.93158 cumulative IPC: 1.93519 (Simulation time: 0 hr 3 min 34 sec) 
Heartbeat CPU 0 instructions: 8000000 cycles: 4135023 heartbeat IPC: 1.93121 cumulative IPC: 1.93469 (Simulation time: 0 hr 4 min 1 sec) 
Heartbeat CPU 0 instructions: 9000001 cycles: 4649336 heartbeat IPC: 1.94434 cumulative IPC: 1.93576 (Simulation time: 0 hr 4 min 32 sec) 
Heartbeat CPU 0 instructions: 10000001 cycles: 5163453 heartbeat IPC: 1.94508 cumulative IPC: 1.93669 (Simulation time: 0 hr 5 min 3 sec) 
Heartbeat CPU 0 instructions: 11000001 cycles: 5677587 heartbeat IPC: 1.94502 cumulative IPC: 1.93744 (Simulation time: 0 hr 5 min 31 sec) 
Heartbeat CPU 0 instructions: 12000000 cycles: 6193737 heartbeat IPC: 1.93742 cumulative IPC: 1.93744 (Simulation time: 0 hr 5 min 59 sec) 
Heartbeat CPU 0 instructions: 13000002 cycles: 6711432 heartbeat IPC: 1.93164 cumulative IPC: 1.93699 (Simulation time: 0 hr 6 min 28 sec) 
Heartbeat CPU 0 instructions: 14000002 cycles: 7229229 heartbeat IPC: 1.93126 cumulative IPC: 1.93658 (Simulation time: 0 hr 6 min 57 sec) 
Heartbeat CPU 0 instructions: 15000001 cycles: 7746913 heartbeat IPC: 1.93168 cumulative IPC: 1.93626 (Simulation time: 0 hr 7 min 29 sec) 
Heartbeat CPU 0 instructions: 16000000 cycles: 8264628 heartbeat IPC: 1.93156 cumulative IPC: 1.93596 (Simulation time: 0 hr 7 min 59 sec) 
Heartbeat CPU 0 instructions: 17000000 cycles: 8782346 heartbeat IPC: 1.93155 cumulative IPC: 1.9357 (Simulation time: 0 hr 8 min 30 sec) 
Heartbeat CPU 0 instructions: 18000001 cycles: 9298211 heartbeat IPC: 1.93849 cumulative IPC: 1.93586 (Simulation time: 0 hr 8 min 59 sec) 
Heartbeat CPU 0 instructions: 19000003 cycles: 9812269 heartbeat IPC: 1.94531 cumulative IPC: 1.93635 (Simulation time: 0 hr 9 min 27 sec) 
Heartbeat CPU 0 instructions: 20000000 cycles: 10326480 heartbeat IPC: 1.94472 cumulative IPC: 1.93677 (Simulation time: 0 hr 9 min 59 sec) 
Heartbeat CPU 0 instructions: 21000000 cycles: 10841175 heartbeat IPC: 1.9429 cumulative IPC: 1.93706 (Simulation time: 0 hr 10 min 27 sec) 
Heartbeat CPU 0 instructions: 22000000 cycles: 11358990 heartbeat IPC: 1.93119 cumulative IPC: 1.93679 (Simulation time: 0 hr 10 min 56 sec) 
Heartbeat CPU 0 instructions: 23000003 cycles: 11876757 heartbeat IPC: 1.93138 cumulative IPC: 1.93656 (Simulation time: 0 hr 11 min 26 sec) 
Heartbeat CPU 0 instructions: 24000000 cycles: 12394524 heartbeat IPC: 1.93136 cumulative IPC: 1.93634 (Simulation time: 0 hr 11 min 58 sec) 
Heartbeat CPU 0 instructions: 25000000 cycles: 12912214 heartbeat IPC: 1.93166 cumulative IPC: 1.93615 (Simulation time: 0 hr 12 min 35 sec) 
Heartbeat CPU 0 instructions: 26000001 cycles: 13429933 heartbeat IPC: 1.93155 cumulative IPC: 1.93597 (Simulation time: 0 hr 13 min 8 sec) 
Heartbeat CPU 0 instructions: 27000002 cycles: 13947348 heartbeat IPC: 1.93269 cumulative IPC: 1.93585 (Simulation time: 0 hr 13 min 40 sec) 
Heartbeat CPU 0 instructions: 28000000 cycles: 14461488 heartbeat IPC: 1.94499 cumulative IPC: 1.93618 (Simulation time: 0 hr 14 min 11 sec) 
Heartbeat CPU 0 instructions: 29000003 cycles: 14975725 heartbeat IPC: 1.94463 cumulative IPC: 1.93647 (Simulation time: 0 hr 14 min 43 sec) 
Heartbeat CPU 0 instructions: 30000002 cycles: 15489912 heartbeat IPC: 1.94482 cumulative IPC: 1.93674 (Simulation time: 0 hr 15 min 13 sec) 
Heartbeat CPU 0 instructions: 31000001 cycles: 16006549 heartbeat IPC: 1.93559 cumulative IPC: 1.93671 (Simulation time: 0 hr 15 min 45 sec) 
Heartbeat CPU 0 instructions: 32000000 cycles: 16524170 heartbeat IPC: 1.93191 cumulative IPC: 1.93656 (Simulation time: 0 hr 16 min 15 sec) 
Heartbeat CPU 0 instructions: 33000001 cycles: 17041842 heartbeat IPC: 1.93173 cumulative IPC: 1.93641 (Simulation time: 0 hr 16 min 43 sec) 
Heartbeat CPU 0 instructions: 34000002 cycles: 17559440 heartbeat IPC: 1.932 cumulative IPC: 1.93628 (Simulation time: 0 hr 17 min 12 sec) 
Heartbeat CPU 0 instructions: 35000001 cycles: 18077270 heartbeat IPC: 1.93113 cumulative IPC: 1.93613 (Simulation time: 0 hr 17 min 41 sec) 
Heartbeat CPU 0 instructions: 36000000 cycles: 18594991 heartbeat IPC: 1.93154 cumulative IPC: 1.93601 (Simulation time: 0 hr 18 min 13 sec) 
Heartbeat CPU 0 instructions: 37000003 cycles: 19110667 heartbeat IPC: 1.93921 cumulative IPC: 1.93609 (Simulation time: 0 hr 18 min 44 sec) 
Heartbeat CPU 0 instructions: 38000000 cycles: 19624818 heartbeat IPC: 1.94495 cumulative IPC: 1.93632 (Simulation time: 0 hr 19 min 13 sec) 
Heartbeat CPU 0 instructions: 39000001 cycles: 20138999 heartbeat IPC: 1.94484 cumulative IPC: 1.93654 (Simulation time: 0 hr 19 min 43 sec) 
Heartbeat CPU 0 instructions: 40000000 cycles: 20654040 heartbeat IPC: 1.94159 cumulative IPC: 1.93667 (Simulation time: 0 hr 20 min 13 sec) 
Heartbeat CPU 0 instructions: 41000000 cycles: 21171690 heartbeat IPC: 1.93181 cumulative IPC: 1.93655 (Simulation time: 0 hr 20 min 42 sec) 
Heartbeat CPU 0 instructions: 42000003 cycles: 21689691 heartbeat IPC: 1.9305 cumulative IPC: 1.9364 (Simulation time: 0 hr 21 min 14 sec) 
Heartbeat CPU 0 instructions: 43000001 cycles: 22207425 heartbeat IPC: 1.93149 cumulative IPC: 1.93629 (Simulation time: 0 hr 21 min 46 sec) 
Heartbeat CPU 0 instructions: 44000000 cycles: 22725175 heartbeat IPC: 1.93143 cumulative IPC: 1.93618 (Simulation time: 0 hr 22 min 18 sec) 
Heartbeat CPU 0 instructions: 45000000 cycles: 23242894 heartbeat IPC: 1.93155 cumulative IPC: 1.93608 (Simulation time: 0 hr 22 min 54 sec) 
Heartbeat CPU 0 instructions: 46000003 cycles: 23740900 heartbeat IPC: 2.00801 cumulative IPC: 1.93758 (Simulation time: 0 hr 23 min 28 sec) 
Heartbeat CPU 0 instructions: 47000002 cycles: 24391798 heartbeat IPC: 1.53634 cumulative IPC: 1.92688 (Simulation time: 0 hr 24 min 5 sec) 
Heartbeat CPU 0 instructions: 48000000 cycles: 25044138 heartbeat IPC: 1.53294 cumulative IPC: 1.91662 (Simulation time: 0 hr 24 min 42 sec) 
Heartbeat CPU 0 instructions: 49000001 cycles: 25692666 heartbeat IPC: 1.54195 cumulative IPC: 1.90716 (Simulation time: 0 hr 25 min 17 sec) 
Heartbeat CPU 0 instructions: 50000000 cycles: 26341302 heartbeat IPC: 1.5417 cumulative IPC: 1.89816 (Simulation time: 0 hr 25 min 52 sec) 

Warmup complete CPU 0 instructions: 50000001 cycles: 26341305 (Simulation time: 0 hr 25 min 52 sec) 

Heartbeat CPU 0 instructions: 51000000 cycles: 28191049 heartbeat IPC: 0.540614 cumulative IPC: 0.540615 (Simulation time: 0 hr 26 min 32 sec) 
Heartbeat CPU 0 instructions: 52000000 cycles: 29948870 heartbeat IPC: 0.568886 cumulative IPC: 0.55439 (Simulation time: 0 hr 27 min 12 sec) 
Heartbeat CPU 0 instructions: 53000002 cycles: 30993506 heartbeat IPC: 0.957273 cumulative IPC: 0.644856 (Simulation time: 0 hr 27 min 49 sec) 
Heartbeat CPU 0 instructions: 54000001 cycles: 31938759 heartbeat IPC: 1.05792 cumulative IPC: 0.714611 (Simulation time: 0 hr 28 min 22 sec) 
Heartbeat CPU 0 instructions: 55000000 cycles: 32831979 heartbeat IPC: 1.11954 cumulative IPC: 0.770336 (Simulation time: 0 hr 28 min 57 sec) 
Heartbeat CPU 0 instructions: 56000000 cycles: 33707817 heartbeat IPC: 1.14176 cumulative IPC: 0.814497 (Simulation time: 0 hr 29 min 31 sec) 
Heartbeat CPU 0 instructions: 57000001 cycles: 34588223 heartbeat IPC: 1.13584 cumulative IPC: 0.848802 (Simulation time: 0 hr 30 min 6 sec) 
Heartbeat CPU 0 instructions: 58000002 cycles: 35472380 heartbeat IPC: 1.13102 cumulative IPC: 0.876129 (Simulation time: 0 hr 30 min 40 sec) 
Heartbeat CPU 0 instructions: 59000003 cycles: 36356711 heartbeat IPC: 1.1308 cumulative IPC: 0.898616 (Simulation time: 0 hr 31 min 11 sec) 
Heartbeat CPU 0 instructions: 60000000 cycles: 37239430 heartbeat IPC: 1.13286 cumulative IPC: 0.917589 (Simulation time: 0 hr 31 min 41 sec) 
Heartbeat CPU 0 instructions: 61000003 cycles: 38534965 heartbeat IPC: 0.771884 cumulative IPC: 0.902108 (Simulation time: 0 hr 32 min 16 sec) 
Heartbeat CPU 0 instructions: 62000002 cycles: 40022549 heartbeat IPC: 0.67223 cumulative IPC: 0.877113 (Simulation time: 0 hr 32 min 51 sec) 
Heartbeat CPU 0 instructions: 63000002 cycles: 41509535 heartbeat IPC: 0.672501 cumulative IPC: 0.857055 (Simulation time: 0 hr 33 min 23 sec) 
Heartbeat CPU 0 instructions: 64000000 cycles: 42995536 heartbeat IPC: 0.672946 cumulative IPC: 0.840627 (Simulation time: 0 hr 34 min 2 sec) 
Heartbeat CPU 0 instructions: 65000001 cycles: 44483666 heartbeat IPC: 0.671985 cumulative IPC: 0.826794 (Simulation time: 0 hr 34 min 39 sec) 
Heartbeat CPU 0 instructions: 66000000 cycles: 45969081 heartbeat IPC: 0.673212 cumulative IPC: 0.815171 (Simulation time: 0 hr 35 min 14 sec) 
Heartbeat CPU 0 instructions: 67000001 cycles: 47457917 heartbeat IPC: 0.671666 cumulative IPC: 0.805053 (Simulation time: 0 hr 35 min 50 sec) 
Heartbeat CPU 0 instructions: 68000000 cycles: 48944014 heartbeat IPC: 0.672903 cumulative IPC: 0.796365 (Simulation time: 0 hr 36 min 26 sec) 
Heartbeat CPU 0 instructions: 69000002 cycles: 50429108 heartbeat IPC: 0.673359 cumulative IPC: 0.788781 (Simulation time: 0 hr 37 min 1 sec) 
Heartbeat CPU 0 instructions: 70000000 cycles: 51915717 heartbeat IPC: 0.67267 cumulative IPC: 0.782032 (Simulation time: 0 hr 37 min 35 sec) 
Heartbeat CPU 0 instructions: 71000001 cycles: 53402839 heartbeat IPC: 0.67244 cumulative IPC: 0.776009 (Simulation time: 0 hr 38 min 11 sec) 
Heartbeat CPU 0 instructions: 72000000 cycles: 54890967 heartbeat IPC: 0.671985 cumulative IPC: 0.770587 (Simulation time: 0 hr 38 min 45 sec) 
Heartbeat CPU 0 instructions: 73000000 cycles: 56376810 heartbeat IPC: 0.673019 cumulative IPC: 0.76576 (Simulation time: 0 hr 39 min 19 sec) 
Heartbeat CPU 0 instructions: 74000003 cycles: 57862360 heartbeat IPC: 0.673153 cumulative IPC: 0.761396 (Simulation time: 0 hr 39 min 55 sec) 
Heartbeat CPU 0 instructions: 75000003 cycles: 59348652 heartbeat IPC: 0.672815 cumulative IPC: 0.757407 (Simulation time: 0 hr 40 min 29 sec) 
Heartbeat CPU 0 instructions: 76000000 cycles: 60834321 heartbeat IPC: 0.673095 cumulative IPC: 0.753776 (Simulation time: 0 hr 41 min 4 sec) 
Heartbeat CPU 0 instructions: 77000002 cycles: 62323290 heartbeat IPC: 0.671607 cumulative IPC: 0.750376 (Simulation time: 0 hr 41 min 39 sec) 
Heartbeat CPU 0 instructions: 78000001 cycles: 63810340 heartbeat IPC: 0.672472 cumulative IPC: 0.747284 (Simulation time: 0 hr 42 min 13 sec) 
Heartbeat CPU 0 instructions: 79000001 cycles: 65298666 heartbeat IPC: 0.671896 cumulative IPC: 0.744404 (Simulation time: 0 hr 42 min 47 sec) 
Heartbeat CPU 0 instructions: 80000000 cycles: 66784218 heartbeat IPC: 0.67315 cumulative IPC: 0.741786 (Simulation time: 0 hr 43 min 21 sec) 
Heartbeat CPU 0 instructions: 81000000 cycles: 68271386 heartbeat IPC: 0.672419 cumulative IPC: 0.739326 (Simulation time: 0 hr 43 min 56 sec) 
Heartbeat CPU 0 instructions: 82000003 cycles: 69756990 heartbeat IPC: 0.673129 cumulative IPC: 0.737061 (Simulation time: 0 hr 44 min 28 sec) 
Heartbeat CPU 0 instructions: 83000003 cycles: 71246613 heartbeat IPC: 0.671311 cumulative IPC: 0.73488 (Simulation time: 0 hr 45 min 2 sec) 
Heartbeat CPU 0 instructions: 84000000 cycles: 72732513 heartbeat IPC: 0.672991 cumulative IPC: 0.732897 (Simulation time: 0 hr 45 min 34 sec) 
Heartbeat CPU 0 instructions: 85000002 cycles: 74218766 heartbeat IPC: 0.672834 cumulative IPC: 0.731033 (Simulation time: 0 hr 46 min 4 sec) 
Heartbeat CPU 0 instructions: 86000001 cycles: 75704559 heartbeat IPC: 0.673041 cumulative IPC: 0.729287 (Simulation time: 0 hr 46 min 36 sec) 
Heartbeat CPU 0 instructions: 87000001 cycles: 77190765 heartbeat IPC: 0.672854 cumulative IPC: 0.727638 (Simulation time: 0 hr 47 min 9 sec) 
Heartbeat CPU 0 instructions: 88000000 cycles: 78699232 heartbeat IPC: 0.662924 cumulative IPC: 0.725774 (Simulation time: 0 hr 47 min 47 sec) 
Heartbeat CPU 0 instructions: 89000003 cycles: 80200278 heartbeat IPC: 0.666204 cumulative IPC: 0.724113 (Simulation time: 0 hr 48 min 23 sec) 
Heartbeat CPU 0 instructions: 90000003 cycles: 81703048 heartbeat IPC: 0.665438 cumulative IPC: 0.722521 (Simulation time: 0 hr 49 min 1 sec) 
Heartbeat CPU 0 instructions: 91000001 cycles: 83212535 heartbeat IPC: 0.662475 cumulative IPC: 0.720927 (Simulation time: 0 hr 49 min 38 sec) 
Heartbeat CPU 0 instructions: 92000000 cycles: 84721737 heartbeat IPC: 0.662601 cumulative IPC: 0.719419 (Simulation time: 0 hr 50 min 12 sec) 
Heartbeat CPU 0 instructions: 93000001 cycles: 86235471 heartbeat IPC: 0.660619 cumulative IPC: 0.717933 (Simulation time: 0 hr 50 min 45 sec) 
Heartbeat CPU 0 instructions: 94000001 cycles: 87746534 heartbeat IPC: 0.661786 cumulative IPC: 0.716551 (Simulation time: 0 hr 51 min 22 sec) 
Heartbeat CPU 0 instructions: 95000001 cycles: 89257143 heartbeat IPC: 0.661985 cumulative IPC: 0.715241 (Simulation time: 0 hr 52 min 0 sec) 
Heartbeat CPU 0 instructions: 96000000 cycles: 90770590 heartbeat IPC: 0.660743 cumulative IPC: 0.713961 (Simulation time: 0 hr 52 min 36 sec) 
Heartbeat CPU 0 instructions: 97000000 cycles: 92285794 heartbeat IPC: 0.659977 cumulative IPC: 0.712721 (Simulation time: 0 hr 53 min 11 sec) 
Heartbeat CPU 0 instructions: 98000000 cycles: 93800017 heartbeat IPC: 0.660405 cumulative IPC: 0.711546 (Simulation time: 0 hr 53 min 47 sec) 
Heartbeat CPU 0 instructions: 99000000 cycles: 95311709 heartbeat IPC: 0.66151 cumulative IPC: 0.71045 (Simulation time: 0 hr 54 min 23 sec) 
Heartbeat CPU 0 instructions: 100000000 cycles: 96825721 heartbeat IPC: 0.660497 cumulative IPC: 0.709377 (Simulation time: 0 hr 55 min 0 sec) 
Heartbeat CPU 0 instructions: 101000002 cycles: 98342886 heartbeat IPC: 0.659125 cumulative IPC: 0.708318 (Simulation time: 0 hr 55 min 35 sec) 
Heartbeat CPU 0 instructions: 102000002 cycles: 99856062 heartbeat IPC: 0.660862 cumulative IPC: 0.707341 (Simulation time: 0 hr 56 min 11 sec) 
Heartbeat CPU 0 instructions: 103000002 cycles: 101370473 heartbeat IPC: 0.660323 cumulative IPC: 0.706392 (Simulation time: 0 hr 56 min 51 sec) 
Heartbeat CPU 0 instructions: 104000000 cycles: 102886320 heartbeat IPC: 0.659696 cumulative IPC: 0.705467 (Simulation time: 0 hr 57 min 26 sec) 
Heartbeat CPU 0 instructions: 105000001 cycles: 104401461 heartbeat IPC: 0.660005 cumulative IPC: 0.704585 (Simulation time: 0 hr 58 min 2 sec) 
Heartbeat CPU 0 instructions: 106000001 cycles: 105918444 heartbeat IPC: 0.659203 cumulative IPC: 0.70372 (Simulation time: 0 hr 58 min 41 sec) 
Heartbeat CPU 0 instructions: 107000000 cycles: 107429575 heartbeat IPC: 0.661755 cumulative IPC: 0.702938 (Simulation time: 0 hr 59 min 16 sec) 
Heartbeat CPU 0 instructions: 108000000 cycles: 108943719 heartbeat IPC: 0.660439 cumulative IPC: 0.702159 (Simulation time: 0 hr 59 min 52 sec) 
Heartbeat CPU 0 instructions: 109000000 cycles: 110459412 heartbeat IPC: 0.659764 cumulative IPC: 0.701395 (Simulation time: 1 hr 0 min 28 sec) 
Heartbeat CPU 0 instructions: 110000001 cycles: 111972077 heartbeat IPC: 0.661086 cumulative IPC: 0.700683 (Simulation time: 1 hr 1 min 4 sec) 
Heartbeat CPU 0 instructions: 111000003 cycles: 113482767 heartbeat IPC: 0.661951 cumulative IPC: 0.700011 (Simulation time: 1 hr 1 min 41 sec) 
Heartbeat CPU 0 instructions: 112000000 cycles: 114993808 heartbeat IPC: 0.661793 cumulative IPC: 0.69936 (Simulation time: 1 hr 2 min 17 sec) 
Heartbeat CPU 0 instructions: 113000003 cycles: 116503550 heartbeat IPC: 0.662367 cumulative IPC: 0.69874 (Simulation time: 1 hr 2 min 55 sec) 
Heartbeat CPU 0 instructions: 114000002 cycles: 118009240 heartbeat IPC: 0.664147 cumulative IPC: 0.698172 (Simulation time: 1 hr 3 min 34 sec) 
Heartbeat CPU 0 instructions: 115000002 cycles: 119521494 heartbeat IPC: 0.661265 cumulative IPC: 0.697573 (Simulation time: 1 hr 4 min 9 sec) 
Heartbeat CPU 0 instructions: 116000000 cycles: 121036173 heartbeat IPC: 0.660205 cumulative IPC: 0.696975 (Simulation time: 1 hr 4 min 45 sec) 
Heartbeat CPU 0 instructions: 117000000 cycles: 122548782 heartbeat IPC: 0.661109 cumulative IPC: 0.696412 (Simulation time: 1 hr 5 min 20 sec) 
Heartbeat CPU 0 instructions: 118000003 cycles: 124062909 heartbeat IPC: 0.660449 cumulative IPC: 0.695854 (Simulation time: 1 hr 5 min 56 sec) 
Heartbeat CPU 0 instructions: 119000001 cycles: 125575827 heartbeat IPC: 0.660973 cumulative IPC: 0.695323 (Simulation time: 1 hr 6 min 33 sec) 
Heartbeat CPU 0 instructions: 120000000 cycles: 127092331 heartbeat IPC: 0.659411 cumulative IPC: 0.694782 (Simulation time: 1 hr 7 min 6 sec) 
Heartbeat CPU 0 instructions: 121000001 cycles: 128604606 heartbeat IPC: 0.661256 cumulative IPC: 0.694286 (Simulation time: 1 hr 7 min 39 sec) 
Heartbeat CPU 0 instructions: 122000000 cycles: 130119229 heartbeat IPC: 0.66023 cumulative IPC: 0.693789 (Simulation time: 1 hr 8 min 12 sec) 
Heartbeat CPU 0 instructions: 123000000 cycles: 131631305 heartbeat IPC: 0.661342 cumulative IPC: 0.693323 (Simulation time: 1 hr 8 min 43 sec) 
Heartbeat CPU 0 instructions: 124000000 cycles: 133145261 heartbeat IPC: 0.660521 cumulative IPC: 0.692858 (Simulation time: 1 hr 9 min 14 sec) 
Heartbeat CPU 0 instructions: 125000002 cycles: 134657920 heartbeat IPC: 0.661089 cumulative IPC: 0.692415 (Simulation time: 1 hr 9 min 46 sec) 
Heartbeat CPU 0 instructions: 126000003 cycles: 136172444 heartbeat IPC: 0.660274 cumulative IPC: 0.691971 (Simulation time: 1 hr 10 min 19 sec) 
Heartbeat CPU 0 instructions: 127000002 cycles: 137684683 heartbeat IPC: 0.66127 cumulative IPC: 0.691554 (Simulation time: 1 hr 10 min 48 sec) 
Heartbeat CPU 0 instructions: 128000000 cycles: 139485048 heartbeat IPC: 0.555442 cumulative IPC: 0.689389 (Simulation time: 1 hr 11 min 20 sec) 
Heartbeat CPU 0 instructions: 129000001 cycles: 141894097 heartbeat IPC: 0.415102 cumulative IPC: 0.68367 (Simulation time: 1 hr 11 min 58 sec) 
Heartbeat CPU 0 instructions: 130000002 cycles: 143605792 heartbeat IPC: 0.584217 cumulative IPC: 0.682218 (Simulation time: 1 hr 12 min 29 sec) 
Heartbeat CPU 0 instructions: 131000002 cycles: 145241078 heartbeat IPC: 0.611514 cumulative IPC: 0.681246 (Simulation time: 1 hr 13 min 0 sec) 
Heartbeat CPU 0 instructions: 132000000 cycles: 148355870 heartbeat IPC: 0.321048 cumulative IPC: 0.672051 (Simulation time: 1 hr 13 min 38 sec) 
Heartbeat CPU 0 instructions: 133000000 cycles: 151632981 heartbeat IPC: 0.305147 cumulative IPC: 0.662454 (Simulation time: 1 hr 14 min 18 sec) 
Heartbeat CPU 0 instructions: 134000000 cycles: 155051257 heartbeat IPC: 0.292545 cumulative IPC: 0.65263 (Simulation time: 1 hr 14 min 57 sec) 
Heartbeat CPU 0 instructions: 135000001 cycles: 158396238 heartbeat IPC: 0.298956 cumulative IPC: 0.643672 (Simulation time: 1 hr 15 min 33 sec) 
Heartbeat CPU 0 instructions: 136000000 cycles: 159490743 heartbeat IPC: 0.913654 cumulative IPC: 0.645891 (Simulation time: 1 hr 15 min 55 sec) 
Heartbeat CPU 0 instructions: 137000001 cycles: 160555571 heartbeat IPC: 0.93912 cumulative IPC: 0.648217 (Simulation time: 1 hr 16 min 18 sec) 
Heartbeat CPU 0 instructions: 138000000 cycles: 161564765 heartbeat IPC: 0.990889 cumulative IPC: 0.650775 (Simulation time: 1 hr 16 min 39 sec) 
Heartbeat CPU 0 instructions: 139000000 cycles: 162536680 heartbeat IPC: 1.0289 cumulative IPC: 0.653473 (Simulation time: 1 hr 17 min 0 sec) 
Heartbeat CPU 0 instructions: 140000000 cycles: 163469149 heartbeat IPC: 1.07242 cumulative IPC: 0.656322 (Simulation time: 1 hr 17 min 22 sec) 
Heartbeat CPU 0 instructions: 141000002 cycles: 164382097 heartbeat IPC: 1.09535 cumulative IPC: 0.659225 (Simulation time: 1 hr 17 min 44 sec) 
Heartbeat CPU 0 instructions: 142000001 cycles: 165294848 heartbeat IPC: 1.09559 cumulative IPC: 0.662092 (Simulation time: 1 hr 18 min 5 sec) 
Heartbeat CPU 0 instructions: 143000001 cycles: 166185000 heartbeat IPC: 1.1234 cumulative IPC: 0.665028 (Simulation time: 1 hr 18 min 23 sec) 
Heartbeat CPU 0 instructions: 144000000 cycles: 167106588 heartbeat IPC: 1.08508 cumulative IPC: 0.667778 (Simulation time: 1 hr 18 min 43 sec) 
Heartbeat CPU 0 instructions: 145000003 cycles: 168033372 heartbeat IPC: 1.079 cumulative IPC: 0.670468 (Simulation time: 1 hr 18 min 59 sec) 
Heartbeat CPU 0 instructions: 146000000 cycles: 168990954 heartbeat IPC: 1.04429 cumulative IPC: 0.672977 (Simulation time: 1 hr 19 min 15 sec) 
Heartbeat CPU 0 instructions: 147000002 cycles: 169936589 heartbeat IPC: 1.05749 cumulative IPC: 0.67551 (Simulation time: 1 hr 19 min 31 sec) 
Heartbeat CPU 0 instructions: 148000000 cycles: 170819378 heartbeat IPC: 1.13277 cumulative IPC: 0.678304 (Simulation time: 1 hr 19 min 47 sec) 
Heartbeat CPU 0 instructions: 149000001 cycles: 171708552 heartbeat IPC: 1.12464 cumulative IPC: 0.681034 (Simulation time: 1 hr 20 min 5 sec) 
Heartbeat CPU 0 instructions: 150000001 cycles: 172593539 heartbeat IPC: 1.12996 cumulative IPC: 0.68375 (Simulation time: 1 hr 20 min 21 sec) 
Finished CPU 0 instructions: 100000000 cycles: 146252234 cummulative IPC: 0.68375 (Simulation time: 1 hr 20 min 21 sec) 

ChampSim completed all CPUs

Region of Interest Statistics

CPU 0 cummulative IPC: 0.68375 instructions: 100000000 cycles: 146252234
LLC TOTAL     ACCESS:    2157299  HIT:     280215  MISS:    1877084
LLC LOAD      ACCESS:     100847  HIT:      15134  MISS:      85713
LLC RFO       ACCESS:     516106  HIT:       2695  MISS:     513411
LLC PREFETCH  ACCESS:     928537  HIT:      72306  MISS:     856231
LLC WRITEBACK ACCESS:     611809  HIT:     190080  MISS:     421729
OPTgen accesses: 11644
OPTgen hits: 1959
OPTgen hit rate: 16.8241


