
*** ChampSim Multicore Out-of-Order Simulator ***

Warmup Instructions: 50000000
Simulation Instructions: 100000000
Configuration: 2
Number of CPUs: 1
LLC sets: 2048
LLC ways: 16
Off-chip DRAM Channels: 1 Width: 64-bit Data Rate: 1600 MT/s

CPU 0 runs /datasets/cs240c-wi22-a00-public/data/Assignment2-gz/leslie3d_94B.trace.gz
CPU 0 L1D next line prefetcher
CPU 0 L2C IP-based stride prefetcher
Initialize Hawkeye state
Heartbeat CPU 0 instructions: 1000003 cycles: 597056 heartbeat IPC: 1.67489 cumulative IPC: 1.67489 (Simulation time: 0 hr 0 min 46 sec) 
Heartbeat CPU 0 instructions: 2000002 cycles: 1215904 heartbeat IPC: 1.6159 cumulative IPC: 1.64487 (Simulation time: 0 hr 1 min 42 sec) 
Heartbeat CPU 0 instructions: 3000003 cycles: 1867668 heartbeat IPC: 1.5343 cumulative IPC: 1.60628 (Simulation time: 0 hr 2 min 38 sec) 
Heartbeat CPU 0 instructions: 4000000 cycles: 2518894 heartbeat IPC: 1.53556 cumulative IPC: 1.588 (Simulation time: 0 hr 3 min 38 sec) 
Heartbeat CPU 0 instructions: 5000002 cycles: 3083864 heartbeat IPC: 1.77001 cumulative IPC: 1.62134 (Simulation time: 0 hr 4 min 30 sec) 
Heartbeat CPU 0 instructions: 6000002 cycles: 3734523 heartbeat IPC: 1.5369 cumulative IPC: 1.60663 (Simulation time: 0 hr 5 min 24 sec) 
Heartbeat CPU 0 instructions: 7000000 cycles: 4385254 heartbeat IPC: 1.53673 cumulative IPC: 1.59626 (Simulation time: 0 hr 6 min 15 sec) 
Heartbeat CPU 0 instructions: 8000000 cycles: 4950262 heartbeat IPC: 1.76989 cumulative IPC: 1.61608 (Simulation time: 0 hr 7 min 4 sec) 
Heartbeat CPU 0 instructions: 9000000 cycles: 5601136 heartbeat IPC: 1.5364 cumulative IPC: 1.60682 (Simulation time: 0 hr 7 min 59 sec) 
Heartbeat CPU 0 instructions: 10000001 cycles: 6252373 heartbeat IPC: 1.53554 cumulative IPC: 1.59939 (Simulation time: 0 hr 8 min 56 sec) 
Heartbeat CPU 0 instructions: 11000000 cycles: 6878485 heartbeat IPC: 1.59716 cumulative IPC: 1.59919 (Simulation time: 0 hr 9 min 53 sec) 
Heartbeat CPU 0 instructions: 12000000 cycles: 7380907 heartbeat IPC: 1.99036 cumulative IPC: 1.62582 (Simulation time: 0 hr 10 min 41 sec) 
Heartbeat CPU 0 instructions: 13000000 cycles: 7881206 heartbeat IPC: 1.9988 cumulative IPC: 1.64949 (Simulation time: 0 hr 11 min 29 sec) 
Heartbeat CPU 0 instructions: 14000001 cycles: 8381647 heartbeat IPC: 1.99824 cumulative IPC: 1.67032 (Simulation time: 0 hr 12 min 23 sec) 
Heartbeat CPU 0 instructions: 15000001 cycles: 8881978 heartbeat IPC: 1.99868 cumulative IPC: 1.68881 (Simulation time: 0 hr 13 min 17 sec) 
Heartbeat CPU 0 instructions: 16000000 cycles: 9382272 heartbeat IPC: 1.99882 cumulative IPC: 1.70534 (Simulation time: 0 hr 14 min 6 sec) 
Heartbeat CPU 0 instructions: 17000001 cycles: 9882714 heartbeat IPC: 1.99824 cumulative IPC: 1.72018 (Simulation time: 0 hr 14 min 52 sec) 
Heartbeat CPU 0 instructions: 18000002 cycles: 10382835 heartbeat IPC: 1.99952 cumulative IPC: 1.73363 (Simulation time: 0 hr 15 min 41 sec) 
Heartbeat CPU 0 instructions: 19000000 cycles: 10883299 heartbeat IPC: 1.99814 cumulative IPC: 1.74579 (Simulation time: 0 hr 16 min 34 sec) 
Heartbeat CPU 0 instructions: 20000000 cycles: 11383237 heartbeat IPC: 2.00025 cumulative IPC: 1.75697 (Simulation time: 0 hr 17 min 26 sec) 
Heartbeat CPU 0 instructions: 21000002 cycles: 11883769 heartbeat IPC: 1.99788 cumulative IPC: 1.76712 (Simulation time: 0 hr 18 min 22 sec) 
Heartbeat CPU 0 instructions: 22000000 cycles: 12371552 heartbeat IPC: 2.05009 cumulative IPC: 1.77827 (Simulation time: 0 hr 19 min 14 sec) 
Heartbeat CPU 0 instructions: 23000000 cycles: 12858509 heartbeat IPC: 2.05357 cumulative IPC: 1.7887 (Simulation time: 0 hr 20 min 2 sec) 
Heartbeat CPU 0 instructions: 24000000 cycles: 13344857 heartbeat IPC: 2.05614 cumulative IPC: 1.79845 (Simulation time: 0 hr 20 min 45 sec) 
Heartbeat CPU 0 instructions: 25000000 cycles: 13852144 heartbeat IPC: 1.97127 cumulative IPC: 1.80477 (Simulation time: 0 hr 21 min 27 sec) 
Heartbeat CPU 0 instructions: 26000000 cycles: 14433289 heartbeat IPC: 1.72074 cumulative IPC: 1.80139 (Simulation time: 0 hr 22 min 26 sec) 
Heartbeat CPU 0 instructions: 27000000 cycles: 15014740 heartbeat IPC: 1.71984 cumulative IPC: 1.79823 (Simulation time: 0 hr 23 min 14 sec) 
Heartbeat CPU 0 instructions: 28000000 cycles: 15596142 heartbeat IPC: 1.71998 cumulative IPC: 1.79532 (Simulation time: 0 hr 24 min 5 sec) 
Heartbeat CPU 0 instructions: 29000000 cycles: 16177435 heartbeat IPC: 1.7203 cumulative IPC: 1.79262 (Simulation time: 0 hr 24 min 59 sec) 
Heartbeat CPU 0 instructions: 30000002 cycles: 16807762 heartbeat IPC: 1.58648 cumulative IPC: 1.78489 (Simulation time: 0 hr 25 min 50 sec) 
Heartbeat CPU 0 instructions: 31000000 cycles: 17438972 heartbeat IPC: 1.58426 cumulative IPC: 1.77763 (Simulation time: 0 hr 26 min 44 sec) 
Heartbeat CPU 0 instructions: 32000000 cycles: 18060667 heartbeat IPC: 1.60851 cumulative IPC: 1.77181 (Simulation time: 0 hr 27 min 42 sec) 
Heartbeat CPU 0 instructions: 33000001 cycles: 18693187 heartbeat IPC: 1.58098 cumulative IPC: 1.76535 (Simulation time: 0 hr 28 min 36 sec) 
Heartbeat CPU 0 instructions: 34000003 cycles: 19314855 heartbeat IPC: 1.60858 cumulative IPC: 1.7603 (Simulation time: 0 hr 29 min 29 sec) 
Heartbeat CPU 0 instructions: 35000001 cycles: 19946398 heartbeat IPC: 1.58342 cumulative IPC: 1.7547 (Simulation time: 0 hr 30 min 27 sec) 
Heartbeat CPU 0 instructions: 36000000 cycles: 20567606 heartbeat IPC: 1.60977 cumulative IPC: 1.75033 (Simulation time: 0 hr 31 min 11 sec) 
Heartbeat CPU 0 instructions: 37000003 cycles: 21199484 heartbeat IPC: 1.58259 cumulative IPC: 1.74533 (Simulation time: 0 hr 31 min 58 sec) 
Heartbeat CPU 0 instructions: 38000002 cycles: 21830524 heartbeat IPC: 1.58468 cumulative IPC: 1.74068 (Simulation time: 0 hr 33 min 0 sec) 
Heartbeat CPU 0 instructions: 39000002 cycles: 22453070 heartbeat IPC: 1.60631 cumulative IPC: 1.73696 (Simulation time: 0 hr 33 min 58 sec) 
Heartbeat CPU 0 instructions: 40000000 cycles: 23085513 heartbeat IPC: 1.58117 cumulative IPC: 1.73269 (Simulation time: 0 hr 34 min 54 sec) 
Heartbeat CPU 0 instructions: 41000000 cycles: 23707084 heartbeat IPC: 1.60883 cumulative IPC: 1.72944 (Simulation time: 0 hr 35 min 48 sec) 
Heartbeat CPU 0 instructions: 42000002 cycles: 24338496 heartbeat IPC: 1.58376 cumulative IPC: 1.72566 (Simulation time: 0 hr 36 min 37 sec) 
Heartbeat CPU 0 instructions: 43000002 cycles: 24960220 heartbeat IPC: 1.60843 cumulative IPC: 1.72274 (Simulation time: 0 hr 37 min 35 sec) 
Heartbeat CPU 0 instructions: 44000000 cycles: 25592374 heartbeat IPC: 1.58189 cumulative IPC: 1.71926 (Simulation time: 0 hr 38 min 17 sec) 
Heartbeat CPU 0 instructions: 45000002 cycles: 26222691 heartbeat IPC: 1.58651 cumulative IPC: 1.71607 (Simulation time: 0 hr 39 min 2 sec) 
Heartbeat CPU 0 instructions: 46000001 cycles: 26846204 heartbeat IPC: 1.60381 cumulative IPC: 1.71346 (Simulation time: 0 hr 39 min 49 sec) 
Heartbeat CPU 0 instructions: 47000001 cycles: 27477814 heartbeat IPC: 1.58326 cumulative IPC: 1.71047 (Simulation time: 0 hr 40 min 43 sec) 
Heartbeat CPU 0 instructions: 48000000 cycles: 28099403 heartbeat IPC: 1.60878 cumulative IPC: 1.70822 (Simulation time: 0 hr 41 min 36 sec) 
Heartbeat CPU 0 instructions: 49000000 cycles: 28731177 heartbeat IPC: 1.58284 cumulative IPC: 1.70546 (Simulation time: 0 hr 42 min 26 sec) 
Heartbeat CPU 0 instructions: 50000003 cycles: 29352949 heartbeat IPC: 1.60831 cumulative IPC: 1.70341 (Simulation time: 0 hr 43 min 15 sec) 

Warmup complete CPU 0 instructions: 50000003 cycles: 29352949 (Simulation time: 0 hr 43 min 15 sec) 

Heartbeat CPU 0 instructions: 51000003 cycles: 30623708 heartbeat IPC: 0.786931 cumulative IPC: 0.786931 (Simulation time: 0 hr 44 min 14 sec) 
Heartbeat CPU 0 instructions: 52000000 cycles: 31886310 heartbeat IPC: 0.792013 cumulative IPC: 0.789464 (Simulation time: 0 hr 44 min 58 sec) 
Heartbeat CPU 0 instructions: 53000002 cycles: 33199492 heartbeat IPC: 0.761511 cumulative IPC: 0.779921 (Simulation time: 0 hr 45 min 37 sec) 
Heartbeat CPU 0 instructions: 54000001 cycles: 34449581 heartbeat IPC: 0.799942 cumulative IPC: 0.784832 (Simulation time: 0 hr 46 min 25 sec) 
Heartbeat CPU 0 instructions: 55000000 cycles: 35745143 heartbeat IPC: 0.771865 cumulative IPC: 0.782204 (Simulation time: 0 hr 47 min 14 sec) 
Heartbeat CPU 0 instructions: 56000000 cycles: 37009036 heartbeat IPC: 0.791206 cumulative IPC: 0.78369 (Simulation time: 0 hr 48 min 10 sec) 
Heartbeat CPU 0 instructions: 57000000 cycles: 38290976 heartbeat IPC: 0.780068 cumulative IPC: 0.78317 (Simulation time: 0 hr 49 min 4 sec) 
Heartbeat CPU 0 instructions: 58000001 cycles: 39542425 heartbeat IPC: 0.799075 cumulative IPC: 0.785124 (Simulation time: 0 hr 49 min 55 sec) 
Heartbeat CPU 0 instructions: 59000000 cycles: 40785773 heartbeat IPC: 0.804279 cumulative IPC: 0.787207 (Simulation time: 0 hr 50 min 42 sec) 
Heartbeat CPU 0 instructions: 60000000 cycles: 42052230 heartbeat IPC: 0.789604 cumulative IPC: 0.787446 (Simulation time: 0 hr 51 min 31 sec) 
Heartbeat CPU 0 instructions: 61000001 cycles: 43305305 heartbeat IPC: 0.798038 cumulative IPC: 0.788397 (Simulation time: 0 hr 52 min 23 sec) 
Heartbeat CPU 0 instructions: 62000002 cycles: 44580671 heartbeat IPC: 0.784089 cumulative IPC: 0.788036 (Simulation time: 0 hr 53 min 13 sec) 
Heartbeat CPU 0 instructions: 63000000 cycles: 45830296 heartbeat IPC: 0.800238 cumulative IPC: 0.788962 (Simulation time: 0 hr 54 min 1 sec) 
Heartbeat CPU 0 instructions: 64000000 cycles: 47109498 heartbeat IPC: 0.781737 cumulative IPC: 0.788441 (Simulation time: 0 hr 54 min 50 sec) 
Heartbeat CPU 0 instructions: 65000000 cycles: 48370663 heartbeat IPC: 0.792918 cumulative IPC: 0.788738 (Simulation time: 0 hr 55 min 41 sec) 
Heartbeat CPU 0 instructions: 66000000 cycles: 49639580 heartbeat IPC: 0.788074 cumulative IPC: 0.788697 (Simulation time: 0 hr 56 min 32 sec) 
Heartbeat CPU 0 instructions: 67000003 cycles: 50901356 heartbeat IPC: 0.792536 cumulative IPC: 0.788921 (Simulation time: 0 hr 57 min 20 sec) 
Heartbeat CPU 0 instructions: 68000000 cycles: 52159611 heartbeat IPC: 0.794749 cumulative IPC: 0.789243 (Simulation time: 0 hr 58 min 8 sec) 
Heartbeat CPU 0 instructions: 69000000 cycles: 53438575 heartbeat IPC: 0.781883 cumulative IPC: 0.788852 (Simulation time: 0 hr 58 min 54 sec) 
Heartbeat CPU 0 instructions: 70000001 cycles: 54688739 heartbeat IPC: 0.799896 cumulative IPC: 0.789397 (Simulation time: 0 hr 59 min 50 sec) 
Heartbeat CPU 0 instructions: 71000002 cycles: 55981219 heartbeat IPC: 0.773707 cumulative IPC: 0.788635 (Simulation time: 1 hr 0 min 36 sec) 
Heartbeat CPU 0 instructions: 72000000 cycles: 57220507 heartbeat IPC: 0.806913 cumulative IPC: 0.789448 (Simulation time: 1 hr 1 min 30 sec) 
Heartbeat CPU 0 instructions: 73000000 cycles: 58490724 heartbeat IPC: 0.787267 cumulative IPC: 0.789353 (Simulation time: 1 hr 2 min 28 sec) 
Heartbeat CPU 0 instructions: 74000000 cycles: 59749414 heartbeat IPC: 0.794477 cumulative IPC: 0.789565 (Simulation time: 1 hr 3 min 30 sec) 
Heartbeat CPU 0 instructions: 75000002 cycles: 61000411 heartbeat IPC: 0.799364 cumulative IPC: 0.789953 (Simulation time: 1 hr 4 min 21 sec) 
Heartbeat CPU 0 instructions: 76000000 cycles: 62293034 heartbeat IPC: 0.773619 cumulative IPC: 0.789312 (Simulation time: 1 hr 5 min 13 sec) 
Heartbeat CPU 0 instructions: 77000000 cycles: 63542416 heartbeat IPC: 0.800396 cumulative IPC: 0.789717 (Simulation time: 1 hr 6 min 4 sec) 
Heartbeat CPU 0 instructions: 78000003 cycles: 64852743 heartbeat IPC: 0.763171 cumulative IPC: 0.788737 (Simulation time: 1 hr 6 min 50 sec) 
Heartbeat CPU 0 instructions: 79000000 cycles: 66375631 heartbeat IPC: 0.656645 cumulative IPC: 0.783303 (Simulation time: 1 hr 7 min 31 sec) 
Heartbeat CPU 0 instructions: 80000000 cycles: 68014703 heartbeat IPC: 0.610101 cumulative IPC: 0.775961 (Simulation time: 1 hr 8 min 16 sec) 
Heartbeat CPU 0 instructions: 81000002 cycles: 69603845 heartbeat IPC: 0.629272 cumulative IPC: 0.770169 (Simulation time: 1 hr 8 min 57 sec) 
Heartbeat CPU 0 instructions: 82000003 cycles: 71258313 heartbeat IPC: 0.604424 cumulative IPC: 0.763625 (Simulation time: 1 hr 9 min 39 sec) 
Heartbeat CPU 0 instructions: 83000002 cycles: 72920515 heartbeat IPC: 0.601611 cumulative IPC: 0.757444 (Simulation time: 1 hr 10 min 26 sec) 
Heartbeat CPU 0 instructions: 84000000 cycles: 74536955 heartbeat IPC: 0.618642 cumulative IPC: 0.752479 (Simulation time: 1 hr 11 min 6 sec) 
Heartbeat CPU 0 instructions: 85000001 cycles: 76183013 heartbeat IPC: 0.607513 cumulative IPC: 0.747383 (Simulation time: 1 hr 11 min 45 sec) 
Heartbeat CPU 0 instructions: 86000002 cycles: 77809975 heartbeat IPC: 0.614643 cumulative IPC: 0.742926 (Simulation time: 1 hr 12 min 27 sec) 
Heartbeat CPU 0 instructions: 87000000 cycles: 79454823 heartbeat IPC: 0.607958 cumulative IPC: 0.738495 (Simulation time: 1 hr 13 min 11 sec) 
Heartbeat CPU 0 instructions: 88000000 cycles: 81116259 heartbeat IPC: 0.601889 cumulative IPC: 0.734111 (Simulation time: 1 hr 13 min 48 sec) 
Heartbeat CPU 0 instructions: 89000002 cycles: 82748713 heartbeat IPC: 0.612576 cumulative IPC: 0.730395 (Simulation time: 1 hr 14 min 27 sec) 
Heartbeat CPU 0 instructions: 90000001 cycles: 84393210 heartbeat IPC: 0.608088 cumulative IPC: 0.726741 (Simulation time: 1 hr 15 min 1 sec) 
Heartbeat CPU 0 instructions: 91000003 cycles: 86036278 heartbeat IPC: 0.608619 cumulative IPC: 0.723317 (Simulation time: 1 hr 15 min 33 sec) 
Heartbeat CPU 0 instructions: 92000000 cycles: 87687107 heartbeat IPC: 0.605754 cumulative IPC: 0.71999 (Simulation time: 1 hr 16 min 5 sec) 
Heartbeat CPU 0 instructions: 93000001 cycles: 89366164 heartbeat IPC: 0.595573 cumulative IPC: 0.716509 (Simulation time: 1 hr 16 min 39 sec) 
Heartbeat CPU 0 instructions: 94000003 cycles: 91028653 heartbeat IPC: 0.601509 cumulative IPC: 0.713409 (Simulation time: 1 hr 17 min 14 sec) 
Heartbeat CPU 0 instructions: 95000002 cycles: 92732005 heartbeat IPC: 0.587077 cumulative IPC: 0.710014 (Simulation time: 1 hr 17 min 48 sec) 
Heartbeat CPU 0 instructions: 96000000 cycles: 94383371 heartbeat IPC: 0.605558 cumulative IPC: 0.707361 (Simulation time: 1 hr 18 min 22 sec) 
Heartbeat CPU 0 instructions: 97000003 cycles: 96486575 heartbeat IPC: 0.475466 cumulative IPC: 0.700096 (Simulation time: 1 hr 18 min 55 sec) 
Heartbeat CPU 0 instructions: 98000002 cycles: 102082978 heartbeat IPC: 0.178686 cumulative IPC: 0.659975 (Simulation time: 1 hr 19 min 48 sec) 
Heartbeat CPU 0 instructions: 99000000 cycles: 105072737 heartbeat IPC: 0.334474 cumulative IPC: 0.647123 (Simulation time: 1 hr 20 min 27 sec) 
Heartbeat CPU 0 instructions: 100000000 cycles: 106774607 heartbeat IPC: 0.587589 cumulative IPC: 0.645814 (Simulation time: 1 hr 20 min 48 sec) 
Heartbeat CPU 0 instructions: 101000002 cycles: 108042329 heartbeat IPC: 0.788818 cumulative IPC: 0.648118 (Simulation time: 1 hr 21 min 8 sec) 
Heartbeat CPU 0 instructions: 102000003 cycles: 109352154 heartbeat IPC: 0.763462 cumulative IPC: 0.650006 (Simulation time: 1 hr 21 min 28 sec) 
Heartbeat CPU 0 instructions: 103000002 cycles: 110672576 heartbeat IPC: 0.757333 cumulative IPC: 0.651749 (Simulation time: 1 hr 21 min 45 sec) 
Heartbeat CPU 0 instructions: 104000000 cycles: 112150634 heartbeat IPC: 0.676562 cumulative IPC: 0.652192 (Simulation time: 1 hr 22 min 5 sec) 
Heartbeat CPU 0 instructions: 105000001 cycles: 113682523 heartbeat IPC: 0.652789 cumulative IPC: 0.652203 (Simulation time: 1 hr 22 min 24 sec) 
Heartbeat CPU 0 instructions: 106000001 cycles: 115225772 heartbeat IPC: 0.647984 cumulative IPC: 0.652127 (Simulation time: 1 hr 22 min 44 sec) 
Heartbeat CPU 0 instructions: 107000001 cycles: 116771551 heartbeat IPC: 0.646923 cumulative IPC: 0.652035 (Simulation time: 1 hr 23 min 2 sec) 
Heartbeat CPU 0 instructions: 108000000 cycles: 118321642 heartbeat IPC: 0.645123 cumulative IPC: 0.651915 (Simulation time: 1 hr 23 min 19 sec) 
Heartbeat CPU 0 instructions: 109000001 cycles: 119850845 heartbeat IPC: 0.653936 cumulative IPC: 0.651949 (Simulation time: 1 hr 23 min 34 sec) 
Heartbeat CPU 0 instructions: 110000001 cycles: 121393746 heartbeat IPC: 0.64813 cumulative IPC: 0.651885 (Simulation time: 1 hr 23 min 51 sec) 
Heartbeat CPU 0 instructions: 111000003 cycles: 122929046 heartbeat IPC: 0.65134 cumulative IPC: 0.651876 (Simulation time: 1 hr 24 min 5 sec) 
Heartbeat CPU 0 instructions: 112000000 cycles: 124478852 heartbeat IPC: 0.64524 cumulative IPC: 0.651768 (Simulation time: 1 hr 24 min 20 sec) 
Heartbeat CPU 0 instructions: 113000002 cycles: 126120407 heartbeat IPC: 0.60918 cumulative IPC: 0.651045 (Simulation time: 1 hr 24 min 36 sec) 
Heartbeat CPU 0 instructions: 114000002 cycles: 128533820 heartbeat IPC: 0.414351 cumulative IPC: 0.645286 (Simulation time: 1 hr 24 min 53 sec) 
Heartbeat CPU 0 instructions: 115000003 cycles: 131021061 heartbeat IPC: 0.402052 cumulative IPC: 0.639335 (Simulation time: 1 hr 25 min 8 sec) 
Heartbeat CPU 0 instructions: 116000000 cycles: 133459999 heartbeat IPC: 0.410013 cumulative IPC: 0.633963 (Simulation time: 1 hr 25 min 23 sec) 
Heartbeat CPU 0 instructions: 117000001 cycles: 135885842 heartbeat IPC: 0.412228 cumulative IPC: 0.628914 (Simulation time: 1 hr 25 min 38 sec) 
Heartbeat CPU 0 instructions: 118000000 cycles: 138254831 heartbeat IPC: 0.422121 cumulative IPC: 0.624415 (Simulation time: 1 hr 25 min 54 sec) 
Heartbeat CPU 0 instructions: 119000000 cycles: 140623041 heartbeat IPC: 0.42226 cumulative IPC: 0.620113 (Simulation time: 1 hr 26 min 11 sec) 
Heartbeat CPU 0 instructions: 120000000 cycles: 143070894 heartbeat IPC: 0.408521 cumulative IPC: 0.615558 (Simulation time: 1 hr 26 min 27 sec) 
Heartbeat CPU 0 instructions: 121000001 cycles: 145477063 heartbeat IPC: 0.415599 cumulative IPC: 0.611415 (Simulation time: 1 hr 26 min 43 sec) 
Heartbeat CPU 0 instructions: 122000000 cycles: 147880345 heartbeat IPC: 0.416097 cumulative IPC: 0.607454 (Simulation time: 1 hr 26 min 56 sec) 
Heartbeat CPU 0 instructions: 123000003 cycles: 149264003 heartbeat IPC: 0.722724 cumulative IPC: 0.608785 (Simulation time: 1 hr 27 min 6 sec) 
Heartbeat CPU 0 instructions: 124000000 cycles: 150395087 heartbeat IPC: 0.884105 cumulative IPC: 0.611357 (Simulation time: 1 hr 27 min 13 sec) 
Heartbeat CPU 0 instructions: 125000000 cycles: 151496440 heartbeat IPC: 0.907974 cumulative IPC: 0.614032 (Simulation time: 1 hr 27 min 19 sec) 
Heartbeat CPU 0 instructions: 126000001 cycles: 152590411 heartbeat IPC: 0.914102 cumulative IPC: 0.616696 (Simulation time: 1 hr 27 min 26 sec) 
Heartbeat CPU 0 instructions: 127000002 cycles: 153601626 heartbeat IPC: 0.98891 cumulative IPC: 0.619725 (Simulation time: 1 hr 27 min 32 sec) 
Heartbeat CPU 0 instructions: 128000000 cycles: 154624886 heartbeat IPC: 0.977267 cumulative IPC: 0.622645 (Simulation time: 1 hr 27 min 38 sec) 
Heartbeat CPU 0 instructions: 129000002 cycles: 155718323 heartbeat IPC: 0.914549 cumulative IPC: 0.625171 (Simulation time: 1 hr 27 min 44 sec) 
Heartbeat CPU 0 instructions: 130000001 cycles: 156814388 heartbeat IPC: 0.912354 cumulative IPC: 0.627641 (Simulation time: 1 hr 27 min 50 sec) 
Heartbeat CPU 0 instructions: 131000000 cycles: 157882818 heartbeat IPC: 0.935952 cumulative IPC: 0.630204 (Simulation time: 1 hr 27 min 55 sec) 
Heartbeat CPU 0 instructions: 132000000 cycles: 158967034 heartbeat IPC: 0.922325 cumulative IPC: 0.632647 (Simulation time: 1 hr 28 min 1 sec) 
Heartbeat CPU 0 instructions: 133000001 cycles: 160053982 heartbeat IPC: 0.920008 cumulative IPC: 0.635037 (Simulation time: 1 hr 28 min 6 sec) 
Heartbeat CPU 0 instructions: 134000000 cycles: 161149805 heartbeat IPC: 0.912555 cumulative IPC: 0.637344 (Simulation time: 1 hr 28 min 11 sec) 
Heartbeat CPU 0 instructions: 135000000 cycles: 162214589 heartbeat IPC: 0.939158 cumulative IPC: 0.639763 (Simulation time: 1 hr 28 min 16 sec) 
Heartbeat CPU 0 instructions: 136000000 cycles: 163298898 heartbeat IPC: 0.922246 cumulative IPC: 0.64205 (Simulation time: 1 hr 28 min 21 sec) 
Heartbeat CPU 0 instructions: 137000001 cycles: 164383002 heartbeat IPC: 0.922422 cumulative IPC: 0.644301 (Simulation time: 1 hr 28 min 26 sec) 
Heartbeat CPU 0 instructions: 138000002 cycles: 165456787 heartbeat IPC: 0.931286 cumulative IPC: 0.646565 (Simulation time: 1 hr 28 min 31 sec) 
Heartbeat CPU 0 instructions: 139000001 cycles: 166545143 heartbeat IPC: 0.918816 cumulative IPC: 0.648725 (Simulation time: 1 hr 28 min 35 sec) 
Heartbeat CPU 0 instructions: 140000000 cycles: 167635339 heartbeat IPC: 0.917265 cumulative IPC: 0.650842 (Simulation time: 1 hr 28 min 40 sec) 
Heartbeat CPU 0 instructions: 141000001 cycles: 168702125 heartbeat IPC: 0.937396 cumulative IPC: 0.653036 (Simulation time: 1 hr 28 min 45 sec) 
Heartbeat CPU 0 instructions: 142000003 cycles: 169788455 heartbeat IPC: 0.920532 cumulative IPC: 0.655105 (Simulation time: 1 hr 28 min 50 sec) 
Heartbeat CPU 0 instructions: 143000003 cycles: 170856909 heartbeat IPC: 0.935932 cumulative IPC: 0.657225 (Simulation time: 1 hr 28 min 55 sec) 
Heartbeat CPU 0 instructions: 144000000 cycles: 171934480 heartbeat IPC: 0.92801 cumulative IPC: 0.659272 (Simulation time: 1 hr 29 min 0 sec) 
Heartbeat CPU 0 instructions: 145000000 cycles: 173011627 heartbeat IPC: 0.928378 cumulative IPC: 0.66129 (Simulation time: 1 hr 29 min 5 sec) 
Heartbeat CPU 0 instructions: 146000003 cycles: 174096302 heartbeat IPC: 0.921938 cumulative IPC: 0.663243 (Simulation time: 1 hr 29 min 9 sec) 
Heartbeat CPU 0 instructions: 147000001 cycles: 175182076 heartbeat IPC: 0.921 cumulative IPC: 0.665162 (Simulation time: 1 hr 29 min 14 sec) 
Heartbeat CPU 0 instructions: 148000000 cycles: 176267171 heartbeat IPC: 0.921577 cumulative IPC: 0.667056 (Simulation time: 1 hr 29 min 19 sec) 
Heartbeat CPU 0 instructions: 149000000 cycles: 177338967 heartbeat IPC: 0.933013 cumulative IPC: 0.668982 (Simulation time: 1 hr 29 min 24 sec) 
Heartbeat CPU 0 instructions: 150000003 cycles: 178416954 heartbeat IPC: 0.927658 cumulative IPC: 0.670853 (Simulation time: 1 hr 29 min 29 sec) 
Finished CPU 0 instructions: 100000000 cycles: 149064005 cummulative IPC: 0.670853 (Simulation time: 1 hr 29 min 29 sec) 

ChampSim completed all CPUs

Region of Interest Statistics

CPU 0 cummulative IPC: 0.670853 instructions: 100000000 cycles: 149064005
LLC TOTAL     ACCESS:    4046263  HIT:     791194  MISS:    3255069
LLC LOAD      ACCESS:     356755  HIT:      70802  MISS:     285953
LLC RFO       ACCESS:     704359  HIT:      54372  MISS:     649987
LLC PREFETCH  ACCESS:    2008424  HIT:     295505  MISS:    1712919
LLC WRITEBACK ACCESS:     976725  HIT:     370515  MISS:     606210
OPTgen accesses: 23705
OPTgen hits: 9869
OPTgen hit rate: 41.6326


