
*** ChampSim Multicore Out-of-Order Simulator ***

Warmup Instructions: 50000000
Simulation Instructions: 100000000
Configuration: 2
Number of CPUs: 1
LLC sets: 2048
LLC ways: 16
Off-chip DRAM Channels: 1 Width: 64-bit Data Rate: 1600 MT/s

CPU 0 runs /datasets/cs240c-wi22-a00-public/data/Assignment2-gz/wrf_1228B.trace.gz
CPU 0 L1D next line prefetcher
CPU 0 L2C IP-based stride prefetcher
Initialize Hawkeye state
Heartbeat CPU 0 instructions: 1000003 cycles: 591062 heartbeat IPC: 1.69187 cumulative IPC: 1.69187 (Simulation time: 0 hr 0 min 44 sec) 
Heartbeat CPU 0 instructions: 2000003 cycles: 1111191 heartbeat IPC: 1.9226 cumulative IPC: 1.79987 (Simulation time: 0 hr 1 min 19 sec) 
Heartbeat CPU 0 instructions: 3000000 cycles: 1729169 heartbeat IPC: 1.61818 cumulative IPC: 1.73494 (Simulation time: 0 hr 1 min 54 sec) 
Heartbeat CPU 0 instructions: 4000000 cycles: 2349823 heartbeat IPC: 1.6112 cumulative IPC: 1.70226 (Simulation time: 0 hr 2 min 32 sec) 
Heartbeat CPU 0 instructions: 5000000 cycles: 3052186 heartbeat IPC: 1.42377 cumulative IPC: 1.63817 (Simulation time: 0 hr 3 min 16 sec) 
Heartbeat CPU 0 instructions: 6000000 cycles: 3612274 heartbeat IPC: 1.78543 cumulative IPC: 1.661 (Simulation time: 0 hr 3 min 49 sec) 
Heartbeat CPU 0 instructions: 7000001 cycles: 4165036 heartbeat IPC: 1.8091 cumulative IPC: 1.68066 (Simulation time: 0 hr 4 min 22 sec) 
Heartbeat CPU 0 instructions: 8000000 cycles: 4716402 heartbeat IPC: 1.81368 cumulative IPC: 1.69621 (Simulation time: 0 hr 4 min 55 sec) 
Heartbeat CPU 0 instructions: 9000002 cycles: 5266587 heartbeat IPC: 1.81757 cumulative IPC: 1.70889 (Simulation time: 0 hr 5 min 35 sec) 
Heartbeat CPU 0 instructions: 10000001 cycles: 5819484 heartbeat IPC: 1.80865 cumulative IPC: 1.71837 (Simulation time: 0 hr 6 min 22 sec) 
Heartbeat CPU 0 instructions: 11000002 cycles: 6373226 heartbeat IPC: 1.8059 cumulative IPC: 1.72597 (Simulation time: 0 hr 6 min 53 sec) 
Heartbeat CPU 0 instructions: 12000000 cycles: 6924075 heartbeat IPC: 1.81538 cumulative IPC: 1.73308 (Simulation time: 0 hr 7 min 24 sec) 
Heartbeat CPU 0 instructions: 13000003 cycles: 7475102 heartbeat IPC: 1.8148 cumulative IPC: 1.73911 (Simulation time: 0 hr 7 min 59 sec) 
Heartbeat CPU 0 instructions: 14000000 cycles: 7938745 heartbeat IPC: 2.15683 cumulative IPC: 1.7635 (Simulation time: 0 hr 8 min 31 sec) 
Heartbeat CPU 0 instructions: 15000002 cycles: 8329226 heartbeat IPC: 2.56095 cumulative IPC: 1.80089 (Simulation time: 0 hr 8 min 58 sec) 
Heartbeat CPU 0 instructions: 16000000 cycles: 8719685 heartbeat IPC: 2.56108 cumulative IPC: 1.83493 (Simulation time: 0 hr 9 min 27 sec) 
Heartbeat CPU 0 instructions: 17000001 cycles: 9108846 heartbeat IPC: 2.56963 cumulative IPC: 1.86632 (Simulation time: 0 hr 9 min 54 sec) 
Heartbeat CPU 0 instructions: 18000003 cycles: 9499577 heartbeat IPC: 2.55931 cumulative IPC: 1.89482 (Simulation time: 0 hr 10 min 21 sec) 
Heartbeat CPU 0 instructions: 19000001 cycles: 9889920 heartbeat IPC: 2.56184 cumulative IPC: 1.92115 (Simulation time: 0 hr 10 min 49 sec) 
Heartbeat CPU 0 instructions: 20000000 cycles: 10279432 heartbeat IPC: 2.56731 cumulative IPC: 1.94563 (Simulation time: 0 hr 11 min 19 sec) 
Heartbeat CPU 0 instructions: 21000003 cycles: 10669376 heartbeat IPC: 2.56448 cumulative IPC: 1.96825 (Simulation time: 0 hr 11 min 47 sec) 
Heartbeat CPU 0 instructions: 22000000 cycles: 11071704 heartbeat IPC: 2.48553 cumulative IPC: 1.98705 (Simulation time: 0 hr 12 min 16 sec) 
Heartbeat CPU 0 instructions: 23000003 cycles: 11599064 heartbeat IPC: 1.89624 cumulative IPC: 1.98292 (Simulation time: 0 hr 12 min 55 sec) 
Heartbeat CPU 0 instructions: 24000000 cycles: 12126775 heartbeat IPC: 1.89497 cumulative IPC: 1.97909 (Simulation time: 0 hr 13 min 46 sec) 
Heartbeat CPU 0 instructions: 25000000 cycles: 12654056 heartbeat IPC: 1.89652 cumulative IPC: 1.97565 (Simulation time: 0 hr 14 min 19 sec) 
Heartbeat CPU 0 instructions: 26000003 cycles: 13181036 heartbeat IPC: 1.89761 cumulative IPC: 1.97253 (Simulation time: 0 hr 14 min 54 sec) 
Heartbeat CPU 0 instructions: 27000001 cycles: 13707938 heartbeat IPC: 1.89788 cumulative IPC: 1.96966 (Simulation time: 0 hr 15 min 25 sec) 
Heartbeat CPU 0 instructions: 28000000 cycles: 14234995 heartbeat IPC: 1.89733 cumulative IPC: 1.96698 (Simulation time: 0 hr 16 min 0 sec) 
Heartbeat CPU 0 instructions: 29000003 cycles: 14865527 heartbeat IPC: 1.58597 cumulative IPC: 1.95082 (Simulation time: 0 hr 16 min 31 sec) 
Heartbeat CPU 0 instructions: 30000003 cycles: 15479023 heartbeat IPC: 1.63 cumulative IPC: 1.93811 (Simulation time: 0 hr 17 min 7 sec) 
Heartbeat CPU 0 instructions: 31000001 cycles: 16036347 heartbeat IPC: 1.79428 cumulative IPC: 1.93311 (Simulation time: 0 hr 17 min 41 sec) 
Heartbeat CPU 0 instructions: 32000000 cycles: 16591935 heartbeat IPC: 1.79989 cumulative IPC: 1.92865 (Simulation time: 0 hr 18 min 17 sec) 
Heartbeat CPU 0 instructions: 33000001 cycles: 17212742 heartbeat IPC: 1.61081 cumulative IPC: 1.91718 (Simulation time: 0 hr 18 min 53 sec) 
Heartbeat CPU 0 instructions: 34000003 cycles: 17833315 heartbeat IPC: 1.61142 cumulative IPC: 1.90654 (Simulation time: 0 hr 19 min 28 sec) 
Heartbeat CPU 0 instructions: 35000002 cycles: 18516746 heartbeat IPC: 1.4632 cumulative IPC: 1.89018 (Simulation time: 0 hr 20 min 3 sec) 
Heartbeat CPU 0 instructions: 36000000 cycles: 19069562 heartbeat IPC: 1.80892 cumulative IPC: 1.88783 (Simulation time: 0 hr 20 min 36 sec) 
Heartbeat CPU 0 instructions: 37000001 cycles: 19623055 heartbeat IPC: 1.80671 cumulative IPC: 1.88554 (Simulation time: 0 hr 21 min 10 sec) 
Heartbeat CPU 0 instructions: 38000001 cycles: 20173240 heartbeat IPC: 1.81757 cumulative IPC: 1.88368 (Simulation time: 0 hr 21 min 44 sec) 
Heartbeat CPU 0 instructions: 39000002 cycles: 20724707 heartbeat IPC: 1.81335 cumulative IPC: 1.88181 (Simulation time: 0 hr 22 min 25 sec) 
Heartbeat CPU 0 instructions: 40000000 cycles: 21277166 heartbeat IPC: 1.81009 cumulative IPC: 1.87995 (Simulation time: 0 hr 22 min 59 sec) 
Heartbeat CPU 0 instructions: 41000000 cycles: 21829684 heartbeat IPC: 1.8099 cumulative IPC: 1.87818 (Simulation time: 0 hr 23 min 30 sec) 
Heartbeat CPU 0 instructions: 42000000 cycles: 22382162 heartbeat IPC: 1.81003 cumulative IPC: 1.87649 (Simulation time: 0 hr 24 min 1 sec) 
Heartbeat CPU 0 instructions: 43000000 cycles: 22932656 heartbeat IPC: 1.81655 cumulative IPC: 1.87506 (Simulation time: 0 hr 24 min 37 sec) 
Heartbeat CPU 0 instructions: 44000000 cycles: 23336506 heartbeat IPC: 2.47617 cumulative IPC: 1.88546 (Simulation time: 0 hr 25 min 7 sec) 
Heartbeat CPU 0 instructions: 45000000 cycles: 23726014 heartbeat IPC: 2.56734 cumulative IPC: 1.89665 (Simulation time: 0 hr 25 min 34 sec) 
Heartbeat CPU 0 instructions: 46000000 cycles: 24116133 heartbeat IPC: 2.56332 cumulative IPC: 1.90744 (Simulation time: 0 hr 26 min 2 sec) 
Heartbeat CPU 0 instructions: 47000002 cycles: 24506621 heartbeat IPC: 2.5609 cumulative IPC: 1.91785 (Simulation time: 0 hr 26 min 29 sec) 
Heartbeat CPU 0 instructions: 48000000 cycles: 24896734 heartbeat IPC: 2.56335 cumulative IPC: 1.92796 (Simulation time: 0 hr 26 min 58 sec) 
Heartbeat CPU 0 instructions: 49000001 cycles: 25285978 heartbeat IPC: 2.56909 cumulative IPC: 1.93783 (Simulation time: 0 hr 27 min 27 sec) 
Heartbeat CPU 0 instructions: 50000003 cycles: 25676644 heartbeat IPC: 2.55974 cumulative IPC: 1.9473 (Simulation time: 0 hr 27 min 55 sec) 

Warmup complete CPU 0 instructions: 50000003 cycles: 25676644 (Simulation time: 0 hr 27 min 55 sec) 

Heartbeat CPU 0 instructions: 51000001 cycles: 26513661 heartbeat IPC: 1.19472 cumulative IPC: 1.19472 (Simulation time: 0 hr 28 min 25 sec) 
Heartbeat CPU 0 instructions: 52000000 cycles: 27407954 heartbeat IPC: 1.1182 cumulative IPC: 1.15519 (Simulation time: 0 hr 28 min 57 sec) 
Heartbeat CPU 0 instructions: 53000002 cycles: 28357352 heartbeat IPC: 1.0533 cumulative IPC: 1.11911 (Simulation time: 0 hr 29 min 32 sec) 
Heartbeat CPU 0 instructions: 54000001 cycles: 29309422 heartbeat IPC: 1.05034 cumulative IPC: 1.10109 (Simulation time: 0 hr 30 min 8 sec) 
Heartbeat CPU 0 instructions: 55000001 cycles: 30230061 heartbeat IPC: 1.0862 cumulative IPC: 1.09808 (Simulation time: 0 hr 30 min 41 sec) 
Heartbeat CPU 0 instructions: 56000000 cycles: 31181997 heartbeat IPC: 1.05049 cumulative IPC: 1.08985 (Simulation time: 0 hr 31 min 13 sec) 
Heartbeat CPU 0 instructions: 57000001 cycles: 32116602 heartbeat IPC: 1.06997 cumulative IPC: 1.08696 (Simulation time: 0 hr 31 min 48 sec) 
Heartbeat CPU 0 instructions: 58000000 cycles: 33043516 heartbeat IPC: 1.07885 cumulative IPC: 1.08594 (Simulation time: 0 hr 32 min 21 sec) 
Heartbeat CPU 0 instructions: 59000002 cycles: 34851979 heartbeat IPC: 0.552957 cumulative IPC: 0.980891 (Simulation time: 0 hr 33 min 6 sec) 
Heartbeat CPU 0 instructions: 60000000 cycles: 36450449 heartbeat IPC: 0.625597 cumulative IPC: 0.928177 (Simulation time: 0 hr 33 min 47 sec) 
Heartbeat CPU 0 instructions: 61000000 cycles: 38809046 heartbeat IPC: 0.423981 cumulative IPC: 0.837623 (Simulation time: 0 hr 34 min 33 sec) 
Heartbeat CPU 0 instructions: 62000000 cycles: 40489412 heartbeat IPC: 0.595108 cumulative IPC: 0.810112 (Simulation time: 0 hr 35 min 12 sec) 
Heartbeat CPU 0 instructions: 63000001 cycles: 41953841 heartbeat IPC: 0.682861 cumulative IPC: 0.798663 (Simulation time: 0 hr 36 min 2 sec) 
Heartbeat CPU 0 instructions: 64000000 cycles: 43489786 heartbeat IPC: 0.651064 cumulative IPC: 0.785936 (Simulation time: 0 hr 36 min 52 sec) 
Heartbeat CPU 0 instructions: 65000003 cycles: 44984609 heartbeat IPC: 0.668978 cumulative IPC: 0.776881 (Simulation time: 0 hr 37 min 36 sec) 
Heartbeat CPU 0 instructions: 66000000 cycles: 46480033 heartbeat IPC: 0.668705 cumulative IPC: 0.769105 (Simulation time: 0 hr 38 min 17 sec) 
Heartbeat CPU 0 instructions: 67000000 cycles: 47974670 heartbeat IPC: 0.669059 cumulative IPC: 0.762399 (Simulation time: 0 hr 38 min 56 sec) 
Heartbeat CPU 0 instructions: 68000000 cycles: 49469126 heartbeat IPC: 0.66914 cumulative IPC: 0.756541 (Simulation time: 0 hr 39 min 45 sec) 
Heartbeat CPU 0 instructions: 69000000 cycles: 50976573 heartbeat IPC: 0.663373 cumulative IPC: 0.75099 (Simulation time: 0 hr 40 min 27 sec) 
Heartbeat CPU 0 instructions: 70000001 cycles: 52473129 heartbeat IPC: 0.668202 cumulative IPC: 0.746367 (Simulation time: 0 hr 41 min 5 sec) 
Heartbeat CPU 0 instructions: 71000001 cycles: 53967309 heartbeat IPC: 0.669263 cumulative IPC: 0.742294 (Simulation time: 0 hr 41 min 42 sec) 
Heartbeat CPU 0 instructions: 72000000 cycles: 55450262 heartbeat IPC: 0.67433 cumulative IPC: 0.738909 (Simulation time: 0 hr 42 min 21 sec) 
Heartbeat CPU 0 instructions: 73000003 cycles: 56937970 heartbeat IPC: 0.672177 cumulative IPC: 0.735733 (Simulation time: 0 hr 42 min 58 sec) 
Heartbeat CPU 0 instructions: 74000000 cycles: 58435498 heartbeat IPC: 0.667765 cumulative IPC: 0.732626 (Simulation time: 0 hr 43 min 38 sec) 
Heartbeat CPU 0 instructions: 75000001 cycles: 59929347 heartbeat IPC: 0.669412 cumulative IPC: 0.729869 (Simulation time: 0 hr 44 min 17 sec) 
Heartbeat CPU 0 instructions: 76000000 cycles: 61425783 heartbeat IPC: 0.668254 cumulative IPC: 0.72729 (Simulation time: 0 hr 44 min 56 sec) 
Heartbeat CPU 0 instructions: 77000003 cycles: 62919704 heartbeat IPC: 0.669381 cumulative IPC: 0.724967 (Simulation time: 0 hr 45 min 32 sec) 
Heartbeat CPU 0 instructions: 78000001 cycles: 64414411 heartbeat IPC: 0.669026 cumulative IPC: 0.722809 (Simulation time: 0 hr 46 min 11 sec) 
Heartbeat CPU 0 instructions: 79000000 cycles: 65910849 heartbeat IPC: 0.668253 cumulative IPC: 0.72078 (Simulation time: 0 hr 46 min 54 sec) 
Heartbeat CPU 0 instructions: 80000000 cycles: 67401319 heartbeat IPC: 0.670929 cumulative IPC: 0.718999 (Simulation time: 0 hr 47 min 34 sec) 
Heartbeat CPU 0 instructions: 81000001 cycles: 68885240 heartbeat IPC: 0.673891 cumulative IPC: 0.71745 (Simulation time: 0 hr 48 min 18 sec) 
Heartbeat CPU 0 instructions: 82000000 cycles: 70368065 heartbeat IPC: 0.674388 cumulative IPC: 0.716021 (Simulation time: 0 hr 48 min 54 sec) 
Heartbeat CPU 0 instructions: 83000000 cycles: 71851413 heartbeat IPC: 0.674151 cumulative IPC: 0.714676 (Simulation time: 0 hr 49 min 30 sec) 
Heartbeat CPU 0 instructions: 84000000 cycles: 73346207 heartbeat IPC: 0.668989 cumulative IPC: 0.713243 (Simulation time: 0 hr 50 min 7 sec) 
Heartbeat CPU 0 instructions: 85000000 cycles: 74841090 heartbeat IPC: 0.668949 cumulative IPC: 0.711896 (Simulation time: 0 hr 50 min 45 sec) 
Heartbeat CPU 0 instructions: 86000000 cycles: 76334996 heartbeat IPC: 0.669386 cumulative IPC: 0.710643 (Simulation time: 0 hr 51 min 23 sec) 
Heartbeat CPU 0 instructions: 87000000 cycles: 77829850 heartbeat IPC: 0.668962 cumulative IPC: 0.709448 (Simulation time: 0 hr 52 min 5 sec) 
Heartbeat CPU 0 instructions: 88000000 cycles: 79325067 heartbeat IPC: 0.668799 cumulative IPC: 0.708315 (Simulation time: 0 hr 52 min 45 sec) 
Heartbeat CPU 0 instructions: 89000002 cycles: 80820696 heartbeat IPC: 0.668616 cumulative IPC: 0.707239 (Simulation time: 0 hr 53 min 22 sec) 
Heartbeat CPU 0 instructions: 90000000 cycles: 82305033 heartbeat IPC: 0.6737 cumulative IPC: 0.706359 (Simulation time: 0 hr 54 min 0 sec) 
Heartbeat CPU 0 instructions: 91000000 cycles: 83788692 heartbeat IPC: 0.674009 cumulative IPC: 0.705534 (Simulation time: 0 hr 54 min 40 sec) 
Heartbeat CPU 0 instructions: 92000000 cycles: 85272533 heartbeat IPC: 0.673927 cumulative IPC: 0.704747 (Simulation time: 0 hr 55 min 17 sec) 
Heartbeat CPU 0 instructions: 93000000 cycles: 86762276 heartbeat IPC: 0.671257 cumulative IPC: 0.70393 (Simulation time: 0 hr 55 min 54 sec) 
Heartbeat CPU 0 instructions: 94000003 cycles: 88256133 heartbeat IPC: 0.66941 cumulative IPC: 0.703106 (Simulation time: 0 hr 56 min 34 sec) 
Heartbeat CPU 0 instructions: 95000000 cycles: 89751899 heartbeat IPC: 0.668552 cumulative IPC: 0.702299 (Simulation time: 0 hr 57 min 15 sec) 
Heartbeat CPU 0 instructions: 96000000 cycles: 91245848 heartbeat IPC: 0.669367 cumulative IPC: 0.701549 (Simulation time: 0 hr 57 min 59 sec) 
Heartbeat CPU 0 instructions: 97000001 cycles: 92741395 heartbeat IPC: 0.668652 cumulative IPC: 0.700815 (Simulation time: 0 hr 58 min 41 sec) 
Heartbeat CPU 0 instructions: 98000003 cycles: 94236737 heartbeat IPC: 0.668745 cumulative IPC: 0.700116 (Simulation time: 0 hr 59 min 20 sec) 
Heartbeat CPU 0 instructions: 99000000 cycles: 95725840 heartbeat IPC: 0.671543 cumulative IPC: 0.699508 (Simulation time: 1 hr 0 min 0 sec) 
Heartbeat CPU 0 instructions: 100000000 cycles: 97209232 heartbeat IPC: 0.674131 cumulative IPC: 0.698982 (Simulation time: 1 hr 0 min 38 sec) 
Heartbeat CPU 0 instructions: 101000000 cycles: 98692441 heartbeat IPC: 0.674214 cumulative IPC: 0.698479 (Simulation time: 1 hr 1 min 17 sec) 
Heartbeat CPU 0 instructions: 102000003 cycles: 100176024 heartbeat IPC: 0.674046 cumulative IPC: 0.697992 (Simulation time: 1 hr 1 min 59 sec) 
Heartbeat CPU 0 instructions: 103000003 cycles: 101672283 heartbeat IPC: 0.668333 cumulative IPC: 0.697408 (Simulation time: 1 hr 2 min 39 sec) 
Heartbeat CPU 0 instructions: 104000000 cycles: 103166814 heartbeat IPC: 0.669104 cumulative IPC: 0.696863 (Simulation time: 1 hr 3 min 25 sec) 
Heartbeat CPU 0 instructions: 105000000 cycles: 104661623 heartbeat IPC: 0.668982 cumulative IPC: 0.696335 (Simulation time: 1 hr 4 min 2 sec) 
Heartbeat CPU 0 instructions: 106000000 cycles: 106156683 heartbeat IPC: 0.668869 cumulative IPC: 0.695825 (Simulation time: 1 hr 4 min 39 sec) 
Heartbeat CPU 0 instructions: 107000000 cycles: 107652718 heartbeat IPC: 0.668434 cumulative IPC: 0.695325 (Simulation time: 1 hr 5 min 26 sec) 
Heartbeat CPU 0 instructions: 108000000 cycles: 109148296 heartbeat IPC: 0.668638 cumulative IPC: 0.694847 (Simulation time: 1 hr 6 min 6 sec) 
Heartbeat CPU 0 instructions: 109000003 cycles: 110631139 heartbeat IPC: 0.674382 cumulative IPC: 0.694489 (Simulation time: 1 hr 6 min 43 sec) 
Heartbeat CPU 0 instructions: 110000001 cycles: 112114339 heartbeat IPC: 0.674217 cumulative IPC: 0.694142 (Simulation time: 1 hr 7 min 19 sec) 
Heartbeat CPU 0 instructions: 111000000 cycles: 113597918 heartbeat IPC: 0.674045 cumulative IPC: 0.693802 (Simulation time: 1 hr 7 min 55 sec) 
Heartbeat CPU 0 instructions: 112000000 cycles: 115089289 heartbeat IPC: 0.670524 cumulative IPC: 0.693414 (Simulation time: 1 hr 8 min 31 sec) 
Heartbeat CPU 0 instructions: 113000000 cycles: 116583249 heartbeat IPC: 0.669362 cumulative IPC: 0.693019 (Simulation time: 1 hr 9 min 6 sec) 
Heartbeat CPU 0 instructions: 114000000 cycles: 118079019 heartbeat IPC: 0.668552 cumulative IPC: 0.692623 (Simulation time: 1 hr 9 min 39 sec) 
Heartbeat CPU 0 instructions: 115000003 cycles: 119573112 heartbeat IPC: 0.669304 cumulative IPC: 0.692252 (Simulation time: 1 hr 10 min 14 sec) 
Heartbeat CPU 0 instructions: 116000000 cycles: 121069183 heartbeat IPC: 0.668415 cumulative IPC: 0.691878 (Simulation time: 1 hr 10 min 48 sec) 
Heartbeat CPU 0 instructions: 117000000 cycles: 122564780 heartbeat IPC: 0.668629 cumulative IPC: 0.691519 (Simulation time: 1 hr 11 min 23 sec) 
Heartbeat CPU 0 instructions: 118000000 cycles: 124052579 heartbeat IPC: 0.672134 cumulative IPC: 0.691226 (Simulation time: 1 hr 11 min 56 sec) 
Heartbeat CPU 0 instructions: 119000001 cycles: 125536496 heartbeat IPC: 0.673893 cumulative IPC: 0.690968 (Simulation time: 1 hr 12 min 29 sec) 
Heartbeat CPU 0 instructions: 120000000 cycles: 127019761 heartbeat IPC: 0.674188 cumulative IPC: 0.690723 (Simulation time: 1 hr 13 min 1 sec) 
Heartbeat CPU 0 instructions: 121000000 cycles: 128504471 heartbeat IPC: 0.673532 cumulative IPC: 0.690475 (Simulation time: 1 hr 13 min 33 sec) 
Heartbeat CPU 0 instructions: 122000002 cycles: 130002757 heartbeat IPC: 0.667431 cumulative IPC: 0.690144 (Simulation time: 1 hr 14 min 7 sec) 
Heartbeat CPU 0 instructions: 123000002 cycles: 131504330 heartbeat IPC: 0.665968 cumulative IPC: 0.689801 (Simulation time: 1 hr 14 min 38 sec) 
Heartbeat CPU 0 instructions: 124000000 cycles: 133001736 heartbeat IPC: 0.66782 cumulative IPC: 0.689494 (Simulation time: 1 hr 15 min 8 sec) 
Heartbeat CPU 0 instructions: 125000000 cycles: 134497529 heartbeat IPC: 0.668542 cumulative IPC: 0.689206 (Simulation time: 1 hr 15 min 36 sec) 
Heartbeat CPU 0 instructions: 126000000 cycles: 136010635 heartbeat IPC: 0.660892 cumulative IPC: 0.688818 (Simulation time: 1 hr 16 min 1 sec) 
Heartbeat CPU 0 instructions: 127000000 cycles: 137507553 heartbeat IPC: 0.668039 cumulative IPC: 0.68854 (Simulation time: 1 hr 16 min 27 sec) 
Heartbeat CPU 0 instructions: 128000000 cycles: 138998517 heartbeat IPC: 0.670707 cumulative IPC: 0.688305 (Simulation time: 1 hr 16 min 53 sec) 
Heartbeat CPU 0 instructions: 129000000 cycles: 140482162 heartbeat IPC: 0.674016 cumulative IPC: 0.68812 (Simulation time: 1 hr 17 min 18 sec) 
Heartbeat CPU 0 instructions: 130000001 cycles: 141972580 heartbeat IPC: 0.670953 cumulative IPC: 0.6879 (Simulation time: 1 hr 17 min 44 sec) 
Heartbeat CPU 0 instructions: 131000001 cycles: 143467731 heartbeat IPC: 0.668829 cumulative IPC: 0.687658 (Simulation time: 1 hr 18 min 8 sec) 
Heartbeat CPU 0 instructions: 132000000 cycles: 144963234 heartbeat IPC: 0.668671 cumulative IPC: 0.68742 (Simulation time: 1 hr 18 min 29 sec) 
Heartbeat CPU 0 instructions: 133000000 cycles: 146461646 heartbeat IPC: 0.667373 cumulative IPC: 0.687171 (Simulation time: 1 hr 18 min 52 sec) 
Heartbeat CPU 0 instructions: 134000000 cycles: 147956215 heartbeat IPC: 0.669089 cumulative IPC: 0.68695 (Simulation time: 1 hr 19 min 13 sec) 
Heartbeat CPU 0 instructions: 135000001 cycles: 149451450 heartbeat IPC: 0.668792 cumulative IPC: 0.686731 (Simulation time: 1 hr 19 min 36 sec) 
Heartbeat CPU 0 instructions: 136000000 cycles: 150949102 heartbeat IPC: 0.667711 cumulative IPC: 0.686504 (Simulation time: 1 hr 19 min 59 sec) 
Heartbeat CPU 0 instructions: 137000002 cycles: 152435765 heartbeat IPC: 0.672649 cumulative IPC: 0.686341 (Simulation time: 1 hr 20 min 21 sec) 
Heartbeat CPU 0 instructions: 138000001 cycles: 153920567 heartbeat IPC: 0.67349 cumulative IPC: 0.686192 (Simulation time: 1 hr 20 min 42 sec) 
Heartbeat CPU 0 instructions: 139000001 cycles: 155404262 heartbeat IPC: 0.673993 cumulative IPC: 0.686053 (Simulation time: 1 hr 21 min 2 sec) 
Heartbeat CPU 0 instructions: 140000000 cycles: 156890255 heartbeat IPC: 0.67295 cumulative IPC: 0.685904 (Simulation time: 1 hr 21 min 22 sec) 
Heartbeat CPU 0 instructions: 141000002 cycles: 158386382 heartbeat IPC: 0.668394 cumulative IPC: 0.685707 (Simulation time: 1 hr 21 min 42 sec) 
Heartbeat CPU 0 instructions: 142000000 cycles: 159881464 heartbeat IPC: 0.668858 cumulative IPC: 0.685519 (Simulation time: 1 hr 22 min 2 sec) 
Heartbeat CPU 0 instructions: 143000000 cycles: 161375874 heartbeat IPC: 0.66916 cumulative IPC: 0.685339 (Simulation time: 1 hr 22 min 20 sec) 
Heartbeat CPU 0 instructions: 144000000 cycles: 162870673 heartbeat IPC: 0.668986 cumulative IPC: 0.685161 (Simulation time: 1 hr 22 min 41 sec) 
Heartbeat CPU 0 instructions: 145000000 cycles: 164366917 heartbeat IPC: 0.66834 cumulative IPC: 0.684979 (Simulation time: 1 hr 23 min 2 sec) 
Heartbeat CPU 0 instructions: 146000000 cycles: 165858759 heartbeat IPC: 0.670312 cumulative IPC: 0.684823 (Simulation time: 1 hr 23 min 20 sec) 
Heartbeat CPU 0 instructions: 147000003 cycles: 167341602 heartbeat IPC: 0.674382 cumulative IPC: 0.684714 (Simulation time: 1 hr 23 min 38 sec) 
Heartbeat CPU 0 instructions: 148000000 cycles: 168825734 heartbeat IPC: 0.673792 cumulative IPC: 0.684601 (Simulation time: 1 hr 23 min 55 sec) 
Heartbeat CPU 0 instructions: 149000002 cycles: 170309218 heartbeat IPC: 0.67409 cumulative IPC: 0.684493 (Simulation time: 1 hr 24 min 11 sec) 
Heartbeat CPU 0 instructions: 150000001 cycles: 171802749 heartbeat IPC: 0.669554 cumulative IPC: 0.68434 (Simulation time: 1 hr 24 min 27 sec) 
Finished CPU 0 instructions: 100000001 cycles: 146126109 cummulative IPC: 0.68434 (Simulation time: 1 hr 24 min 27 sec) 

ChampSim completed all CPUs

Region of Interest Statistics

CPU 0 cummulative IPC: 0.68434 instructions: 100000001 cycles: 146126109
LLC TOTAL     ACCESS:     644664  HIT:     138047  MISS:     506617
LLC LOAD      ACCESS:      35679  HIT:      11618  MISS:      24061
LLC RFO       ACCESS:     120254  HIT:       1524  MISS:     118730
LLC PREFETCH  ACCESS:     306107  HIT:      55849  MISS:     250258
LLC WRITEBACK ACCESS:     182624  HIT:      69056  MISS:     113568
OPTgen accesses: 5898
OPTgen hits: 1978
OPTgen hit rate: 33.5368


