
*** ChampSim Multicore Out-of-Order Simulator ***

Warmup Instructions: 50000000
Simulation Instructions: 100000000
Configuration: 2
Number of CPUs: 1
LLC sets: 2048
LLC ways: 16
Off-chip DRAM Channels: 1 Width: 64-bit Data Rate: 1600 MT/s

CPU 0 runs /datasets/cs240c-wi22-a00-public/data/Assignment2-gz/calculix_3812B.trace.gz
CPU 0 L1D next line prefetcher
CPU 0 L2C IP-based stride prefetcher
Initialize Hawkeye state
Heartbeat CPU 0 instructions: 1000001 cycles: 478689 heartbeat IPC: 2.08904 cumulative IPC: 2.08904 (Simulation time: 0 hr 0 min 47 sec) 
Heartbeat CPU 0 instructions: 2000002 cycles: 956483 heartbeat IPC: 2.09295 cumulative IPC: 2.091 (Simulation time: 0 hr 1 min 31 sec) 
Heartbeat CPU 0 instructions: 3000002 cycles: 1434999 heartbeat IPC: 2.08979 cumulative IPC: 2.0906 (Simulation time: 0 hr 2 min 11 sec) 
Heartbeat CPU 0 instructions: 4000000 cycles: 1907482 heartbeat IPC: 2.11647 cumulative IPC: 2.09701 (Simulation time: 0 hr 2 min 57 sec) 
Heartbeat CPU 0 instructions: 5000000 cycles: 2356307 heartbeat IPC: 2.22804 cumulative IPC: 2.12196 (Simulation time: 0 hr 3 min 32 sec) 
Heartbeat CPU 0 instructions: 6000003 cycles: 2761688 heartbeat IPC: 2.46682 cumulative IPC: 2.17259 (Simulation time: 0 hr 4 min 3 sec) 
Heartbeat CPU 0 instructions: 7000002 cycles: 3154798 heartbeat IPC: 2.54381 cumulative IPC: 2.21884 (Simulation time: 0 hr 4 min 31 sec) 
Heartbeat CPU 0 instructions: 8000000 cycles: 3547939 heartbeat IPC: 2.54361 cumulative IPC: 2.25483 (Simulation time: 0 hr 5 min 2 sec) 
Heartbeat CPU 0 instructions: 9000000 cycles: 3940928 heartbeat IPC: 2.5446 cumulative IPC: 2.28373 (Simulation time: 0 hr 5 min 33 sec) 
Heartbeat CPU 0 instructions: 10000003 cycles: 4334017 heartbeat IPC: 2.54396 cumulative IPC: 2.30733 (Simulation time: 0 hr 6 min 3 sec) 
Heartbeat CPU 0 instructions: 11000000 cycles: 4726964 heartbeat IPC: 2.54486 cumulative IPC: 2.32708 (Simulation time: 0 hr 6 min 31 sec) 
Heartbeat CPU 0 instructions: 12000000 cycles: 5120150 heartbeat IPC: 2.54333 cumulative IPC: 2.34368 (Simulation time: 0 hr 6 min 58 sec) 
Heartbeat CPU 0 instructions: 13000003 cycles: 5513237 heartbeat IPC: 2.54397 cumulative IPC: 2.35796 (Simulation time: 0 hr 7 min 27 sec) 
Heartbeat CPU 0 instructions: 14000001 cycles: 5942143 heartbeat IPC: 2.33151 cumulative IPC: 2.35605 (Simulation time: 0 hr 8 min 9 sec) 
Heartbeat CPU 0 instructions: 15000000 cycles: 6335382 heartbeat IPC: 2.54298 cumulative IPC: 2.36766 (Simulation time: 0 hr 8 min 37 sec) 
Heartbeat CPU 0 instructions: 16000000 cycles: 6728574 heartbeat IPC: 2.54329 cumulative IPC: 2.37792 (Simulation time: 0 hr 9 min 8 sec) 
Heartbeat CPU 0 instructions: 17000002 cycles: 7121750 heartbeat IPC: 2.5434 cumulative IPC: 2.38705 (Simulation time: 0 hr 9 min 39 sec) 
Heartbeat CPU 0 instructions: 18000001 cycles: 7515077 heartbeat IPC: 2.54241 cumulative IPC: 2.39519 (Simulation time: 0 hr 10 min 8 sec) 
Heartbeat CPU 0 instructions: 19000001 cycles: 7908294 heartbeat IPC: 2.54313 cumulative IPC: 2.40254 (Simulation time: 0 hr 10 min 35 sec) 
Heartbeat CPU 0 instructions: 20000000 cycles: 8301268 heartbeat IPC: 2.5447 cumulative IPC: 2.40927 (Simulation time: 0 hr 10 min 59 sec) 
Heartbeat CPU 0 instructions: 21000000 cycles: 8694479 heartbeat IPC: 2.54316 cumulative IPC: 2.41533 (Simulation time: 0 hr 11 min 28 sec) 
Heartbeat CPU 0 instructions: 22000003 cycles: 9087728 heartbeat IPC: 2.54293 cumulative IPC: 2.42085 (Simulation time: 0 hr 11 min 54 sec) 
Heartbeat CPU 0 instructions: 23000002 cycles: 9480995 heartbeat IPC: 2.5428 cumulative IPC: 2.42591 (Simulation time: 0 hr 12 min 23 sec) 
Heartbeat CPU 0 instructions: 24000000 cycles: 9874253 heartbeat IPC: 2.54285 cumulative IPC: 2.43056 (Simulation time: 0 hr 12 min 55 sec) 
Heartbeat CPU 0 instructions: 25000003 cycles: 10262723 heartbeat IPC: 2.57421 cumulative IPC: 2.436 (Simulation time: 0 hr 13 min 25 sec) 
Heartbeat CPU 0 instructions: 26000003 cycles: 10649332 heartbeat IPC: 2.58659 cumulative IPC: 2.44147 (Simulation time: 0 hr 13 min 58 sec) 
Heartbeat CPU 0 instructions: 27000000 cycles: 11035434 heartbeat IPC: 2.58998 cumulative IPC: 2.44666 (Simulation time: 0 hr 14 min 30 sec) 
Heartbeat CPU 0 instructions: 28000000 cycles: 11422756 heartbeat IPC: 2.58183 cumulative IPC: 2.45125 (Simulation time: 0 hr 15 min 9 sec) 
Heartbeat CPU 0 instructions: 29000003 cycles: 11815304 heartbeat IPC: 2.54747 cumulative IPC: 2.45444 (Simulation time: 0 hr 15 min 39 sec) 
Heartbeat CPU 0 instructions: 30000001 cycles: 12202094 heartbeat IPC: 2.58538 cumulative IPC: 2.45859 (Simulation time: 0 hr 16 min 11 sec) 
Heartbeat CPU 0 instructions: 31000001 cycles: 12567509 heartbeat IPC: 2.73661 cumulative IPC: 2.46668 (Simulation time: 0 hr 16 min 48 sec) 
Heartbeat CPU 0 instructions: 32000000 cycles: 13033830 heartbeat IPC: 2.14444 cumulative IPC: 2.45515 (Simulation time: 0 hr 17 min 37 sec) 
Heartbeat CPU 0 instructions: 33000003 cycles: 13513411 heartbeat IPC: 2.08516 cumulative IPC: 2.44202 (Simulation time: 0 hr 18 min 25 sec) 
Heartbeat CPU 0 instructions: 34000000 cycles: 13993161 heartbeat IPC: 2.08441 cumulative IPC: 2.42976 (Simulation time: 0 hr 19 min 1 sec) 
Heartbeat CPU 0 instructions: 35000000 cycles: 14471852 heartbeat IPC: 2.08903 cumulative IPC: 2.41849 (Simulation time: 0 hr 19 min 45 sec) 
Heartbeat CPU 0 instructions: 36000000 cycles: 14948720 heartbeat IPC: 2.09702 cumulative IPC: 2.40823 (Simulation time: 0 hr 20 min 25 sec) 
Heartbeat CPU 0 instructions: 37000003 cycles: 15427171 heartbeat IPC: 2.09008 cumulative IPC: 2.39837 (Simulation time: 0 hr 21 min 2 sec) 
Heartbeat CPU 0 instructions: 38000003 cycles: 15900976 heartbeat IPC: 2.11057 cumulative IPC: 2.38979 (Simulation time: 0 hr 21 min 41 sec) 
Heartbeat CPU 0 instructions: 39000001 cycles: 16324328 heartbeat IPC: 2.3621 cumulative IPC: 2.38907 (Simulation time: 0 hr 22 min 22 sec) 
Heartbeat CPU 0 instructions: 40000000 cycles: 16759419 heartbeat IPC: 2.29837 cumulative IPC: 2.38672 (Simulation time: 0 hr 23 min 4 sec) 
Heartbeat CPU 0 instructions: 41000002 cycles: 17202702 heartbeat IPC: 2.2559 cumulative IPC: 2.38335 (Simulation time: 0 hr 23 min 44 sec) 
Heartbeat CPU 0 instructions: 42000003 cycles: 17578922 heartbeat IPC: 2.65802 cumulative IPC: 2.38923 (Simulation time: 0 hr 24 min 18 sec) 
Heartbeat CPU 0 instructions: 43000000 cycles: 17974086 heartbeat IPC: 2.53059 cumulative IPC: 2.39233 (Simulation time: 0 hr 24 min 57 sec) 
Heartbeat CPU 0 instructions: 44000000 cycles: 18451873 heartbeat IPC: 2.09298 cumulative IPC: 2.38458 (Simulation time: 0 hr 25 min 42 sec) 
Heartbeat CPU 0 instructions: 45000002 cycles: 18927212 heartbeat IPC: 2.10377 cumulative IPC: 2.37753 (Simulation time: 0 hr 26 min 24 sec) 
Heartbeat CPU 0 instructions: 46000002 cycles: 19405116 heartbeat IPC: 2.09247 cumulative IPC: 2.37051 (Simulation time: 0 hr 27 min 7 sec) 
Heartbeat CPU 0 instructions: 47000002 cycles: 19841085 heartbeat IPC: 2.29374 cumulative IPC: 2.36882 (Simulation time: 0 hr 27 min 46 sec) 
Heartbeat CPU 0 instructions: 48000000 cycles: 20234999 heartbeat IPC: 2.53862 cumulative IPC: 2.37213 (Simulation time: 0 hr 28 min 18 sec) 
Heartbeat CPU 0 instructions: 49000001 cycles: 20628492 heartbeat IPC: 2.54134 cumulative IPC: 2.37536 (Simulation time: 0 hr 28 min 49 sec) 
Heartbeat CPU 0 instructions: 50000000 cycles: 21023588 heartbeat IPC: 2.53103 cumulative IPC: 2.37828 (Simulation time: 0 hr 29 min 23 sec) 

Warmup complete CPU 0 instructions: 50000004 cycles: 21023589 (Simulation time: 0 hr 29 min 23 sec) 

Heartbeat CPU 0 instructions: 51000000 cycles: 21625016 heartbeat IPC: 1.66271 cumulative IPC: 1.66271 (Simulation time: 0 hr 30 min 6 sec) 
Heartbeat CPU 0 instructions: 52000000 cycles: 22210956 heartbeat IPC: 1.70666 cumulative IPC: 1.6844 (Simulation time: 0 hr 30 min 47 sec) 
Heartbeat CPU 0 instructions: 53000000 cycles: 22671137 heartbeat IPC: 2.17306 cumulative IPC: 1.82089 (Simulation time: 0 hr 31 min 13 sec) 
Heartbeat CPU 0 instructions: 54000003 cycles: 23117454 heartbeat IPC: 2.24057 cumulative IPC: 1.91034 (Simulation time: 0 hr 31 min 46 sec) 
Heartbeat CPU 0 instructions: 55000001 cycles: 23556986 heartbeat IPC: 2.27514 cumulative IPC: 1.97363 (Simulation time: 0 hr 32 min 22 sec) 
Heartbeat CPU 0 instructions: 56000000 cycles: 23996846 heartbeat IPC: 2.27345 cumulative IPC: 2.01799 (Simulation time: 0 hr 33 min 0 sec) 
Heartbeat CPU 0 instructions: 57000003 cycles: 24437487 heartbeat IPC: 2.26943 cumulative IPC: 2.05044 (Simulation time: 0 hr 33 min 37 sec) 
Heartbeat CPU 0 instructions: 58000002 cycles: 24899416 heartbeat IPC: 2.16483 cumulative IPC: 2.06407 (Simulation time: 0 hr 34 min 16 sec) 
Heartbeat CPU 0 instructions: 59000001 cycles: 25482416 heartbeat IPC: 1.71526 cumulative IPC: 2.01847 (Simulation time: 0 hr 34 min 52 sec) 
Heartbeat CPU 0 instructions: 60000000 cycles: 25918839 heartbeat IPC: 2.29135 cumulative IPC: 2.0428 (Simulation time: 0 hr 35 min 26 sec) 
Heartbeat CPU 0 instructions: 61000003 cycles: 26356522 heartbeat IPC: 2.28477 cumulative IPC: 2.06265 (Simulation time: 0 hr 36 min 0 sec) 
Heartbeat CPU 0 instructions: 62000002 cycles: 26793574 heartbeat IPC: 2.28805 cumulative IPC: 2.07973 (Simulation time: 0 hr 36 min 36 sec) 
Heartbeat CPU 0 instructions: 63000003 cycles: 27231693 heartbeat IPC: 2.28249 cumulative IPC: 2.09404 (Simulation time: 0 hr 37 min 13 sec) 
Heartbeat CPU 0 instructions: 64000000 cycles: 27669200 heartbeat IPC: 2.28567 cumulative IPC: 2.10665 (Simulation time: 0 hr 37 min 51 sec) 
Heartbeat CPU 0 instructions: 65000000 cycles: 28298716 heartbeat IPC: 1.58852 cumulative IPC: 2.06182 (Simulation time: 0 hr 38 min 27 sec) 
Heartbeat CPU 0 instructions: 66000002 cycles: 28859030 heartbeat IPC: 1.78472 cumulative IPC: 2.042 (Simulation time: 0 hr 39 min 3 sec) 
Heartbeat CPU 0 instructions: 67000002 cycles: 29296836 heartbeat IPC: 2.28412 cumulative IPC: 2.05482 (Simulation time: 0 hr 39 min 32 sec) 
Heartbeat CPU 0 instructions: 68000000 cycles: 29733240 heartbeat IPC: 2.29145 cumulative IPC: 2.06667 (Simulation time: 0 hr 40 min 1 sec) 
Heartbeat CPU 0 instructions: 69000001 cycles: 30285908 heartbeat IPC: 1.80941 cumulative IPC: 2.05132 (Simulation time: 0 hr 40 min 35 sec) 
Heartbeat CPU 0 instructions: 70000000 cycles: 30724437 heartbeat IPC: 2.28035 cumulative IPC: 2.06168 (Simulation time: 0 hr 41 min 10 sec) 
Heartbeat CPU 0 instructions: 71000000 cycles: 31164925 heartbeat IPC: 2.27021 cumulative IPC: 2.07073 (Simulation time: 0 hr 41 min 39 sec) 
Heartbeat CPU 0 instructions: 72000000 cycles: 31646891 heartbeat IPC: 2.07484 cumulative IPC: 2.07092 (Simulation time: 0 hr 42 min 11 sec) 
Heartbeat CPU 0 instructions: 73000001 cycles: 32209603 heartbeat IPC: 1.77711 cumulative IPC: 2.05614 (Simulation time: 0 hr 42 min 48 sec) 
Heartbeat CPU 0 instructions: 74000002 cycles: 32851932 heartbeat IPC: 1.55684 cumulative IPC: 2.02902 (Simulation time: 0 hr 43 min 26 sec) 
Heartbeat CPU 0 instructions: 75000000 cycles: 33399319 heartbeat IPC: 1.82686 cumulative IPC: 2.02008 (Simulation time: 0 hr 44 min 6 sec) 
Heartbeat CPU 0 instructions: 76000000 cycles: 34144941 heartbeat IPC: 1.34116 cumulative IPC: 1.9815 (Simulation time: 0 hr 44 min 44 sec) 
Heartbeat CPU 0 instructions: 77000000 cycles: 34865904 heartbeat IPC: 1.38703 cumulative IPC: 1.95054 (Simulation time: 0 hr 45 min 28 sec) 
Heartbeat CPU 0 instructions: 78000003 cycles: 35584680 heartbeat IPC: 1.39126 cumulative IPC: 1.92293 (Simulation time: 0 hr 46 min 9 sec) 
Heartbeat CPU 0 instructions: 79000000 cycles: 36295581 heartbeat IPC: 1.40666 cumulative IPC: 1.8989 (Simulation time: 0 hr 46 min 52 sec) 
Heartbeat CPU 0 instructions: 80000000 cycles: 36980663 heartbeat IPC: 1.45968 cumulative IPC: 1.88004 (Simulation time: 0 hr 47 min 40 sec) 
Heartbeat CPU 0 instructions: 81000001 cycles: 37644995 heartbeat IPC: 1.50527 cumulative IPC: 1.86506 (Simulation time: 0 hr 48 min 24 sec) 
Heartbeat CPU 0 instructions: 82000002 cycles: 38287953 heartbeat IPC: 1.55531 cumulative IPC: 1.85353 (Simulation time: 0 hr 49 min 2 sec) 
Heartbeat CPU 0 instructions: 83000002 cycles: 39142785 heartbeat IPC: 1.16982 cumulative IPC: 1.82127 (Simulation time: 0 hr 49 min 37 sec) 
Heartbeat CPU 0 instructions: 84000000 cycles: 39733385 heartbeat IPC: 1.69319 cumulative IPC: 1.81723 (Simulation time: 0 hr 50 min 8 sec) 
Heartbeat CPU 0 instructions: 85000000 cycles: 40188833 heartbeat IPC: 2.19564 cumulative IPC: 1.82622 (Simulation time: 0 hr 50 min 36 sec) 
Heartbeat CPU 0 instructions: 86000001 cycles: 40641429 heartbeat IPC: 2.20948 cumulative IPC: 1.83506 (Simulation time: 0 hr 51 min 2 sec) 
Heartbeat CPU 0 instructions: 87000002 cycles: 41097070 heartbeat IPC: 2.19471 cumulative IPC: 1.84323 (Simulation time: 0 hr 51 min 30 sec) 
Heartbeat CPU 0 instructions: 88000000 cycles: 41548467 heartbeat IPC: 2.21534 cumulative IPC: 1.85141 (Simulation time: 0 hr 51 min 58 sec) 
Heartbeat CPU 0 instructions: 89000003 cycles: 41998012 heartbeat IPC: 2.22448 cumulative IPC: 1.85941 (Simulation time: 0 hr 52 min 24 sec) 
Heartbeat CPU 0 instructions: 90000003 cycles: 42447985 heartbeat IPC: 2.22236 cumulative IPC: 1.86703 (Simulation time: 0 hr 52 min 53 sec) 
Heartbeat CPU 0 instructions: 91000003 cycles: 42914762 heartbeat IPC: 2.14235 cumulative IPC: 1.8729 (Simulation time: 0 hr 53 min 19 sec) 
Heartbeat CPU 0 instructions: 92000000 cycles: 43413242 heartbeat IPC: 2.00609 cumulative IPC: 1.87587 (Simulation time: 0 hr 53 min 47 sec) 
Heartbeat CPU 0 instructions: 93000000 cycles: 43859135 heartbeat IPC: 2.24269 cumulative IPC: 1.88303 (Simulation time: 0 hr 54 min 13 sec) 
Heartbeat CPU 0 instructions: 94000003 cycles: 44304275 heartbeat IPC: 2.24649 cumulative IPC: 1.88998 (Simulation time: 0 hr 54 min 41 sec) 
Heartbeat CPU 0 instructions: 95000001 cycles: 44933546 heartbeat IPC: 1.58914 cumulative IPC: 1.88206 (Simulation time: 0 hr 55 min 13 sec) 
Heartbeat CPU 0 instructions: 96000000 cycles: 45537175 heartbeat IPC: 1.65665 cumulative IPC: 1.87651 (Simulation time: 0 hr 55 min 41 sec) 
Heartbeat CPU 0 instructions: 97000000 cycles: 46006670 heartbeat IPC: 2.12995 cumulative IPC: 1.88127 (Simulation time: 0 hr 56 min 9 sec) 
Heartbeat CPU 0 instructions: 98000003 cycles: 46446910 heartbeat IPC: 2.2715 cumulative IPC: 1.88803 (Simulation time: 0 hr 56 min 35 sec) 
Heartbeat CPU 0 instructions: 99000000 cycles: 46886556 heartbeat IPC: 2.27455 cumulative IPC: 1.8946 (Simulation time: 0 hr 57 min 1 sec) 
Heartbeat CPU 0 instructions: 100000000 cycles: 47326821 heartbeat IPC: 2.27136 cumulative IPC: 1.90091 (Simulation time: 0 hr 57 min 26 sec) 
Heartbeat CPU 0 instructions: 101000003 cycles: 47766405 heartbeat IPC: 2.27488 cumulative IPC: 1.90705 (Simulation time: 0 hr 57 min 53 sec) 
Heartbeat CPU 0 instructions: 102000002 cycles: 48313642 heartbeat IPC: 1.82736 cumulative IPC: 1.90546 (Simulation time: 0 hr 58 min 22 sec) 
Heartbeat CPU 0 instructions: 103000000 cycles: 48756948 heartbeat IPC: 2.25577 cumulative IPC: 1.91106 (Simulation time: 0 hr 58 min 52 sec) 
Heartbeat CPU 0 instructions: 104000000 cycles: 49194715 heartbeat IPC: 2.28432 cumulative IPC: 1.91686 (Simulation time: 0 hr 59 min 19 sec) 
Heartbeat CPU 0 instructions: 105000000 cycles: 49632141 heartbeat IPC: 2.2861 cumulative IPC: 1.9225 (Simulation time: 0 hr 59 min 46 sec) 
Heartbeat CPU 0 instructions: 106000003 cycles: 50069227 heartbeat IPC: 2.28789 cumulative IPC: 1.928 (Simulation time: 1 hr 0 min 11 sec) 
Heartbeat CPU 0 instructions: 107000003 cycles: 50507188 heartbeat IPC: 2.28331 cumulative IPC: 1.93328 (Simulation time: 1 hr 0 min 38 sec) 
Heartbeat CPU 0 instructions: 108000000 cycles: 51020057 heartbeat IPC: 1.94981 cumulative IPC: 1.93356 (Simulation time: 1 hr 1 min 5 sec) 
Heartbeat CPU 0 instructions: 109000002 cycles: 51666098 heartbeat IPC: 1.54789 cumulative IPC: 1.92543 (Simulation time: 1 hr 1 min 34 sec) 
Heartbeat CPU 0 instructions: 110000003 cycles: 52100809 heartbeat IPC: 2.30038 cumulative IPC: 1.93067 (Simulation time: 1 hr 2 min 0 sec) 
Heartbeat CPU 0 instructions: 111000001 cycles: 52536562 heartbeat IPC: 2.29487 cumulative IPC: 1.93571 (Simulation time: 1 hr 2 min 30 sec) 
Heartbeat CPU 0 instructions: 112000000 cycles: 53023976 heartbeat IPC: 2.05164 cumulative IPC: 1.93748 (Simulation time: 1 hr 2 min 58 sec) 
Heartbeat CPU 0 instructions: 113000003 cycles: 53495325 heartbeat IPC: 2.12158 cumulative IPC: 1.94015 (Simulation time: 1 hr 3 min 26 sec) 
Heartbeat CPU 0 instructions: 114000003 cycles: 53932220 heartbeat IPC: 2.28888 cumulative IPC: 1.94478 (Simulation time: 1 hr 3 min 51 sec) 
Heartbeat CPU 0 instructions: 115000002 cycles: 54367422 heartbeat IPC: 2.29778 cumulative IPC: 1.94939 (Simulation time: 1 hr 4 min 14 sec) 
Heartbeat CPU 0 instructions: 116000000 cycles: 54870012 heartbeat IPC: 1.98969 cumulative IPC: 1.94998 (Simulation time: 1 hr 4 min 42 sec) 
Heartbeat CPU 0 instructions: 117000000 cycles: 55425995 heartbeat IPC: 1.79862 cumulative IPC: 1.94754 (Simulation time: 1 hr 5 min 7 sec) 
Heartbeat CPU 0 instructions: 118000001 cycles: 56053590 heartbeat IPC: 1.59339 cumulative IPC: 1.94119 (Simulation time: 1 hr 5 min 33 sec) 
Heartbeat CPU 0 instructions: 119000003 cycles: 56796851 heartbeat IPC: 1.34543 cumulative IPC: 1.92881 (Simulation time: 1 hr 6 min 3 sec) 
Heartbeat CPU 0 instructions: 120000000 cycles: 57513834 heartbeat IPC: 1.39473 cumulative IPC: 1.91832 (Simulation time: 1 hr 6 min 32 sec) 
Heartbeat CPU 0 instructions: 121000001 cycles: 58228819 heartbeat IPC: 1.39863 cumulative IPC: 1.90833 (Simulation time: 1 hr 7 min 1 sec) 
Heartbeat CPU 0 instructions: 122000002 cycles: 58934638 heartbeat IPC: 1.4168 cumulative IPC: 1.89918 (Simulation time: 1 hr 7 min 36 sec) 
Heartbeat CPU 0 instructions: 123000002 cycles: 59617084 heartbeat IPC: 1.46532 cumulative IPC: 1.89151 (Simulation time: 1 hr 8 min 4 sec) 
Heartbeat CPU 0 instructions: 124000000 cycles: 60280587 heartbeat IPC: 1.50715 cumulative IPC: 1.88501 (Simulation time: 1 hr 8 min 32 sec) 
Heartbeat CPU 0 instructions: 125000002 cycles: 60928745 heartbeat IPC: 1.54284 cumulative IPC: 1.87946 (Simulation time: 1 hr 9 min 1 sec) 
Heartbeat CPU 0 instructions: 126000001 cycles: 61859349 heartbeat IPC: 1.07457 cumulative IPC: 1.86111 (Simulation time: 1 hr 9 min 32 sec) 
Heartbeat CPU 0 instructions: 127000003 cycles: 62437007 heartbeat IPC: 1.73113 cumulative IPC: 1.8593 (Simulation time: 1 hr 9 min 58 sec) 
Heartbeat CPU 0 instructions: 128000000 cycles: 62897816 heartbeat IPC: 2.17009 cumulative IPC: 1.86272 (Simulation time: 1 hr 10 min 21 sec) 
Heartbeat CPU 0 instructions: 129000002 cycles: 63350528 heartbeat IPC: 2.20891 cumulative IPC: 1.86642 (Simulation time: 1 hr 10 min 44 sec) 
Heartbeat CPU 0 instructions: 130000001 cycles: 63799155 heartbeat IPC: 2.22902 cumulative IPC: 1.87023 (Simulation time: 1 hr 11 min 6 sec) 
Heartbeat CPU 0 instructions: 131000000 cycles: 64247606 heartbeat IPC: 2.2299 cumulative IPC: 1.87396 (Simulation time: 1 hr 11 min 27 sec) 
Heartbeat CPU 0 instructions: 132000000 cycles: 64701199 heartbeat IPC: 2.20462 cumulative IPC: 1.87739 (Simulation time: 1 hr 11 min 51 sec) 
Heartbeat CPU 0 instructions: 133000000 cycles: 65156734 heartbeat IPC: 2.19522 cumulative IPC: 1.88067 (Simulation time: 1 hr 12 min 12 sec) 
Heartbeat CPU 0 instructions: 134000000 cycles: 65688365 heartbeat IPC: 1.881 cumulative IPC: 1.88068 (Simulation time: 1 hr 12 min 34 sec) 
Heartbeat CPU 0 instructions: 135000003 cycles: 66196621 heartbeat IPC: 1.96752 cumulative IPC: 1.88165 (Simulation time: 1 hr 12 min 55 sec) 
Heartbeat CPU 0 instructions: 136000000 cycles: 66648496 heartbeat IPC: 2.21299 cumulative IPC: 1.88494 (Simulation time: 1 hr 13 min 15 sec) 
Heartbeat CPU 0 instructions: 137000002 cycles: 67100190 heartbeat IPC: 2.21389 cumulative IPC: 1.88816 (Simulation time: 1 hr 13 min 37 sec) 
Heartbeat CPU 0 instructions: 138000002 cycles: 67553168 heartbeat IPC: 2.20761 cumulative IPC: 1.89127 (Simulation time: 1 hr 13 min 58 sec) 
Heartbeat CPU 0 instructions: 139000000 cycles: 68009679 heartbeat IPC: 2.19052 cumulative IPC: 1.89418 (Simulation time: 1 hr 14 min 17 sec) 
Heartbeat CPU 0 instructions: 140000000 cycles: 68461374 heartbeat IPC: 2.21388 cumulative IPC: 1.89722 (Simulation time: 1 hr 14 min 36 sec) 
Heartbeat CPU 0 instructions: 141000000 cycles: 68914318 heartbeat IPC: 2.20778 cumulative IPC: 1.90016 (Simulation time: 1 hr 14 min 54 sec) 
Heartbeat CPU 0 instructions: 142000003 cycles: 69429108 heartbeat IPC: 1.94255 cumulative IPC: 1.90061 (Simulation time: 1 hr 15 min 11 sec) 
Heartbeat CPU 0 instructions: 143000002 cycles: 69872772 heartbeat IPC: 2.25396 cumulative IPC: 1.90382 (Simulation time: 1 hr 15 min 26 sec) 
Heartbeat CPU 0 instructions: 144000000 cycles: 70323867 heartbeat IPC: 2.21682 cumulative IPC: 1.90668 (Simulation time: 1 hr 15 min 41 sec) 
Heartbeat CPU 0 instructions: 145000001 cycles: 70981861 heartbeat IPC: 1.51977 cumulative IPC: 1.90159 (Simulation time: 1 hr 15 min 59 sec) 
Heartbeat CPU 0 instructions: 146000003 cycles: 71597500 heartbeat IPC: 1.62433 cumulative IPC: 1.89821 (Simulation time: 1 hr 16 min 16 sec) 
Heartbeat CPU 0 instructions: 147000002 cycles: 72049084 heartbeat IPC: 2.21443 cumulative IPC: 1.90101 (Simulation time: 1 hr 16 min 33 sec) 
Heartbeat CPU 0 instructions: 148000000 cycles: 72486729 heartbeat IPC: 2.28495 cumulative IPC: 1.90428 (Simulation time: 1 hr 16 min 48 sec) 
Heartbeat CPU 0 instructions: 149000002 cycles: 72926276 heartbeat IPC: 2.27507 cumulative IPC: 1.90742 (Simulation time: 1 hr 17 min 2 sec) 
Heartbeat CPU 0 instructions: 150000003 cycles: 73365396 heartbeat IPC: 2.27728 cumulative IPC: 1.91052 (Simulation time: 1 hr 17 min 16 sec) 
Finished CPU 0 instructions: 100000003 cycles: 52341808 cummulative IPC: 1.91052 (Simulation time: 1 hr 17 min 16 sec) 

ChampSim completed all CPUs

Region of Interest Statistics

CPU 0 cummulative IPC: 1.91052 instructions: 100000003 cycles: 52341808
LLC TOTAL     ACCESS:    1256077  HIT:    1164026  MISS:      92051
LLC LOAD      ACCESS:     149583  HIT:     140230  MISS:       9353
LLC RFO       ACCESS:      37524  HIT:      12807  MISS:      24717
LLC PREFETCH  ACCESS:     776622  HIT:     725262  MISS:      51360
LLC WRITEBACK ACCESS:     292348  HIT:     285727  MISS:       6621
OPTgen accesses: 4737
OPTgen hits: 12855
OPTgen hit rate: 271.374


