
*** ChampSim Multicore Out-of-Order Simulator ***

Warmup Instructions: 50000000
Simulation Instructions: 100000000
Configuration: 2
Number of CPUs: 1
LLC sets: 2048
LLC ways: 16
Off-chip DRAM Channels: 1 Width: 64-bit Data Rate: 1600 MT/s

CPU 0 runs /datasets/cs240c-wi22-a00-public/data/Assignment2-gz/GemsFDTD_712B.trace.gz
CPU 0 L1D next line prefetcher
CPU 0 L2C IP-based stride prefetcher
Initialize Hawkeye state
Heartbeat CPU 0 instructions: 1000003 cycles: 634340 heartbeat IPC: 1.57645 cumulative IPC: 1.57645 (Simulation time: 0 hr 0 min 37 sec) 
Heartbeat CPU 0 instructions: 2000000 cycles: 1268289 heartbeat IPC: 1.57741 cumulative IPC: 1.57693 (Simulation time: 0 hr 1 min 13 sec) 
Heartbeat CPU 0 instructions: 3000000 cycles: 1902273 heartbeat IPC: 1.57733 cumulative IPC: 1.57706 (Simulation time: 0 hr 1 min 48 sec) 
Heartbeat CPU 0 instructions: 4000000 cycles: 2535976 heartbeat IPC: 1.57803 cumulative IPC: 1.5773 (Simulation time: 0 hr 2 min 25 sec) 
Heartbeat CPU 0 instructions: 5000003 cycles: 3170131 heartbeat IPC: 1.57691 cumulative IPC: 1.57722 (Simulation time: 0 hr 3 min 0 sec) 
Heartbeat CPU 0 instructions: 6000002 cycles: 3804028 heartbeat IPC: 1.57754 cumulative IPC: 1.57728 (Simulation time: 0 hr 3 min 33 sec) 
Heartbeat CPU 0 instructions: 7000001 cycles: 4438178 heartbeat IPC: 1.57691 cumulative IPC: 1.57722 (Simulation time: 0 hr 4 min 9 sec) 
Heartbeat CPU 0 instructions: 8000000 cycles: 5072006 heartbeat IPC: 1.57771 cumulative IPC: 1.57729 (Simulation time: 0 hr 4 min 46 sec) 
Heartbeat CPU 0 instructions: 9000001 cycles: 5706113 heartbeat IPC: 1.57702 cumulative IPC: 1.57726 (Simulation time: 0 hr 5 min 18 sec) 
Heartbeat CPU 0 instructions: 10000002 cycles: 6339882 heartbeat IPC: 1.57786 cumulative IPC: 1.57732 (Simulation time: 0 hr 5 min 50 sec) 
Heartbeat CPU 0 instructions: 11000002 cycles: 6973665 heartbeat IPC: 1.57783 cumulative IPC: 1.57736 (Simulation time: 0 hr 6 min 26 sec) 
Heartbeat CPU 0 instructions: 12000000 cycles: 7607627 heartbeat IPC: 1.57738 cumulative IPC: 1.57736 (Simulation time: 0 hr 7 min 2 sec) 
Heartbeat CPU 0 instructions: 13000000 cycles: 8241675 heartbeat IPC: 1.57717 cumulative IPC: 1.57735 (Simulation time: 0 hr 7 min 41 sec) 
Heartbeat CPU 0 instructions: 14000001 cycles: 8875819 heartbeat IPC: 1.57693 cumulative IPC: 1.57732 (Simulation time: 0 hr 8 min 21 sec) 
Heartbeat CPU 0 instructions: 15000001 cycles: 9509889 heartbeat IPC: 1.57711 cumulative IPC: 1.57731 (Simulation time: 0 hr 9 min 1 sec) 
Heartbeat CPU 0 instructions: 16000000 cycles: 10143689 heartbeat IPC: 1.57778 cumulative IPC: 1.57734 (Simulation time: 0 hr 9 min 35 sec) 
Heartbeat CPU 0 instructions: 17000000 cycles: 10777662 heartbeat IPC: 1.57735 cumulative IPC: 1.57734 (Simulation time: 0 hr 10 min 9 sec) 
Heartbeat CPU 0 instructions: 18000003 cycles: 11411516 heartbeat IPC: 1.57766 cumulative IPC: 1.57735 (Simulation time: 0 hr 10 min 44 sec) 
Heartbeat CPU 0 instructions: 19000000 cycles: 12045538 heartbeat IPC: 1.57723 cumulative IPC: 1.57735 (Simulation time: 0 hr 11 min 18 sec) 
Heartbeat CPU 0 instructions: 20000000 cycles: 12679582 heartbeat IPC: 1.57718 cumulative IPC: 1.57734 (Simulation time: 0 hr 11 min 51 sec) 
Heartbeat CPU 0 instructions: 21000002 cycles: 13313738 heartbeat IPC: 1.5769 cumulative IPC: 1.57732 (Simulation time: 0 hr 12 min 30 sec) 
Heartbeat CPU 0 instructions: 22000000 cycles: 13947561 heartbeat IPC: 1.57772 cumulative IPC: 1.57734 (Simulation time: 0 hr 13 min 9 sec) 
Heartbeat CPU 0 instructions: 23000002 cycles: 14581493 heartbeat IPC: 1.57746 cumulative IPC: 1.57734 (Simulation time: 0 hr 13 min 46 sec) 
Heartbeat CPU 0 instructions: 24000000 cycles: 15215397 heartbeat IPC: 1.57752 cumulative IPC: 1.57735 (Simulation time: 0 hr 14 min 22 sec) 
Heartbeat CPU 0 instructions: 25000000 cycles: 15849451 heartbeat IPC: 1.57715 cumulative IPC: 1.57734 (Simulation time: 0 hr 14 min 58 sec) 
Heartbeat CPU 0 instructions: 26000002 cycles: 16483541 heartbeat IPC: 1.57707 cumulative IPC: 1.57733 (Simulation time: 0 hr 15 min 33 sec) 
Heartbeat CPU 0 instructions: 27000002 cycles: 17117587 heartbeat IPC: 1.57717 cumulative IPC: 1.57733 (Simulation time: 0 hr 16 min 12 sec) 
Heartbeat CPU 0 instructions: 28000000 cycles: 17751480 heartbeat IPC: 1.57755 cumulative IPC: 1.57733 (Simulation time: 0 hr 16 min 49 sec) 
Heartbeat CPU 0 instructions: 29000001 cycles: 18385488 heartbeat IPC: 1.57727 cumulative IPC: 1.57733 (Simulation time: 0 hr 17 min 24 sec) 
Heartbeat CPU 0 instructions: 30000000 cycles: 19019308 heartbeat IPC: 1.57773 cumulative IPC: 1.57734 (Simulation time: 0 hr 17 min 58 sec) 
Heartbeat CPU 0 instructions: 31000001 cycles: 19653211 heartbeat IPC: 1.57753 cumulative IPC: 1.57735 (Simulation time: 0 hr 18 min 33 sec) 
Heartbeat CPU 0 instructions: 32000000 cycles: 20287222 heartbeat IPC: 1.57726 cumulative IPC: 1.57735 (Simulation time: 0 hr 19 min 9 sec) 
Heartbeat CPU 0 instructions: 33000003 cycles: 20921397 heartbeat IPC: 1.57686 cumulative IPC: 1.57733 (Simulation time: 0 hr 19 min 45 sec) 
Heartbeat CPU 0 instructions: 34000001 cycles: 21555312 heartbeat IPC: 1.5775 cumulative IPC: 1.57734 (Simulation time: 0 hr 20 min 21 sec) 
Heartbeat CPU 0 instructions: 35000002 cycles: 22189238 heartbeat IPC: 1.57747 cumulative IPC: 1.57734 (Simulation time: 0 hr 20 min 56 sec) 
Heartbeat CPU 0 instructions: 36000000 cycles: 22823001 heartbeat IPC: 1.57787 cumulative IPC: 1.57736 (Simulation time: 0 hr 21 min 34 sec) 
Heartbeat CPU 0 instructions: 37000000 cycles: 23456982 heartbeat IPC: 1.57733 cumulative IPC: 1.57736 (Simulation time: 0 hr 22 min 15 sec) 
Heartbeat CPU 0 instructions: 38000003 cycles: 24090886 heartbeat IPC: 1.57753 cumulative IPC: 1.57736 (Simulation time: 0 hr 22 min 51 sec) 
Heartbeat CPU 0 instructions: 39000001 cycles: 24725066 heartbeat IPC: 1.57684 cumulative IPC: 1.57735 (Simulation time: 0 hr 23 min 25 sec) 
Heartbeat CPU 0 instructions: 40000000 cycles: 25359108 heartbeat IPC: 1.57718 cumulative IPC: 1.57734 (Simulation time: 0 hr 24 min 4 sec) 
Heartbeat CPU 0 instructions: 41000003 cycles: 25993245 heartbeat IPC: 1.57695 cumulative IPC: 1.57733 (Simulation time: 0 hr 24 min 39 sec) 
Heartbeat CPU 0 instructions: 42000000 cycles: 26627011 heartbeat IPC: 1.57786 cumulative IPC: 1.57735 (Simulation time: 0 hr 25 min 15 sec) 
Heartbeat CPU 0 instructions: 43000002 cycles: 27260861 heartbeat IPC: 1.57766 cumulative IPC: 1.57735 (Simulation time: 0 hr 25 min 51 sec) 
Heartbeat CPU 0 instructions: 44000000 cycles: 27894797 heartbeat IPC: 1.57744 cumulative IPC: 1.57736 (Simulation time: 0 hr 26 min 27 sec) 
Heartbeat CPU 0 instructions: 45000003 cycles: 28528944 heartbeat IPC: 1.57693 cumulative IPC: 1.57735 (Simulation time: 0 hr 27 min 1 sec) 
Heartbeat CPU 0 instructions: 46000002 cycles: 29162908 heartbeat IPC: 1.57738 cumulative IPC: 1.57735 (Simulation time: 0 hr 27 min 35 sec) 
Heartbeat CPU 0 instructions: 47000001 cycles: 29796982 heartbeat IPC: 1.5771 cumulative IPC: 1.57734 (Simulation time: 0 hr 28 min 13 sec) 
Heartbeat CPU 0 instructions: 48000000 cycles: 30430652 heartbeat IPC: 1.57811 cumulative IPC: 1.57736 (Simulation time: 0 hr 28 min 49 sec) 
Heartbeat CPU 0 instructions: 49000001 cycles: 31064695 heartbeat IPC: 1.57718 cumulative IPC: 1.57735 (Simulation time: 0 hr 29 min 26 sec) 
Heartbeat CPU 0 instructions: 50000000 cycles: 31698525 heartbeat IPC: 1.57771 cumulative IPC: 1.57736 (Simulation time: 0 hr 30 min 2 sec) 

Warmup complete CPU 0 instructions: 50000004 cycles: 31698526 (Simulation time: 0 hr 30 min 2 sec) 

Heartbeat CPU 0 instructions: 51000002 cycles: 33316244 heartbeat IPC: 0.618156 cumulative IPC: 0.618153 (Simulation time: 0 hr 30 min 44 sec) 
Heartbeat CPU 0 instructions: 52000000 cycles: 34922442 heartbeat IPC: 0.622587 cumulative IPC: 0.620362 (Simulation time: 0 hr 31 min 24 sec) 
Heartbeat CPU 0 instructions: 53000000 cycles: 36563282 heartbeat IPC: 0.609444 cumulative IPC: 0.61668 (Simulation time: 0 hr 32 min 5 sec) 
Heartbeat CPU 0 instructions: 54000000 cycles: 38148598 heartbeat IPC: 0.630789 cumulative IPC: 0.620147 (Simulation time: 0 hr 32 min 52 sec) 
Heartbeat CPU 0 instructions: 55000003 cycles: 39734981 heartbeat IPC: 0.630367 cumulative IPC: 0.622165 (Simulation time: 0 hr 33 min 33 sec) 
Heartbeat CPU 0 instructions: 56000000 cycles: 41351803 heartbeat IPC: 0.618495 cumulative IPC: 0.62155 (Simulation time: 0 hr 34 min 19 sec) 
Heartbeat CPU 0 instructions: 57000000 cycles: 42999375 heartbeat IPC: 0.606954 cumulative IPC: 0.619422 (Simulation time: 0 hr 35 min 0 sec) 
Heartbeat CPU 0 instructions: 58000001 cycles: 44609382 heartbeat IPC: 0.621116 cumulative IPC: 0.619633 (Simulation time: 0 hr 35 min 42 sec) 
Heartbeat CPU 0 instructions: 59000001 cycles: 46224486 heartbeat IPC: 0.619155 cumulative IPC: 0.61958 (Simulation time: 0 hr 36 min 23 sec) 
Heartbeat CPU 0 instructions: 60000000 cycles: 47846901 heartbeat IPC: 0.616364 cumulative IPC: 0.619257 (Simulation time: 0 hr 37 min 5 sec) 
Heartbeat CPU 0 instructions: 61000001 cycles: 49428225 heartbeat IPC: 0.632382 cumulative IPC: 0.620428 (Simulation time: 0 hr 37 min 47 sec) 
Heartbeat CPU 0 instructions: 62000000 cycles: 51018397 heartbeat IPC: 0.628862 cumulative IPC: 0.621122 (Simulation time: 0 hr 38 min 30 sec) 
Heartbeat CPU 0 instructions: 63000003 cycles: 52634102 heartbeat IPC: 0.618927 cumulative IPC: 0.620953 (Simulation time: 0 hr 39 min 11 sec) 
Heartbeat CPU 0 instructions: 64000000 cycles: 54251268 heartbeat IPC: 0.618364 cumulative IPC: 0.620767 (Simulation time: 0 hr 39 min 51 sec) 
Heartbeat CPU 0 instructions: 65000003 cycles: 55878288 heartbeat IPC: 0.614622 cumulative IPC: 0.620353 (Simulation time: 0 hr 40 min 33 sec) 
Heartbeat CPU 0 instructions: 66000002 cycles: 57468322 heartbeat IPC: 0.628917 cumulative IPC: 0.620882 (Simulation time: 0 hr 41 min 15 sec) 
Heartbeat CPU 0 instructions: 67000000 cycles: 59066652 heartbeat IPC: 0.625652 cumulative IPC: 0.62116 (Simulation time: 0 hr 41 min 59 sec) 
Heartbeat CPU 0 instructions: 68000000 cycles: 60664983 heartbeat IPC: 0.625653 cumulative IPC: 0.621408 (Simulation time: 0 hr 42 min 39 sec) 
Heartbeat CPU 0 instructions: 69000000 cycles: 62244547 heartbeat IPC: 0.633086 cumulative IPC: 0.622012 (Simulation time: 0 hr 43 min 22 sec) 
Heartbeat CPU 0 instructions: 70000002 cycles: 63875342 heartbeat IPC: 0.613199 cumulative IPC: 0.621565 (Simulation time: 0 hr 44 min 9 sec) 
Heartbeat CPU 0 instructions: 71000002 cycles: 65541294 heartbeat IPC: 0.600257 cumulative IPC: 0.620517 (Simulation time: 0 hr 44 min 50 sec) 
Heartbeat CPU 0 instructions: 72000000 cycles: 67296319 heartbeat IPC: 0.569791 cumulative IPC: 0.618016 (Simulation time: 0 hr 45 min 38 sec) 
Heartbeat CPU 0 instructions: 73000000 cycles: 68962847 heartbeat IPC: 0.60005 cumulative IPC: 0.617212 (Simulation time: 0 hr 46 min 21 sec) 
Heartbeat CPU 0 instructions: 74000001 cycles: 70636233 heartbeat IPC: 0.597591 cumulative IPC: 0.616369 (Simulation time: 0 hr 47 min 5 sec) 
Heartbeat CPU 0 instructions: 75000003 cycles: 72297277 heartbeat IPC: 0.602032 cumulative IPC: 0.615782 (Simulation time: 0 hr 47 min 50 sec) 
Heartbeat CPU 0 instructions: 76000000 cycles: 73964002 heartbeat IPC: 0.599977 cumulative IPC: 0.615159 (Simulation time: 0 hr 48 min 36 sec) 
Heartbeat CPU 0 instructions: 77000000 cycles: 75643482 heartbeat IPC: 0.595422 cumulative IPC: 0.614405 (Simulation time: 0 hr 49 min 20 sec) 
Heartbeat CPU 0 instructions: 78000001 cycles: 77317074 heartbeat IPC: 0.597518 cumulative IPC: 0.613785 (Simulation time: 0 hr 50 min 3 sec) 
Heartbeat CPU 0 instructions: 79000003 cycles: 78999688 heartbeat IPC: 0.594315 cumulative IPC: 0.613093 (Simulation time: 0 hr 50 min 47 sec) 
Heartbeat CPU 0 instructions: 80000000 cycles: 80697777 heartbeat IPC: 0.588895 cumulative IPC: 0.612254 (Simulation time: 0 hr 51 min 30 sec) 
Heartbeat CPU 0 instructions: 81000001 cycles: 82391173 heartbeat IPC: 0.59053 cumulative IPC: 0.611528 (Simulation time: 0 hr 52 min 11 sec) 
Heartbeat CPU 0 instructions: 82000000 cycles: 84076842 heartbeat IPC: 0.593236 cumulative IPC: 0.61094 (Simulation time: 0 hr 52 min 54 sec) 
Heartbeat CPU 0 instructions: 83000001 cycles: 85754340 heartbeat IPC: 0.596126 cumulative IPC: 0.61048 (Simulation time: 0 hr 53 min 37 sec) 
Heartbeat CPU 0 instructions: 84000000 cycles: 87442099 heartbeat IPC: 0.592501 cumulative IPC: 0.609936 (Simulation time: 0 hr 54 min 21 sec) 
Heartbeat CPU 0 instructions: 85000000 cycles: 89130961 heartbeat IPC: 0.592115 cumulative IPC: 0.609412 (Simulation time: 0 hr 55 min 5 sec) 
Heartbeat CPU 0 instructions: 86000000 cycles: 90808680 heartbeat IPC: 0.596047 cumulative IPC: 0.609032 (Simulation time: 0 hr 55 min 51 sec) 
Heartbeat CPU 0 instructions: 87000001 cycles: 92500184 heartbeat IPC: 0.59119 cumulative IPC: 0.608536 (Simulation time: 0 hr 56 min 33 sec) 
Heartbeat CPU 0 instructions: 88000000 cycles: 94182033 heartbeat IPC: 0.594583 cumulative IPC: 0.60816 (Simulation time: 0 hr 57 min 16 sec) 
Heartbeat CPU 0 instructions: 89000003 cycles: 95865087 heartbeat IPC: 0.59416 cumulative IPC: 0.607793 (Simulation time: 0 hr 58 min 0 sec) 
Heartbeat CPU 0 instructions: 90000000 cycles: 97545444 heartbeat IPC: 0.59511 cumulative IPC: 0.607469 (Simulation time: 0 hr 58 min 46 sec) 
Heartbeat CPU 0 instructions: 91000001 cycles: 99224470 heartbeat IPC: 0.595584 cumulative IPC: 0.607174 (Simulation time: 0 hr 59 min 31 sec) 
Heartbeat CPU 0 instructions: 92000000 cycles: 100913140 heartbeat IPC: 0.592181 cumulative IPC: 0.606808 (Simulation time: 1 hr 0 min 15 sec) 
Heartbeat CPU 0 instructions: 93000003 cycles: 102594278 heartbeat IPC: 0.594837 cumulative IPC: 0.606524 (Simulation time: 1 hr 0 min 59 sec) 
Heartbeat CPU 0 instructions: 94000002 cycles: 104274822 heartbeat IPC: 0.595045 cumulative IPC: 0.606259 (Simulation time: 1 hr 1 min 46 sec) 
Heartbeat CPU 0 instructions: 95000000 cycles: 105966274 heartbeat IPC: 0.591207 cumulative IPC: 0.605916 (Simulation time: 1 hr 2 min 39 sec) 
Heartbeat CPU 0 instructions: 96000000 cycles: 107646506 heartbeat IPC: 0.595156 cumulative IPC: 0.605678 (Simulation time: 1 hr 3 min 29 sec) 
Heartbeat CPU 0 instructions: 97000003 cycles: 109331149 heartbeat IPC: 0.593599 cumulative IPC: 0.605416 (Simulation time: 1 hr 4 min 12 sec) 
Heartbeat CPU 0 instructions: 98000000 cycles: 111014496 heartbeat IPC: 0.594053 cumulative IPC: 0.605174 (Simulation time: 1 hr 4 min 56 sec) 
Heartbeat CPU 0 instructions: 99000001 cycles: 112704356 heartbeat IPC: 0.591766 cumulative IPC: 0.604895 (Simulation time: 1 hr 5 min 40 sec) 
Heartbeat CPU 0 instructions: 100000000 cycles: 114395337 heartbeat IPC: 0.591372 cumulative IPC: 0.604618 (Simulation time: 1 hr 6 min 23 sec) 
Heartbeat CPU 0 instructions: 101000001 cycles: 116079586 heartbeat IPC: 0.593737 cumulative IPC: 0.604401 (Simulation time: 1 hr 7 min 4 sec) 
Heartbeat CPU 0 instructions: 102000002 cycles: 117766632 heartbeat IPC: 0.592753 cumulative IPC: 0.604173 (Simulation time: 1 hr 7 min 50 sec) 
Heartbeat CPU 0 instructions: 103000000 cycles: 119450418 heartbeat IPC: 0.593899 cumulative IPC: 0.603976 (Simulation time: 1 hr 8 min 32 sec) 
Heartbeat CPU 0 instructions: 104000000 cycles: 121134810 heartbeat IPC: 0.593686 cumulative IPC: 0.603782 (Simulation time: 1 hr 9 min 11 sec) 
Heartbeat CPU 0 instructions: 105000000 cycles: 122813184 heartbeat IPC: 0.595815 cumulative IPC: 0.603635 (Simulation time: 1 hr 9 min 52 sec) 
Heartbeat CPU 0 instructions: 106000002 cycles: 124484458 heartbeat IPC: 0.598347 cumulative IPC: 0.60354 (Simulation time: 1 hr 10 min 31 sec) 
Heartbeat CPU 0 instructions: 107000000 cycles: 126174521 heartbeat IPC: 0.591693 cumulative IPC: 0.603328 (Simulation time: 1 hr 11 min 10 sec) 
Heartbeat CPU 0 instructions: 108000000 cycles: 127848479 heartbeat IPC: 0.597387 cumulative IPC: 0.603224 (Simulation time: 1 hr 11 min 48 sec) 
Heartbeat CPU 0 instructions: 109000003 cycles: 129539418 heartbeat IPC: 0.591389 cumulative IPC: 0.60302 (Simulation time: 1 hr 12 min 24 sec) 
Heartbeat CPU 0 instructions: 110000001 cycles: 131227768 heartbeat IPC: 0.592293 cumulative IPC: 0.602838 (Simulation time: 1 hr 13 min 1 sec) 
Heartbeat CPU 0 instructions: 111000001 cycles: 132901877 heartbeat IPC: 0.597333 cumulative IPC: 0.602747 (Simulation time: 1 hr 13 min 37 sec) 
Heartbeat CPU 0 instructions: 112000000 cycles: 134583476 heartbeat IPC: 0.594671 cumulative IPC: 0.602615 (Simulation time: 1 hr 14 min 10 sec) 
Heartbeat CPU 0 instructions: 113000002 cycles: 136263148 heartbeat IPC: 0.595356 cumulative IPC: 0.602498 (Simulation time: 1 hr 14 min 43 sec) 
Heartbeat CPU 0 instructions: 114000002 cycles: 137941456 heartbeat IPC: 0.595838 cumulative IPC: 0.602393 (Simulation time: 1 hr 15 min 14 sec) 
Heartbeat CPU 0 instructions: 115000002 cycles: 139628518 heartbeat IPC: 0.592746 cumulative IPC: 0.602242 (Simulation time: 1 hr 15 min 42 sec) 
Heartbeat CPU 0 instructions: 116000000 cycles: 141306514 heartbeat IPC: 0.595948 cumulative IPC: 0.602146 (Simulation time: 1 hr 16 min 10 sec) 
Heartbeat CPU 0 instructions: 117000001 cycles: 142989923 heartbeat IPC: 0.594033 cumulative IPC: 0.602023 (Simulation time: 1 hr 16 min 37 sec) 
Heartbeat CPU 0 instructions: 118000002 cycles: 144678156 heartbeat IPC: 0.592336 cumulative IPC: 0.601878 (Simulation time: 1 hr 17 min 5 sec) 
Heartbeat CPU 0 instructions: 119000001 cycles: 146363073 heartbeat IPC: 0.5935 cumulative IPC: 0.601755 (Simulation time: 1 hr 17 min 32 sec) 
Heartbeat CPU 0 instructions: 120000000 cycles: 148662422 heartbeat IPC: 0.434905 cumulative IPC: 0.598475 (Simulation time: 1 hr 17 min 58 sec) 
Heartbeat CPU 0 instructions: 121000000 cycles: 157449387 heartbeat IPC: 0.113805 cumulative IPC: 0.564608 (Simulation time: 1 hr 18 min 43 sec) 
Heartbeat CPU 0 instructions: 122000002 cycles: 166239710 heartbeat IPC: 0.113762 cumulative IPC: 0.535152 (Simulation time: 1 hr 19 min 26 sec) 
Heartbeat CPU 0 instructions: 123000002 cycles: 175072823 heartbeat IPC: 0.11321 cumulative IPC: 0.509157 (Simulation time: 1 hr 20 min 8 sec) 
Heartbeat CPU 0 instructions: 124000000 cycles: 183909071 heartbeat IPC: 0.11317 cumulative IPC: 0.486169 (Simulation time: 1 hr 20 min 46 sec) 
Heartbeat CPU 0 instructions: 125000001 cycles: 186530763 heartbeat IPC: 0.381433 cumulative IPC: 0.484395 (Simulation time: 1 hr 21 min 7 sec) 
Heartbeat CPU 0 instructions: 126000003 cycles: 188101658 heartbeat IPC: 0.636581 cumulative IPC: 0.485924 (Simulation time: 1 hr 21 min 28 sec) 
Heartbeat CPU 0 instructions: 127000000 cycles: 189674204 heartbeat IPC: 0.63591 cumulative IPC: 0.487417 (Simulation time: 1 hr 21 min 48 sec) 
Heartbeat CPU 0 instructions: 128000000 cycles: 191259766 heartbeat IPC: 0.630691 cumulative IPC: 0.48884 (Simulation time: 1 hr 22 min 7 sec) 
Heartbeat CPU 0 instructions: 129000001 cycles: 192847215 heartbeat IPC: 0.629942 cumulative IPC: 0.49023 (Simulation time: 1 hr 22 min 28 sec) 
Heartbeat CPU 0 instructions: 130000003 cycles: 194437066 heartbeat IPC: 0.628991 cumulative IPC: 0.491586 (Simulation time: 1 hr 22 min 49 sec) 
Heartbeat CPU 0 instructions: 131000001 cycles: 196044239 heartbeat IPC: 0.622209 cumulative IPC: 0.492863 (Simulation time: 1 hr 23 min 9 sec) 
Heartbeat CPU 0 instructions: 132000000 cycles: 197651252 heartbeat IPC: 0.622272 cumulative IPC: 0.494117 (Simulation time: 1 hr 23 min 28 sec) 
Heartbeat CPU 0 instructions: 133000002 cycles: 199252252 heartbeat IPC: 0.624611 cumulative IPC: 0.495363 (Simulation time: 1 hr 23 min 47 sec) 
Heartbeat CPU 0 instructions: 134000000 cycles: 200853637 heartbeat IPC: 0.624458 cumulative IPC: 0.496586 (Simulation time: 1 hr 24 min 4 sec) 
Heartbeat CPU 0 instructions: 135000003 cycles: 202458718 heartbeat IPC: 0.623023 cumulative IPC: 0.497774 (Simulation time: 1 hr 24 min 22 sec) 
Heartbeat CPU 0 instructions: 136000000 cycles: 204063296 heartbeat IPC: 0.623215 cumulative IPC: 0.498942 (Simulation time: 1 hr 24 min 38 sec) 
Heartbeat CPU 0 instructions: 137000003 cycles: 205665797 heartbeat IPC: 0.624026 cumulative IPC: 0.500094 (Simulation time: 1 hr 24 min 55 sec) 
Heartbeat CPU 0 instructions: 138000000 cycles: 207276392 heartbeat IPC: 0.620887 cumulative IPC: 0.501202 (Simulation time: 1 hr 25 min 10 sec) 
Heartbeat CPU 0 instructions: 139000002 cycles: 208876525 heartbeat IPC: 0.624949 cumulative IPC: 0.50232 (Simulation time: 1 hr 25 min 24 sec) 
Heartbeat CPU 0 instructions: 140000000 cycles: 210471641 heartbeat IPC: 0.626912 cumulative IPC: 0.503431 (Simulation time: 1 hr 25 min 40 sec) 
Heartbeat CPU 0 instructions: 141000000 cycles: 212084004 heartbeat IPC: 0.620208 cumulative IPC: 0.504475 (Simulation time: 1 hr 25 min 55 sec) 
Heartbeat CPU 0 instructions: 142000001 cycles: 213688046 heartbeat IPC: 0.623426 cumulative IPC: 0.505524 (Simulation time: 1 hr 26 min 10 sec) 
Heartbeat CPU 0 instructions: 143000001 cycles: 215285922 heartbeat IPC: 0.625831 cumulative IPC: 0.506571 (Simulation time: 1 hr 26 min 24 sec) 
Heartbeat CPU 0 instructions: 144000000 cycles: 216888525 heartbeat IPC: 0.623984 cumulative IPC: 0.507587 (Simulation time: 1 hr 26 min 39 sec) 
Heartbeat CPU 0 instructions: 145000000 cycles: 218482368 heartbeat IPC: 0.627414 cumulative IPC: 0.508609 (Simulation time: 1 hr 26 min 50 sec) 
Heartbeat CPU 0 instructions: 146000002 cycles: 220085295 heartbeat IPC: 0.62386 cumulative IPC: 0.50959 (Simulation time: 1 hr 27 min 2 sec) 
Heartbeat CPU 0 instructions: 147000002 cycles: 221692269 heartbeat IPC: 0.622288 cumulative IPC: 0.510543 (Simulation time: 1 hr 27 min 12 sec) 
Heartbeat CPU 0 instructions: 148000000 cycles: 223288635 heartbeat IPC: 0.626422 cumulative IPC: 0.511509 (Simulation time: 1 hr 27 min 20 sec) 
Heartbeat CPU 0 instructions: 149000000 cycles: 224901450 heartbeat IPC: 0.620034 cumulative IPC: 0.512415 (Simulation time: 1 hr 27 min 28 sec) 
Heartbeat CPU 0 instructions: 150000002 cycles: 226509679 heartbeat IPC: 0.621803 cumulative IPC: 0.513318 (Simulation time: 1 hr 27 min 36 sec) 
Finished CPU 0 instructions: 100000002 cycles: 194811154 cummulative IPC: 0.513318 (Simulation time: 1 hr 27 min 36 sec) 

ChampSim completed all CPUs

Region of Interest Statistics

CPU 0 cummulative IPC: 0.513318 instructions: 100000002 cycles: 194811154
LLC TOTAL     ACCESS:    5929379  HIT:    1203766  MISS:    4725613
LLC LOAD      ACCESS:    1303399  HIT:     213238  MISS:    1090161
LLC RFO       ACCESS:         25  HIT:          1  MISS:         24
LLC PREFETCH  ACCESS:    3083974  HIT:     403204  MISS:    2680770
LLC WRITEBACK ACCESS:    1541981  HIT:     587323  MISS:     954658
OPTgen accesses: 22677
OPTgen hits: 7513
OPTgen hit rate: 33.1305


