
*** ChampSim Multicore Out-of-Order Simulator ***

Warmup Instructions: 50000000
Simulation Instructions: 100000000
Configuration: 2
Number of CPUs: 1
LLC sets: 2048
LLC ways: 16
Off-chip DRAM Channels: 1 Width: 64-bit Data Rate: 1600 MT/s

CPU 0 runs /datasets/cs240c-wi22-a00-public/data/Assignment2-gz/gcc_13B.trace.gz
CPU 0 L1D next line prefetcher
CPU 0 L2C IP-based stride prefetcher
Initialize Hawkeye state
Heartbeat CPU 0 instructions: 1000000 cycles: 633312 heartbeat IPC: 1.579 cumulative IPC: 1.579 (Simulation time: 0 hr 0 min 38 sec) 
Heartbeat CPU 0 instructions: 2000001 cycles: 1243574 heartbeat IPC: 1.63864 cumulative IPC: 1.60827 (Simulation time: 0 hr 1 min 15 sec) 
Heartbeat CPU 0 instructions: 3000001 cycles: 1717445 heartbeat IPC: 2.11028 cumulative IPC: 1.74678 (Simulation time: 0 hr 1 min 49 sec) 
Heartbeat CPU 0 instructions: 4000000 cycles: 2191038 heartbeat IPC: 2.11152 cumulative IPC: 1.82562 (Simulation time: 0 hr 2 min 22 sec) 
Heartbeat CPU 0 instructions: 5000002 cycles: 2665153 heartbeat IPC: 2.1092 cumulative IPC: 1.87607 (Simulation time: 0 hr 2 min 57 sec) 
Heartbeat CPU 0 instructions: 6000002 cycles: 3139017 heartbeat IPC: 2.11031 cumulative IPC: 1.91143 (Simulation time: 0 hr 3 min 31 sec) 
Heartbeat CPU 0 instructions: 7000001 cycles: 3614392 heartbeat IPC: 2.1036 cumulative IPC: 1.9367 (Simulation time: 0 hr 4 min 4 sec) 
Heartbeat CPU 0 instructions: 8000000 cycles: 4091520 heartbeat IPC: 2.09587 cumulative IPC: 1.95526 (Simulation time: 0 hr 4 min 38 sec) 
Heartbeat CPU 0 instructions: 9000001 cycles: 4832515 heartbeat IPC: 1.34954 cumulative IPC: 1.86238 (Simulation time: 0 hr 5 min 15 sec) 
Heartbeat CPU 0 instructions: 10000001 cycles: 5537351 heartbeat IPC: 1.41877 cumulative IPC: 1.80592 (Simulation time: 0 hr 5 min 53 sec) 
Heartbeat CPU 0 instructions: 11000002 cycles: 6158358 heartbeat IPC: 1.61029 cumulative IPC: 1.78619 (Simulation time: 0 hr 6 min 29 sec) 
Heartbeat CPU 0 instructions: 12000000 cycles: 6772194 heartbeat IPC: 1.6291 cumulative IPC: 1.77195 (Simulation time: 0 hr 7 min 7 sec) 
Heartbeat CPU 0 instructions: 13000000 cycles: 7378193 heartbeat IPC: 1.65017 cumulative IPC: 1.76195 (Simulation time: 0 hr 7 min 44 sec) 
Heartbeat CPU 0 instructions: 14000000 cycles: 8017920 heartbeat IPC: 1.56317 cumulative IPC: 1.74609 (Simulation time: 0 hr 8 min 18 sec) 
Heartbeat CPU 0 instructions: 15000001 cycles: 8617131 heartbeat IPC: 1.66886 cumulative IPC: 1.74072 (Simulation time: 0 hr 8 min 56 sec) 
Heartbeat CPU 0 instructions: 16000000 cycles: 9090308 heartbeat IPC: 2.11337 cumulative IPC: 1.76012 (Simulation time: 0 hr 9 min 32 sec) 
Heartbeat CPU 0 instructions: 17000000 cycles: 9564129 heartbeat IPC: 2.1105 cumulative IPC: 1.77747 (Simulation time: 0 hr 10 min 3 sec) 
Heartbeat CPU 0 instructions: 18000000 cycles: 10037955 heartbeat IPC: 2.11048 cumulative IPC: 1.79319 (Simulation time: 0 hr 10 min 37 sec) 
Heartbeat CPU 0 instructions: 19000002 cycles: 10511844 heartbeat IPC: 2.1102 cumulative IPC: 1.80749 (Simulation time: 0 hr 11 min 14 sec) 
Heartbeat CPU 0 instructions: 20000000 cycles: 10987675 heartbeat IPC: 2.10158 cumulative IPC: 1.82022 (Simulation time: 0 hr 11 min 49 sec) 
Heartbeat CPU 0 instructions: 21000001 cycles: 11469022 heartbeat IPC: 2.07751 cumulative IPC: 1.83102 (Simulation time: 0 hr 12 min 27 sec) 
Heartbeat CPU 0 instructions: 22000000 cycles: 12206136 heartbeat IPC: 1.35664 cumulative IPC: 1.80237 (Simulation time: 0 hr 13 min 5 sec) 
Heartbeat CPU 0 instructions: 23000002 cycles: 12903231 heartbeat IPC: 1.43453 cumulative IPC: 1.7825 (Simulation time: 0 hr 13 min 44 sec) 
Heartbeat CPU 0 instructions: 24000000 cycles: 13522816 heartbeat IPC: 1.61398 cumulative IPC: 1.77478 (Simulation time: 0 hr 14 min 32 sec) 
Heartbeat CPU 0 instructions: 25000000 cycles: 14137589 heartbeat IPC: 1.62662 cumulative IPC: 1.76834 (Simulation time: 0 hr 15 min 13 sec) 
Heartbeat CPU 0 instructions: 26000002 cycles: 14744505 heartbeat IPC: 1.64768 cumulative IPC: 1.76337 (Simulation time: 0 hr 15 min 54 sec) 
Heartbeat CPU 0 instructions: 27000001 cycles: 15394943 heartbeat IPC: 1.53742 cumulative IPC: 1.75382 (Simulation time: 0 hr 16 min 29 sec) 
Heartbeat CPU 0 instructions: 28000000 cycles: 15977422 heartbeat IPC: 1.7168 cumulative IPC: 1.75247 (Simulation time: 0 hr 17 min 3 sec) 
Heartbeat CPU 0 instructions: 29000001 cycles: 16450907 heartbeat IPC: 2.112 cumulative IPC: 1.76282 (Simulation time: 0 hr 17 min 37 sec) 
Heartbeat CPU 0 instructions: 30000000 cycles: 16924471 heartbeat IPC: 2.11164 cumulative IPC: 1.77258 (Simulation time: 0 hr 18 min 9 sec) 
Heartbeat CPU 0 instructions: 31000000 cycles: 17398455 heartbeat IPC: 2.10978 cumulative IPC: 1.78177 (Simulation time: 0 hr 18 min 46 sec) 
Heartbeat CPU 0 instructions: 32000000 cycles: 17872385 heartbeat IPC: 2.11002 cumulative IPC: 1.79047 (Simulation time: 0 hr 19 min 21 sec) 
Heartbeat CPU 0 instructions: 33000002 cycles: 18348092 heartbeat IPC: 2.10214 cumulative IPC: 1.79855 (Simulation time: 0 hr 19 min 55 sec) 
Heartbeat CPU 0 instructions: 34000001 cycles: 18822021 heartbeat IPC: 2.11002 cumulative IPC: 1.80639 (Simulation time: 0 hr 20 min 30 sec) 
Heartbeat CPU 0 instructions: 35000000 cycles: 19466826 heartbeat IPC: 1.55085 cumulative IPC: 1.79793 (Simulation time: 0 hr 21 min 9 sec) 
Heartbeat CPU 0 instructions: 36000000 cycles: 20151350 heartbeat IPC: 1.46087 cumulative IPC: 1.78648 (Simulation time: 0 hr 21 min 43 sec) 
Heartbeat CPU 0 instructions: 37000003 cycles: 20836149 heartbeat IPC: 1.46029 cumulative IPC: 1.77576 (Simulation time: 0 hr 22 min 25 sec) 
Heartbeat CPU 0 instructions: 38000000 cycles: 21521430 heartbeat IPC: 1.45925 cumulative IPC: 1.76568 (Simulation time: 0 hr 23 min 0 sec) 
Heartbeat CPU 0 instructions: 39000002 cycles: 22206093 heartbeat IPC: 1.46058 cumulative IPC: 1.75627 (Simulation time: 0 hr 23 min 35 sec) 
Heartbeat CPU 0 instructions: 40000000 cycles: 22891544 heartbeat IPC: 1.45889 cumulative IPC: 1.74737 (Simulation time: 0 hr 24 min 12 sec) 
Heartbeat CPU 0 instructions: 41000000 cycles: 23576801 heartbeat IPC: 1.45931 cumulative IPC: 1.739 (Simulation time: 0 hr 24 min 46 sec) 
Heartbeat CPU 0 instructions: 42000000 cycles: 24261465 heartbeat IPC: 1.46057 cumulative IPC: 1.73114 (Simulation time: 0 hr 25 min 22 sec) 
Heartbeat CPU 0 instructions: 43000002 cycles: 24946536 heartbeat IPC: 1.45971 cumulative IPC: 1.72369 (Simulation time: 0 hr 25 min 57 sec) 
Heartbeat CPU 0 instructions: 44000000 cycles: 25631609 heartbeat IPC: 1.4597 cumulative IPC: 1.71663 (Simulation time: 0 hr 26 min 30 sec) 
Heartbeat CPU 0 instructions: 45000000 cycles: 26317360 heartbeat IPC: 1.45826 cumulative IPC: 1.7099 (Simulation time: 0 hr 27 min 5 sec) 
Heartbeat CPU 0 instructions: 46000002 cycles: 27002613 heartbeat IPC: 1.45932 cumulative IPC: 1.70354 (Simulation time: 0 hr 27 min 43 sec) 
Heartbeat CPU 0 instructions: 47000001 cycles: 27687303 heartbeat IPC: 1.46051 cumulative IPC: 1.69753 (Simulation time: 0 hr 28 min 21 sec) 
Heartbeat CPU 0 instructions: 48000000 cycles: 28371595 heartbeat IPC: 1.46136 cumulative IPC: 1.69183 (Simulation time: 0 hr 28 min 57 sec) 
Heartbeat CPU 0 instructions: 49000000 cycles: 29056795 heartbeat IPC: 1.45943 cumulative IPC: 1.68635 (Simulation time: 0 hr 29 min 37 sec) 
Heartbeat CPU 0 instructions: 50000003 cycles: 29741095 heartbeat IPC: 1.46135 cumulative IPC: 1.68118 (Simulation time: 0 hr 30 min 16 sec) 

Warmup complete CPU 0 instructions: 50000003 cycles: 29741095 (Simulation time: 0 hr 30 min 16 sec) 

Heartbeat CPU 0 instructions: 51000001 cycles: 33320970 heartbeat IPC: 0.279339 cumulative IPC: 0.279339 (Simulation time: 0 hr 30 min 54 sec) 
Heartbeat CPU 0 instructions: 52000000 cycles: 36886041 heartbeat IPC: 0.280499 cumulative IPC: 0.279918 (Simulation time: 0 hr 31 min 31 sec) 
Heartbeat CPU 0 instructions: 53000001 cycles: 40466716 heartbeat IPC: 0.279277 cumulative IPC: 0.279704 (Simulation time: 0 hr 32 min 13 sec) 
Heartbeat CPU 0 instructions: 54000000 cycles: 44041238 heartbeat IPC: 0.279757 cumulative IPC: 0.279717 (Simulation time: 0 hr 32 min 54 sec) 
Heartbeat CPU 0 instructions: 55000000 cycles: 47625727 heartbeat IPC: 0.27898 cumulative IPC: 0.279569 (Simulation time: 0 hr 33 min 29 sec) 
Heartbeat CPU 0 instructions: 56000000 cycles: 51198276 heartbeat IPC: 0.279912 cumulative IPC: 0.279627 (Simulation time: 0 hr 34 min 11 sec) 
Heartbeat CPU 0 instructions: 57000002 cycles: 54737970 heartbeat IPC: 0.282511 cumulative IPC: 0.280035 (Simulation time: 0 hr 34 min 50 sec) 
Heartbeat CPU 0 instructions: 58000001 cycles: 58283262 heartbeat IPC: 0.282064 cumulative IPC: 0.280287 (Simulation time: 0 hr 35 min 30 sec) 
Heartbeat CPU 0 instructions: 59000003 cycles: 61801527 heartbeat IPC: 0.284232 cumulative IPC: 0.28072 (Simulation time: 0 hr 36 min 7 sec) 
Heartbeat CPU 0 instructions: 60000000 cycles: 65316655 heartbeat IPC: 0.284484 cumulative IPC: 0.281092 (Simulation time: 0 hr 36 min 44 sec) 
Heartbeat CPU 0 instructions: 61000000 cycles: 68827220 heartbeat IPC: 0.284854 cumulative IPC: 0.28143 (Simulation time: 0 hr 37 min 24 sec) 
Heartbeat CPU 0 instructions: 62000003 cycles: 72334267 heartbeat IPC: 0.285141 cumulative IPC: 0.281735 (Simulation time: 0 hr 38 min 6 sec) 
Heartbeat CPU 0 instructions: 63000001 cycles: 75843526 heartbeat IPC: 0.28496 cumulative IPC: 0.281981 (Simulation time: 0 hr 38 min 44 sec) 
Heartbeat CPU 0 instructions: 64000000 cycles: 79373085 heartbeat IPC: 0.283321 cumulative IPC: 0.282076 (Simulation time: 0 hr 39 min 22 sec) 
Heartbeat CPU 0 instructions: 65000000 cycles: 82942228 heartbeat IPC: 0.280179 cumulative IPC: 0.281949 (Simulation time: 0 hr 40 min 7 sec) 
Heartbeat CPU 0 instructions: 66000000 cycles: 86520043 heartbeat IPC: 0.2795 cumulative IPC: 0.281795 (Simulation time: 0 hr 40 min 53 sec) 
Heartbeat CPU 0 instructions: 67000001 cycles: 90143481 heartbeat IPC: 0.275981 cumulative IPC: 0.281446 (Simulation time: 0 hr 41 min 46 sec) 
Heartbeat CPU 0 instructions: 68000000 cycles: 93771519 heartbeat IPC: 0.275631 cumulative IPC: 0.281116 (Simulation time: 0 hr 42 min 28 sec) 
Heartbeat CPU 0 instructions: 69000003 cycles: 97408627 heartbeat IPC: 0.274945 cumulative IPC: 0.280785 (Simulation time: 0 hr 43 min 9 sec) 
Heartbeat CPU 0 instructions: 70000000 cycles: 101148687 heartbeat IPC: 0.267375 cumulative IPC: 0.280082 (Simulation time: 0 hr 43 min 52 sec) 
Heartbeat CPU 0 instructions: 71000002 cycles: 104752230 heartbeat IPC: 0.277505 cumulative IPC: 0.279958 (Simulation time: 0 hr 44 min 40 sec) 
Heartbeat CPU 0 instructions: 72000000 cycles: 108333466 heartbeat IPC: 0.279233 cumulative IPC: 0.279925 (Simulation time: 0 hr 45 min 21 sec) 
Heartbeat CPU 0 instructions: 73000003 cycles: 111913034 heartbeat IPC: 0.279364 cumulative IPC: 0.279901 (Simulation time: 0 hr 46 min 2 sec) 
Heartbeat CPU 0 instructions: 74000000 cycles: 115503504 heartbeat IPC: 0.278514 cumulative IPC: 0.279843 (Simulation time: 0 hr 46 min 44 sec) 
Heartbeat CPU 0 instructions: 75000000 cycles: 119095590 heartbeat IPC: 0.27839 cumulative IPC: 0.279784 (Simulation time: 0 hr 47 min 27 sec) 
Heartbeat CPU 0 instructions: 76000000 cycles: 122715387 heartbeat IPC: 0.276259 cumulative IPC: 0.279647 (Simulation time: 0 hr 48 min 13 sec) 
Heartbeat CPU 0 instructions: 77000000 cycles: 126307722 heartbeat IPC: 0.27837 cumulative IPC: 0.2796 (Simulation time: 0 hr 48 min 59 sec) 
Heartbeat CPU 0 instructions: 78000003 cycles: 129833591 heartbeat IPC: 0.283619 cumulative IPC: 0.279741 (Simulation time: 0 hr 49 min 42 sec) 
Heartbeat CPU 0 instructions: 79000000 cycles: 133413497 heartbeat IPC: 0.279336 cumulative IPC: 0.279727 (Simulation time: 0 hr 50 min 21 sec) 
Heartbeat CPU 0 instructions: 80000000 cycles: 136960083 heartbeat IPC: 0.281961 cumulative IPC: 0.279801 (Simulation time: 0 hr 51 min 9 sec) 
Heartbeat CPU 0 instructions: 81000001 cycles: 140493511 heartbeat IPC: 0.283012 cumulative IPC: 0.279904 (Simulation time: 0 hr 51 min 52 sec) 
Heartbeat CPU 0 instructions: 82000000 cycles: 144031997 heartbeat IPC: 0.282606 cumulative IPC: 0.279987 (Simulation time: 0 hr 52 min 31 sec) 
Heartbeat CPU 0 instructions: 83000003 cycles: 147588614 heartbeat IPC: 0.281167 cumulative IPC: 0.280023 (Simulation time: 0 hr 53 min 13 sec) 
Heartbeat CPU 0 instructions: 84000000 cycles: 151127615 heartbeat IPC: 0.282565 cumulative IPC: 0.280097 (Simulation time: 0 hr 53 min 54 sec) 
Heartbeat CPU 0 instructions: 85000000 cycles: 154662201 heartbeat IPC: 0.282919 cumulative IPC: 0.280177 (Simulation time: 0 hr 54 min 36 sec) 
Heartbeat CPU 0 instructions: 86000001 cycles: 158206746 heartbeat IPC: 0.282124 cumulative IPC: 0.280231 (Simulation time: 0 hr 55 min 14 sec) 
Heartbeat CPU 0 instructions: 87000001 cycles: 161759149 heartbeat IPC: 0.2815 cumulative IPC: 0.280265 (Simulation time: 0 hr 55 min 52 sec) 
Heartbeat CPU 0 instructions: 88000000 cycles: 165304142 heartbeat IPC: 0.282088 cumulative IPC: 0.280312 (Simulation time: 0 hr 56 min 33 sec) 
Heartbeat CPU 0 instructions: 89000003 cycles: 168845739 heartbeat IPC: 0.282359 cumulative IPC: 0.280364 (Simulation time: 0 hr 57 min 16 sec) 
Heartbeat CPU 0 instructions: 90000000 cycles: 172387573 heartbeat IPC: 0.282339 cumulative IPC: 0.280413 (Simulation time: 0 hr 57 min 56 sec) 
Heartbeat CPU 0 instructions: 91000000 cycles: 175914858 heartbeat IPC: 0.283504 cumulative IPC: 0.280488 (Simulation time: 0 hr 58 min 35 sec) 
Heartbeat CPU 0 instructions: 92000000 cycles: 179425944 heartbeat IPC: 0.284812 cumulative IPC: 0.280589 (Simulation time: 0 hr 59 min 21 sec) 
Heartbeat CPU 0 instructions: 93000001 cycles: 182941432 heartbeat IPC: 0.284456 cumulative IPC: 0.280678 (Simulation time: 1 hr 0 min 3 sec) 
Heartbeat CPU 0 instructions: 94000003 cycles: 186447137 heartbeat IPC: 0.28525 cumulative IPC: 0.28078 (Simulation time: 1 hr 0 min 46 sec) 
Heartbeat CPU 0 instructions: 95000002 cycles: 189959822 heartbeat IPC: 0.284682 cumulative IPC: 0.280866 (Simulation time: 1 hr 1 min 28 sec) 
Heartbeat CPU 0 instructions: 96000000 cycles: 193454324 heartbeat IPC: 0.286163 cumulative IPC: 0.280979 (Simulation time: 1 hr 2 min 20 sec) 
Heartbeat CPU 0 instructions: 97000000 cycles: 196944922 heartbeat IPC: 0.286484 cumulative IPC: 0.281094 (Simulation time: 1 hr 3 min 4 sec) 
Heartbeat CPU 0 instructions: 98000000 cycles: 200428665 heartbeat IPC: 0.287048 cumulative IPC: 0.281216 (Simulation time: 1 hr 3 min 53 sec) 
Heartbeat CPU 0 instructions: 99000000 cycles: 203933254 heartbeat IPC: 0.28534 cumulative IPC: 0.281299 (Simulation time: 1 hr 4 min 34 sec) 
Heartbeat CPU 0 instructions: 100000000 cycles: 207456518 heartbeat IPC: 0.283828 cumulative IPC: 0.281349 (Simulation time: 1 hr 5 min 13 sec) 
Heartbeat CPU 0 instructions: 101000003 cycles: 210966387 heartbeat IPC: 0.284912 cumulative IPC: 0.281418 (Simulation time: 1 hr 5 min 52 sec) 
Heartbeat CPU 0 instructions: 102000000 cycles: 214775116 heartbeat IPC: 0.262554 cumulative IPC: 0.281029 (Simulation time: 1 hr 6 min 31 sec) 
Heartbeat CPU 0 instructions: 103000002 cycles: 218898336 heartbeat IPC: 0.242529 cumulative IPC: 0.28019 (Simulation time: 1 hr 7 min 10 sec) 
Heartbeat CPU 0 instructions: 104000000 cycles: 222989391 heartbeat IPC: 0.244435 cumulative IPC: 0.279433 (Simulation time: 1 hr 7 min 54 sec) 
Heartbeat CPU 0 instructions: 105000000 cycles: 226872499 heartbeat IPC: 0.257526 cumulative IPC: 0.279002 (Simulation time: 1 hr 8 min 35 sec) 
Heartbeat CPU 0 instructions: 106000002 cycles: 230732807 heartbeat IPC: 0.259047 cumulative IPC: 0.278618 (Simulation time: 1 hr 9 min 12 sec) 
Heartbeat CPU 0 instructions: 107000001 cycles: 234651861 heartbeat IPC: 0.255163 cumulative IPC: 0.27817 (Simulation time: 1 hr 9 min 47 sec) 
Heartbeat CPU 0 instructions: 108000000 cycles: 238460702 heartbeat IPC: 0.262547 cumulative IPC: 0.277885 (Simulation time: 1 hr 10 min 21 sec) 
Heartbeat CPU 0 instructions: 109000000 cycles: 242187965 heartbeat IPC: 0.268293 cumulative IPC: 0.277716 (Simulation time: 1 hr 10 min 56 sec) 
Heartbeat CPU 0 instructions: 110000002 cycles: 245888576 heartbeat IPC: 0.270226 cumulative IPC: 0.277588 (Simulation time: 1 hr 11 min 31 sec) 
Heartbeat CPU 0 instructions: 111000000 cycles: 249569060 heartbeat IPC: 0.271703 cumulative IPC: 0.27749 (Simulation time: 1 hr 12 min 6 sec) 
Heartbeat CPU 0 instructions: 112000000 cycles: 253252281 heartbeat IPC: 0.271501 cumulative IPC: 0.277391 (Simulation time: 1 hr 12 min 39 sec) 
Heartbeat CPU 0 instructions: 113000001 cycles: 256948651 heartbeat IPC: 0.270536 cumulative IPC: 0.277279 (Simulation time: 1 hr 13 min 11 sec) 
Heartbeat CPU 0 instructions: 114000000 cycles: 260629598 heartbeat IPC: 0.271669 cumulative IPC: 0.27719 (Simulation time: 1 hr 13 min 40 sec) 
Heartbeat CPU 0 instructions: 115000003 cycles: 264195815 heartbeat IPC: 0.28041 cumulative IPC: 0.277239 (Simulation time: 1 hr 14 min 10 sec) 
Heartbeat CPU 0 instructions: 116000000 cycles: 267723337 heartbeat IPC: 0.283484 cumulative IPC: 0.277332 (Simulation time: 1 hr 14 min 39 sec) 
Heartbeat CPU 0 instructions: 117000001 cycles: 271238666 heartbeat IPC: 0.284469 cumulative IPC: 0.277435 (Simulation time: 1 hr 15 min 8 sec) 
Heartbeat CPU 0 instructions: 118000000 cycles: 274755388 heartbeat IPC: 0.284355 cumulative IPC: 0.277535 (Simulation time: 1 hr 15 min 35 sec) 
Heartbeat CPU 0 instructions: 119000001 cycles: 278459927 heartbeat IPC: 0.269939 cumulative IPC: 0.277422 (Simulation time: 1 hr 16 min 1 sec) 
Heartbeat CPU 0 instructions: 120000000 cycles: 283426438 heartbeat IPC: 0.201348 cumulative IPC: 0.275932 (Simulation time: 1 hr 16 min 32 sec) 
Heartbeat CPU 0 instructions: 121000001 cycles: 289334510 heartbeat IPC: 0.16926 cumulative IPC: 0.273505 (Simulation time: 1 hr 17 min 5 sec) 
Heartbeat CPU 0 instructions: 122000000 cycles: 294968337 heartbeat IPC: 0.177499 cumulative IPC: 0.271465 (Simulation time: 1 hr 17 min 36 sec) 
Heartbeat CPU 0 instructions: 123000001 cycles: 300606184 heartbeat IPC: 0.177373 cumulative IPC: 0.269507 (Simulation time: 1 hr 18 min 5 sec) 
Heartbeat CPU 0 instructions: 124000000 cycles: 306154780 heartbeat IPC: 0.180226 cumulative IPC: 0.267715 (Simulation time: 1 hr 18 min 37 sec) 
Heartbeat CPU 0 instructions: 125000000 cycles: 311619503 heartbeat IPC: 0.182992 cumulative IPC: 0.266072 (Simulation time: 1 hr 19 min 6 sec) 
Heartbeat CPU 0 instructions: 126000000 cycles: 317067859 heartbeat IPC: 0.183542 cumulative IPC: 0.264507 (Simulation time: 1 hr 19 min 36 sec) 
Heartbeat CPU 0 instructions: 127000003 cycles: 322526161 heartbeat IPC: 0.183208 cumulative IPC: 0.262992 (Simulation time: 1 hr 20 min 5 sec) 
Heartbeat CPU 0 instructions: 128000000 cycles: 327873741 heartbeat IPC: 0.187 cumulative IPC: 0.261629 (Simulation time: 1 hr 20 min 33 sec) 
Heartbeat CPU 0 instructions: 129000002 cycles: 333083277 heartbeat IPC: 0.191956 cumulative IPC: 0.260432 (Simulation time: 1 hr 21 min 1 sec) 
Heartbeat CPU 0 instructions: 130000000 cycles: 338264747 heartbeat IPC: 0.192995 cumulative IPC: 0.259299 (Simulation time: 1 hr 21 min 26 sec) 
Heartbeat CPU 0 instructions: 131000001 cycles: 343639569 heartbeat IPC: 0.186053 cumulative IPC: 0.258045 (Simulation time: 1 hr 21 min 52 sec) 
Heartbeat CPU 0 instructions: 132000000 cycles: 349043871 heartbeat IPC: 0.185038 cumulative IPC: 0.25681 (Simulation time: 1 hr 22 min 18 sec) 
Heartbeat CPU 0 instructions: 133000000 cycles: 354632750 heartbeat IPC: 0.178927 cumulative IPC: 0.25547 (Simulation time: 1 hr 22 min 43 sec) 
Heartbeat CPU 0 instructions: 134000002 cycles: 359859422 heartbeat IPC: 0.191327 cumulative IPC: 0.254454 (Simulation time: 1 hr 23 min 6 sec) 
Heartbeat CPU 0 instructions: 135000000 cycles: 365006840 heartbeat IPC: 0.194272 cumulative IPC: 0.25353 (Simulation time: 1 hr 23 min 26 sec) 
Heartbeat CPU 0 instructions: 136000000 cycles: 370196507 heartbeat IPC: 0.192691 cumulative IPC: 0.252603 (Simulation time: 1 hr 23 min 48 sec) 
Heartbeat CPU 0 instructions: 137000001 cycles: 375260284 heartbeat IPC: 0.197481 cumulative IPC: 0.251795 (Simulation time: 1 hr 24 min 7 sec) 
Heartbeat CPU 0 instructions: 138000002 cycles: 380225971 heartbeat IPC: 0.201382 cumulative IPC: 0.251081 (Simulation time: 1 hr 24 min 28 sec) 
Heartbeat CPU 0 instructions: 139000000 cycles: 385188615 heartbeat IPC: 0.201505 cumulative IPC: 0.250389 (Simulation time: 1 hr 24 min 43 sec) 
Heartbeat CPU 0 instructions: 140000000 cycles: 390153890 heartbeat IPC: 0.201399 cumulative IPC: 0.249714 (Simulation time: 1 hr 25 min 0 sec) 
Heartbeat CPU 0 instructions: 141000000 cycles: 395114349 heartbeat IPC: 0.201594 cumulative IPC: 0.24906 (Simulation time: 1 hr 25 min 15 sec) 
Heartbeat CPU 0 instructions: 142000000 cycles: 400030835 heartbeat IPC: 0.203397 cumulative IPC: 0.248454 (Simulation time: 1 hr 25 min 30 sec) 
Heartbeat CPU 0 instructions: 143000000 cycles: 404905752 heartbeat IPC: 0.205132 cumulative IPC: 0.247891 (Simulation time: 1 hr 25 min 44 sec) 
Heartbeat CPU 0 instructions: 144000000 cycles: 409776412 heartbeat IPC: 0.205311 cumulative IPC: 0.247345 (Simulation time: 1 hr 25 min 59 sec) 
Heartbeat CPU 0 instructions: 145000000 cycles: 414628248 heartbeat IPC: 0.206108 cumulative IPC: 0.246826 (Simulation time: 1 hr 26 min 13 sec) 
Heartbeat CPU 0 instructions: 146000000 cycles: 419557177 heartbeat IPC: 0.202884 cumulative IPC: 0.24627 (Simulation time: 1 hr 26 min 27 sec) 
Heartbeat CPU 0 instructions: 147000000 cycles: 423154476 heartbeat IPC: 0.277986 cumulative IPC: 0.24656 (Simulation time: 1 hr 26 min 43 sec) 
Heartbeat CPU 0 instructions: 148000000 cycles: 428148209 heartbeat IPC: 0.200251 cumulative IPC: 0.24598 (Simulation time: 1 hr 26 min 53 sec) 
Heartbeat CPU 0 instructions: 149000003 cycles: 433026883 heartbeat IPC: 0.204974 cumulative IPC: 0.245483 (Simulation time: 1 hr 27 min 3 sec) 
Heartbeat CPU 0 instructions: 150000001 cycles: 437371318 heartbeat IPC: 0.230179 cumulative IPC: 0.24532 (Simulation time: 1 hr 27 min 12 sec) 
Finished CPU 0 instructions: 100000002 cycles: 407630224 cummulative IPC: 0.24532 (Simulation time: 1 hr 27 min 12 sec) 

ChampSim completed all CPUs

Region of Interest Statistics

CPU 0 cummulative IPC: 0.24532 instructions: 100000002 cycles: 407630224
LLC TOTAL     ACCESS:    1690043  HIT:     132196  MISS:    1557847
LLC LOAD      ACCESS:     565230  HIT:      32536  MISS:     532694
LLC RFO       ACCESS:      88719  HIT:        643  MISS:      88076
LLC PREFETCH  ACCESS:     720292  HIT:      38484  MISS:     681808
LLC WRITEBACK ACCESS:     315802  HIT:      60533  MISS:     255269
OPTgen accesses: 23985
OPTgen hits: 3819
OPTgen hit rate: 15.9225


