
*** ChampSim Multicore Out-of-Order Simulator ***

Warmup Instructions: 50000000
Simulation Instructions: 100000000
Configuration: 2
Number of CPUs: 1
LLC sets: 2048
LLC ways: 16
Off-chip DRAM Channels: 1 Width: 64-bit Data Rate: 1600 MT/s

CPU 0 runs /datasets/cs240c-wi22-a00-public/data/Assignment2-gz/wrf_1212B.trace.gz
CPU 0 L1D next line prefetcher
CPU 0 L2C IP-based stride prefetcher
Initialize Hawkeye state
Heartbeat CPU 0 instructions: 1000001 cycles: 598660 heartbeat IPC: 1.6704 cumulative IPC: 1.6704 (Simulation time: 0 hr 0 min 35 sec) 
Heartbeat CPU 0 instructions: 2000000 cycles: 1197118 heartbeat IPC: 1.67096 cumulative IPC: 1.67068 (Simulation time: 0 hr 1 min 10 sec) 
Heartbeat CPU 0 instructions: 3000001 cycles: 1795976 heartbeat IPC: 1.66985 cumulative IPC: 1.6704 (Simulation time: 0 hr 1 min 45 sec) 
Heartbeat CPU 0 instructions: 4000000 cycles: 2394087 heartbeat IPC: 1.67193 cumulative IPC: 1.67078 (Simulation time: 0 hr 2 min 20 sec) 
Heartbeat CPU 0 instructions: 5000000 cycles: 2993053 heartbeat IPC: 1.66954 cumulative IPC: 1.67054 (Simulation time: 0 hr 3 min 3 sec) 
Heartbeat CPU 0 instructions: 6000001 cycles: 3592667 heartbeat IPC: 1.66774 cumulative IPC: 1.67007 (Simulation time: 0 hr 3 min 41 sec) 
Heartbeat CPU 0 instructions: 7000001 cycles: 4190665 heartbeat IPC: 1.67225 cumulative IPC: 1.67038 (Simulation time: 0 hr 4 min 16 sec) 
Heartbeat CPU 0 instructions: 8000000 cycles: 4788873 heartbeat IPC: 1.67166 cumulative IPC: 1.67054 (Simulation time: 0 hr 4 min 55 sec) 
Heartbeat CPU 0 instructions: 9000002 cycles: 5387792 heartbeat IPC: 1.66968 cumulative IPC: 1.67044 (Simulation time: 0 hr 5 min 28 sec) 
Heartbeat CPU 0 instructions: 10000001 cycles: 5987357 heartbeat IPC: 1.66787 cumulative IPC: 1.67019 (Simulation time: 0 hr 6 min 0 sec) 
Heartbeat CPU 0 instructions: 11000003 cycles: 6585304 heartbeat IPC: 1.67239 cumulative IPC: 1.67039 (Simulation time: 0 hr 6 min 39 sec) 
Heartbeat CPU 0 instructions: 12000000 cycles: 7184891 heartbeat IPC: 1.66781 cumulative IPC: 1.67017 (Simulation time: 0 hr 7 min 14 sec) 
Heartbeat CPU 0 instructions: 13000000 cycles: 7782944 heartbeat IPC: 1.67209 cumulative IPC: 1.67032 (Simulation time: 0 hr 7 min 48 sec) 
Heartbeat CPU 0 instructions: 14000002 cycles: 8381675 heartbeat IPC: 1.6702 cumulative IPC: 1.67031 (Simulation time: 0 hr 8 min 23 sec) 
Heartbeat CPU 0 instructions: 15000003 cycles: 8981003 heartbeat IPC: 1.66854 cumulative IPC: 1.67019 (Simulation time: 0 hr 8 min 58 sec) 
Heartbeat CPU 0 instructions: 16000000 cycles: 9579443 heartbeat IPC: 1.67101 cumulative IPC: 1.67024 (Simulation time: 0 hr 9 min 37 sec) 
Heartbeat CPU 0 instructions: 17000000 cycles: 10177930 heartbeat IPC: 1.67088 cumulative IPC: 1.67028 (Simulation time: 0 hr 10 min 10 sec) 
Heartbeat CPU 0 instructions: 18000000 cycles: 10777771 heartbeat IPC: 1.66711 cumulative IPC: 1.6701 (Simulation time: 0 hr 10 min 46 sec) 
Heartbeat CPU 0 instructions: 19000003 cycles: 11376778 heartbeat IPC: 1.66943 cumulative IPC: 1.67007 (Simulation time: 0 hr 11 min 23 sec) 
Heartbeat CPU 0 instructions: 20000000 cycles: 11974273 heartbeat IPC: 1.67365 cumulative IPC: 1.67025 (Simulation time: 0 hr 12 min 0 sec) 
Heartbeat CPU 0 instructions: 21000001 cycles: 12573597 heartbeat IPC: 1.66855 cumulative IPC: 1.67017 (Simulation time: 0 hr 12 min 40 sec) 
Heartbeat CPU 0 instructions: 22000001 cycles: 13172417 heartbeat IPC: 1.66995 cumulative IPC: 1.67016 (Simulation time: 0 hr 13 min 19 sec) 
Heartbeat CPU 0 instructions: 23000000 cycles: 13770961 heartbeat IPC: 1.67072 cumulative IPC: 1.67018 (Simulation time: 0 hr 13 min 54 sec) 
Heartbeat CPU 0 instructions: 24000000 cycles: 14370486 heartbeat IPC: 1.66799 cumulative IPC: 1.67009 (Simulation time: 0 hr 14 min 31 sec) 
Heartbeat CPU 0 instructions: 25000002 cycles: 14968207 heartbeat IPC: 1.67302 cumulative IPC: 1.67021 (Simulation time: 0 hr 15 min 8 sec) 
Heartbeat CPU 0 instructions: 26000000 cycles: 15566336 heartbeat IPC: 1.67188 cumulative IPC: 1.67027 (Simulation time: 0 hr 15 min 44 sec) 
Heartbeat CPU 0 instructions: 27000000 cycles: 16165864 heartbeat IPC: 1.66798 cumulative IPC: 1.67019 (Simulation time: 0 hr 16 min 20 sec) 
Heartbeat CPU 0 instructions: 28000000 cycles: 16764717 heartbeat IPC: 1.66986 cumulative IPC: 1.67017 (Simulation time: 0 hr 16 min 55 sec) 
Heartbeat CPU 0 instructions: 29000000 cycles: 17361460 heartbeat IPC: 1.67576 cumulative IPC: 1.67037 (Simulation time: 0 hr 17 min 33 sec) 
Heartbeat CPU 0 instructions: 30000003 cycles: 17961441 heartbeat IPC: 1.66672 cumulative IPC: 1.67024 (Simulation time: 0 hr 18 min 6 sec) 
Heartbeat CPU 0 instructions: 31000000 cycles: 18559292 heartbeat IPC: 1.67265 cumulative IPC: 1.67032 (Simulation time: 0 hr 18 min 44 sec) 
Heartbeat CPU 0 instructions: 32000000 cycles: 19157615 heartbeat IPC: 1.67134 cumulative IPC: 1.67035 (Simulation time: 0 hr 19 min 22 sec) 
Heartbeat CPU 0 instructions: 33000003 cycles: 19755964 heartbeat IPC: 1.67127 cumulative IPC: 1.67038 (Simulation time: 0 hr 20 min 2 sec) 
Heartbeat CPU 0 instructions: 34000000 cycles: 20353987 heartbeat IPC: 1.67217 cumulative IPC: 1.67043 (Simulation time: 0 hr 20 min 39 sec) 
Heartbeat CPU 0 instructions: 35000002 cycles: 20953782 heartbeat IPC: 1.66724 cumulative IPC: 1.67034 (Simulation time: 0 hr 21 min 15 sec) 
Heartbeat CPU 0 instructions: 36000000 cycles: 21552561 heartbeat IPC: 1.67006 cumulative IPC: 1.67034 (Simulation time: 0 hr 21 min 52 sec) 
Heartbeat CPU 0 instructions: 37000003 cycles: 22150479 heartbeat IPC: 1.67248 cumulative IPC: 1.67039 (Simulation time: 0 hr 22 min 33 sec) 
Heartbeat CPU 0 instructions: 38000003 cycles: 22749137 heartbeat IPC: 1.6704 cumulative IPC: 1.67039 (Simulation time: 0 hr 23 min 10 sec) 
Heartbeat CPU 0 instructions: 39000001 cycles: 23347351 heartbeat IPC: 1.67164 cumulative IPC: 1.67043 (Simulation time: 0 hr 23 min 51 sec) 
Heartbeat CPU 0 instructions: 40000000 cycles: 23945331 heartbeat IPC: 1.6723 cumulative IPC: 1.67047 (Simulation time: 0 hr 24 min 27 sec) 
Heartbeat CPU 0 instructions: 41000001 cycles: 24544122 heartbeat IPC: 1.67003 cumulative IPC: 1.67046 (Simulation time: 0 hr 25 min 4 sec) 
Heartbeat CPU 0 instructions: 42000002 cycles: 25143016 heartbeat IPC: 1.66975 cumulative IPC: 1.67044 (Simulation time: 0 hr 25 min 40 sec) 
Heartbeat CPU 0 instructions: 43000001 cycles: 25739484 heartbeat IPC: 1.67653 cumulative IPC: 1.67059 (Simulation time: 0 hr 26 min 20 sec) 
Heartbeat CPU 0 instructions: 44000000 cycles: 26338468 heartbeat IPC: 1.66949 cumulative IPC: 1.67056 (Simulation time: 0 hr 26 min 54 sec) 
Heartbeat CPU 0 instructions: 45000000 cycles: 26936932 heartbeat IPC: 1.67094 cumulative IPC: 1.67057 (Simulation time: 0 hr 27 min 28 sec) 
Heartbeat CPU 0 instructions: 46000000 cycles: 27536415 heartbeat IPC: 1.6681 cumulative IPC: 1.67052 (Simulation time: 0 hr 28 min 0 sec) 
Heartbeat CPU 0 instructions: 47000000 cycles: 28133477 heartbeat IPC: 1.67487 cumulative IPC: 1.67061 (Simulation time: 0 hr 28 min 38 sec) 
Heartbeat CPU 0 instructions: 48000000 cycles: 28732153 heartbeat IPC: 1.67035 cumulative IPC: 1.6706 (Simulation time: 0 hr 29 min 13 sec) 
Heartbeat CPU 0 instructions: 49000002 cycles: 29331647 heartbeat IPC: 1.66808 cumulative IPC: 1.67055 (Simulation time: 0 hr 29 min 54 sec) 
Heartbeat CPU 0 instructions: 50000002 cycles: 29930506 heartbeat IPC: 1.66984 cumulative IPC: 1.67054 (Simulation time: 0 hr 30 min 35 sec) 

Warmup complete CPU 0 instructions: 50000002 cycles: 29930506 (Simulation time: 0 hr 30 min 35 sec) 

Heartbeat CPU 0 instructions: 51000002 cycles: 31730093 heartbeat IPC: 0.555683 cumulative IPC: 0.555683 (Simulation time: 0 hr 31 min 22 sec) 
Heartbeat CPU 0 instructions: 52000000 cycles: 33452746 heartbeat IPC: 0.580499 cumulative IPC: 0.56782 (Simulation time: 0 hr 32 min 11 sec) 
Heartbeat CPU 0 instructions: 53000002 cycles: 35219910 heartbeat IPC: 0.56588 cumulative IPC: 0.567172 (Simulation time: 0 hr 33 min 7 sec) 
Heartbeat CPU 0 instructions: 54000001 cycles: 37000483 heartbeat IPC: 0.561616 cumulative IPC: 0.565773 (Simulation time: 0 hr 33 min 53 sec) 
Heartbeat CPU 0 instructions: 55000000 cycles: 38780345 heartbeat IPC: 0.561841 cumulative IPC: 0.564982 (Simulation time: 0 hr 34 min 42 sec) 
Heartbeat CPU 0 instructions: 56000000 cycles: 40552312 heartbeat IPC: 0.564345 cumulative IPC: 0.564875 (Simulation time: 0 hr 35 min 30 sec) 
Heartbeat CPU 0 instructions: 57000001 cycles: 42277441 heartbeat IPC: 0.579667 cumulative IPC: 0.566942 (Simulation time: 0 hr 36 min 15 sec) 
Heartbeat CPU 0 instructions: 58000001 cycles: 44058294 heartbeat IPC: 0.561529 cumulative IPC: 0.56626 (Simulation time: 0 hr 36 min 56 sec) 
Heartbeat CPU 0 instructions: 59000000 cycles: 45840136 heartbeat IPC: 0.561216 cumulative IPC: 0.565695 (Simulation time: 0 hr 37 min 52 sec) 
Heartbeat CPU 0 instructions: 60000000 cycles: 47623325 heartbeat IPC: 0.560793 cumulative IPC: 0.565201 (Simulation time: 0 hr 38 min 36 sec) 
Heartbeat CPU 0 instructions: 61000001 cycles: 49361598 heartbeat IPC: 0.575284 cumulative IPC: 0.566103 (Simulation time: 0 hr 39 min 16 sec) 
Heartbeat CPU 0 instructions: 62000001 cycles: 51104648 heartbeat IPC: 0.573707 cumulative IPC: 0.566729 (Simulation time: 0 hr 40 min 0 sec) 
Heartbeat CPU 0 instructions: 63000002 cycles: 52890009 heartbeat IPC: 0.560111 cumulative IPC: 0.566214 (Simulation time: 0 hr 40 min 43 sec) 
Heartbeat CPU 0 instructions: 64000000 cycles: 54672424 heartbeat IPC: 0.561035 cumulative IPC: 0.565841 (Simulation time: 0 hr 41 min 26 sec) 
Heartbeat CPU 0 instructions: 65000000 cycles: 56458432 heartbeat IPC: 0.559908 cumulative IPC: 0.565442 (Simulation time: 0 hr 42 min 19 sec) 
Heartbeat CPU 0 instructions: 66000001 cycles: 58173005 heartbeat IPC: 0.583236 cumulative IPC: 0.566522 (Simulation time: 0 hr 43 min 9 sec) 
Heartbeat CPU 0 instructions: 67000002 cycles: 59929265 heartbeat IPC: 0.569392 cumulative IPC: 0.56669 (Simulation time: 0 hr 43 min 52 sec) 
Heartbeat CPU 0 instructions: 68000000 cycles: 61714545 heartbeat IPC: 0.560135 cumulative IPC: 0.566322 (Simulation time: 0 hr 44 min 43 sec) 
Heartbeat CPU 0 instructions: 69000001 cycles: 63496692 heartbeat IPC: 0.561122 cumulative IPC: 0.566046 (Simulation time: 0 hr 45 min 28 sec) 
Heartbeat CPU 0 instructions: 70000000 cycles: 65264094 heartbeat IPC: 0.565802 cumulative IPC: 0.566034 (Simulation time: 0 hr 46 min 10 sec) 
Heartbeat CPU 0 instructions: 71000001 cycles: 66979238 heartbeat IPC: 0.583042 cumulative IPC: 0.566821 (Simulation time: 0 hr 46 min 50 sec) 
Heartbeat CPU 0 instructions: 72000000 cycles: 68755786 heartbeat IPC: 0.562889 cumulative IPC: 0.566641 (Simulation time: 0 hr 47 min 40 sec) 
Heartbeat CPU 0 instructions: 73000001 cycles: 70543251 heartbeat IPC: 0.559452 cumulative IPC: 0.566325 (Simulation time: 0 hr 48 min 28 sec) 
Heartbeat CPU 0 instructions: 74000000 cycles: 72322862 heartbeat IPC: 0.56192 cumulative IPC: 0.56614 (Simulation time: 0 hr 49 min 12 sec) 
Heartbeat CPU 0 instructions: 75000002 cycles: 74076993 heartbeat IPC: 0.570084 cumulative IPC: 0.566296 (Simulation time: 0 hr 49 min 53 sec) 
Heartbeat CPU 0 instructions: 76000000 cycles: 75810969 heartbeat IPC: 0.576708 cumulative IPC: 0.56669 (Simulation time: 0 hr 50 min 36 sec) 
Heartbeat CPU 0 instructions: 77000003 cycles: 77588556 heartbeat IPC: 0.562562 cumulative IPC: 0.566536 (Simulation time: 0 hr 51 min 26 sec) 
Heartbeat CPU 0 instructions: 78000000 cycles: 79370671 heartbeat IPC: 0.561129 cumulative IPC: 0.566341 (Simulation time: 0 hr 52 min 10 sec) 
Heartbeat CPU 0 instructions: 79000000 cycles: 81167923 heartbeat IPC: 0.556405 cumulative IPC: 0.565993 (Simulation time: 0 hr 52 min 53 sec) 
Heartbeat CPU 0 instructions: 80000000 cycles: 82887335 heartbeat IPC: 0.581594 cumulative IPC: 0.566499 (Simulation time: 0 hr 53 min 41 sec) 
Heartbeat CPU 0 instructions: 81000003 cycles: 84653124 heartbeat IPC: 0.566321 cumulative IPC: 0.566493 (Simulation time: 0 hr 54 min 39 sec) 
Heartbeat CPU 0 instructions: 82000002 cycles: 86441917 heartbeat IPC: 0.559036 cumulative IPC: 0.566257 (Simulation time: 0 hr 55 min 34 sec) 
Heartbeat CPU 0 instructions: 83000001 cycles: 88226442 heartbeat IPC: 0.560373 cumulative IPC: 0.566077 (Simulation time: 0 hr 56 min 19 sec) 
Heartbeat CPU 0 instructions: 84000000 cycles: 90000990 heartbeat IPC: 0.563523 cumulative IPC: 0.566002 (Simulation time: 0 hr 57 min 4 sec) 
Heartbeat CPU 0 instructions: 85000000 cycles: 91718394 heartbeat IPC: 0.582274 cumulative IPC: 0.566454 (Simulation time: 0 hr 57 min 44 sec) 
Heartbeat CPU 0 instructions: 86000001 cycles: 93503556 heartbeat IPC: 0.560174 cumulative IPC: 0.566278 (Simulation time: 0 hr 58 min 28 sec) 
Heartbeat CPU 0 instructions: 87000000 cycles: 95285802 heartbeat IPC: 0.561089 cumulative IPC: 0.566136 (Simulation time: 0 hr 59 min 12 sec) 
Heartbeat CPU 0 instructions: 88000000 cycles: 97062901 heartbeat IPC: 0.562715 cumulative IPC: 0.566046 (Simulation time: 0 hr 59 min 55 sec) 
Heartbeat CPU 0 instructions: 89000000 cycles: 98811195 heartbeat IPC: 0.571986 cumulative IPC: 0.566196 (Simulation time: 1 hr 0 min 35 sec) 
Heartbeat CPU 0 instructions: 90000000 cycles: 100566922 heartbeat IPC: 0.569565 cumulative IPC: 0.56628 (Simulation time: 1 hr 1 min 18 sec) 
Heartbeat CPU 0 instructions: 91000001 cycles: 102345947 heartbeat IPC: 0.562106 cumulative IPC: 0.566178 (Simulation time: 1 hr 2 min 2 sec) 
Heartbeat CPU 0 instructions: 92000000 cycles: 104129127 heartbeat IPC: 0.560795 cumulative IPC: 0.566048 (Simulation time: 1 hr 2 min 54 sec) 
Heartbeat CPU 0 instructions: 93000003 cycles: 105910805 heartbeat IPC: 0.56127 cumulative IPC: 0.565936 (Simulation time: 1 hr 3 min 39 sec) 
Heartbeat CPU 0 instructions: 94000001 cycles: 107637299 heartbeat IPC: 0.579207 cumulative IPC: 0.566231 (Simulation time: 1 hr 4 min 17 sec) 
Heartbeat CPU 0 instructions: 95000001 cycles: 109417954 heartbeat IPC: 0.561591 cumulative IPC: 0.566127 (Simulation time: 1 hr 4 min 59 sec) 
Heartbeat CPU 0 instructions: 96000000 cycles: 111198165 heartbeat IPC: 0.561731 cumulative IPC: 0.566031 (Simulation time: 1 hr 5 min 43 sec) 
Heartbeat CPU 0 instructions: 97000000 cycles: 112977288 heartbeat IPC: 0.562075 cumulative IPC: 0.565946 (Simulation time: 1 hr 6 min 22 sec) 
Heartbeat CPU 0 instructions: 98000000 cycles: 114736606 heartbeat IPC: 0.568402 cumulative IPC: 0.565997 (Simulation time: 1 hr 6 min 59 sec) 
Heartbeat CPU 0 instructions: 99000000 cycles: 116490670 heartbeat IPC: 0.570105 cumulative IPC: 0.56608 (Simulation time: 1 hr 7 min 36 sec) 
Heartbeat CPU 0 instructions: 100000000 cycles: 118268519 heartbeat IPC: 0.562477 cumulative IPC: 0.566008 (Simulation time: 1 hr 8 min 15 sec) 
Heartbeat CPU 0 instructions: 101000000 cycles: 120046204 heartbeat IPC: 0.562529 cumulative IPC: 0.565939 (Simulation time: 1 hr 8 min 53 sec) 
Heartbeat CPU 0 instructions: 102000003 cycles: 121834660 heartbeat IPC: 0.559143 cumulative IPC: 0.565807 (Simulation time: 1 hr 9 min 30 sec) 
Heartbeat CPU 0 instructions: 103000001 cycles: 123565492 heartbeat IPC: 0.577756 cumulative IPC: 0.566028 (Simulation time: 1 hr 10 min 6 sec) 
Heartbeat CPU 0 instructions: 104000000 cycles: 125350026 heartbeat IPC: 0.56037 cumulative IPC: 0.565922 (Simulation time: 1 hr 10 min 44 sec) 
Heartbeat CPU 0 instructions: 105000002 cycles: 127129890 heartbeat IPC: 0.561842 cumulative IPC: 0.565847 (Simulation time: 1 hr 11 min 20 sec) 
Heartbeat CPU 0 instructions: 106000001 cycles: 128907945 heartbeat IPC: 0.562412 cumulative IPC: 0.565785 (Simulation time: 1 hr 11 min 56 sec) 
Heartbeat CPU 0 instructions: 107000003 cycles: 130666261 heartbeat IPC: 0.568727 cumulative IPC: 0.565837 (Simulation time: 1 hr 12 min 30 sec) 
Heartbeat CPU 0 instructions: 108000000 cycles: 132431642 heartbeat IPC: 0.566448 cumulative IPC: 0.565847 (Simulation time: 1 hr 13 min 2 sec) 
Heartbeat CPU 0 instructions: 109000002 cycles: 134215478 heartbeat IPC: 0.560591 cumulative IPC: 0.565757 (Simulation time: 1 hr 13 min 39 sec) 
Heartbeat CPU 0 instructions: 110000003 cycles: 135994416 heartbeat IPC: 0.562134 cumulative IPC: 0.565697 (Simulation time: 1 hr 14 min 13 sec) 
Heartbeat CPU 0 instructions: 111000000 cycles: 137780117 heartbeat IPC: 0.560003 cumulative IPC: 0.565602 (Simulation time: 1 hr 14 min 44 sec) 
Heartbeat CPU 0 instructions: 112000000 cycles: 139521020 heartbeat IPC: 0.574415 cumulative IPC: 0.565742 (Simulation time: 1 hr 15 min 14 sec) 
Heartbeat CPU 0 instructions: 113000000 cycles: 141299874 heartbeat IPC: 0.56216 cumulative IPC: 0.565685 (Simulation time: 1 hr 15 min 42 sec) 
Heartbeat CPU 0 instructions: 114000000 cycles: 143079290 heartbeat IPC: 0.561982 cumulative IPC: 0.565627 (Simulation time: 1 hr 16 min 8 sec) 
Heartbeat CPU 0 instructions: 115000003 cycles: 144859241 heartbeat IPC: 0.561815 cumulative IPC: 0.565568 (Simulation time: 1 hr 16 min 36 sec) 
Heartbeat CPU 0 instructions: 116000000 cycles: 146615625 heartbeat IPC: 0.56935 cumulative IPC: 0.565625 (Simulation time: 1 hr 17 min 3 sec) 
Heartbeat CPU 0 instructions: 117000000 cycles: 148390726 heartbeat IPC: 0.563348 cumulative IPC: 0.565591 (Simulation time: 1 hr 17 min 33 sec) 
Heartbeat CPU 0 instructions: 118000002 cycles: 150170529 heartbeat IPC: 0.561861 cumulative IPC: 0.565535 (Simulation time: 1 hr 17 min 59 sec) 
Heartbeat CPU 0 instructions: 119000002 cycles: 151953935 heartbeat IPC: 0.560725 cumulative IPC: 0.565465 (Simulation time: 1 hr 18 min 24 sec) 
Heartbeat CPU 0 instructions: 120000000 cycles: 153729317 heartbeat IPC: 0.563258 cumulative IPC: 0.565434 (Simulation time: 1 hr 18 min 47 sec) 
Heartbeat CPU 0 instructions: 121000003 cycles: 155483979 heartbeat IPC: 0.569912 cumulative IPC: 0.565496 (Simulation time: 1 hr 19 min 9 sec) 
Heartbeat CPU 0 instructions: 122000000 cycles: 157263563 heartbeat IPC: 0.561927 cumulative IPC: 0.565446 (Simulation time: 1 hr 19 min 33 sec) 
Heartbeat CPU 0 instructions: 123000000 cycles: 159043751 heartbeat IPC: 0.561738 cumulative IPC: 0.565395 (Simulation time: 1 hr 19 min 57 sec) 
Heartbeat CPU 0 instructions: 124000000 cycles: 160822663 heartbeat IPC: 0.562141 cumulative IPC: 0.565351 (Simulation time: 1 hr 20 min 20 sec) 
Heartbeat CPU 0 instructions: 125000000 cycles: 162585723 heartbeat IPC: 0.567196 cumulative IPC: 0.565375 (Simulation time: 1 hr 20 min 42 sec) 
Heartbeat CPU 0 instructions: 126000003 cycles: 164366507 heartbeat IPC: 0.561552 cumulative IPC: 0.565325 (Simulation time: 1 hr 21 min 5 sec) 
Heartbeat CPU 0 instructions: 127000000 cycles: 166148641 heartbeat IPC: 0.561123 cumulative IPC: 0.56527 (Simulation time: 1 hr 21 min 26 sec) 
Heartbeat CPU 0 instructions: 128000000 cycles: 167927342 heartbeat IPC: 0.562208 cumulative IPC: 0.56523 (Simulation time: 1 hr 21 min 47 sec) 
Heartbeat CPU 0 instructions: 129000002 cycles: 169694326 heartbeat IPC: 0.565937 cumulative IPC: 0.565239 (Simulation time: 1 hr 22 min 9 sec) 
Heartbeat CPU 0 instructions: 130000000 cycles: 171469160 heartbeat IPC: 0.563432 cumulative IPC: 0.565217 (Simulation time: 1 hr 22 min 30 sec) 
Heartbeat CPU 0 instructions: 131000002 cycles: 173247538 heartbeat IPC: 0.562311 cumulative IPC: 0.565181 (Simulation time: 1 hr 22 min 50 sec) 
Heartbeat CPU 0 instructions: 132000000 cycles: 175031086 heartbeat IPC: 0.560679 cumulative IPC: 0.565125 (Simulation time: 1 hr 23 min 10 sec) 
Heartbeat CPU 0 instructions: 133000000 cycles: 176812706 heartbeat IPC: 0.561287 cumulative IPC: 0.565079 (Simulation time: 1 hr 23 min 29 sec) 
Heartbeat CPU 0 instructions: 134000000 cycles: 178574288 heartbeat IPC: 0.567672 cumulative IPC: 0.565109 (Simulation time: 1 hr 23 min 47 sec) 
Heartbeat CPU 0 instructions: 135000000 cycles: 180355943 heartbeat IPC: 0.561276 cumulative IPC: 0.565064 (Simulation time: 1 hr 24 min 3 sec) 
Heartbeat CPU 0 instructions: 136000000 cycles: 182136589 heartbeat IPC: 0.561594 cumulative IPC: 0.565023 (Simulation time: 1 hr 24 min 19 sec) 
Heartbeat CPU 0 instructions: 137000000 cycles: 183919287 heartbeat IPC: 0.560948 cumulative IPC: 0.564976 (Simulation time: 1 hr 24 min 35 sec) 
Heartbeat CPU 0 instructions: 138000000 cycles: 185690349 heartbeat IPC: 0.564633 cumulative IPC: 0.564972 (Simulation time: 1 hr 24 min 48 sec) 
Heartbeat CPU 0 instructions: 139000001 cycles: 187469516 heartbeat IPC: 0.562061 cumulative IPC: 0.564939 (Simulation time: 1 hr 25 min 2 sec) 
Heartbeat CPU 0 instructions: 140000000 cycles: 189247141 heartbeat IPC: 0.562548 cumulative IPC: 0.564913 (Simulation time: 1 hr 25 min 15 sec) 
Heartbeat CPU 0 instructions: 141000001 cycles: 191025561 heartbeat IPC: 0.562297 cumulative IPC: 0.564884 (Simulation time: 1 hr 25 min 28 sec) 
Heartbeat CPU 0 instructions: 142000000 cycles: 192802800 heartbeat IPC: 0.56267 cumulative IPC: 0.56486 (Simulation time: 1 hr 25 min 41 sec) 
Heartbeat CPU 0 instructions: 143000001 cycles: 194583676 heartbeat IPC: 0.561522 cumulative IPC: 0.564824 (Simulation time: 1 hr 25 min 54 sec) 
Heartbeat CPU 0 instructions: 144000000 cycles: 196363114 heartbeat IPC: 0.561975 cumulative IPC: 0.564793 (Simulation time: 1 hr 26 min 6 sec) 
Heartbeat CPU 0 instructions: 145000000 cycles: 198144532 heartbeat IPC: 0.561351 cumulative IPC: 0.564757 (Simulation time: 1 hr 26 min 21 sec) 
Heartbeat CPU 0 instructions: 146000000 cycles: 199933764 heartbeat IPC: 0.558899 cumulative IPC: 0.564695 (Simulation time: 1 hr 26 min 34 sec) 
Heartbeat CPU 0 instructions: 147000003 cycles: 201708430 heartbeat IPC: 0.563488 cumulative IPC: 0.564683 (Simulation time: 1 hr 26 min 45 sec) 
Heartbeat CPU 0 instructions: 148000000 cycles: 203489647 heartbeat IPC: 0.561412 cumulative IPC: 0.564649 (Simulation time: 1 hr 26 min 55 sec) 
Heartbeat CPU 0 instructions: 149000002 cycles: 205267731 heartbeat IPC: 0.562404 cumulative IPC: 0.564626 (Simulation time: 1 hr 27 min 5 sec) 
Heartbeat CPU 0 instructions: 150000002 cycles: 207065680 heartbeat IPC: 0.556189 cumulative IPC: 0.564541 (Simulation time: 1 hr 27 min 13 sec) 
Finished CPU 0 instructions: 100000000 cycles: 177135174 cummulative IPC: 0.564541 (Simulation time: 1 hr 27 min 13 sec) 

ChampSim completed all CPUs

Region of Interest Statistics

CPU 0 cummulative IPC: 0.564541 instructions: 100000000 cycles: 177135174
LLC TOTAL     ACCESS:     134342  HIT:      46384  MISS:      87958
LLC LOAD      ACCESS:      14854  HIT:       3869  MISS:      10985
LLC RFO       ACCESS:       1064  HIT:        154  MISS:        910
LLC PREFETCH  ACCESS:      79189  HIT:       7997  MISS:      71192
LLC WRITEBACK ACCESS:      39235  HIT:      34364  MISS:       4871
OPTgen accesses: 338
OPTgen hits: 188
OPTgen hit rate: 55.6213


