
*** ChampSim Multicore Out-of-Order Simulator ***

Warmup Instructions: 50000000
Simulation Instructions: 100000000
Configuration: 2
Number of CPUs: 1
LLC sets: 2048
LLC ways: 16
Off-chip DRAM Channels: 1 Width: 64-bit Data Rate: 1600 MT/s

CPU 0 runs /datasets/cs240c-wi22-a00-public/data/Assignment2-gz/leslie3d_1186B.trace.gz
CPU 0 L1D next line prefetcher
CPU 0 L2C IP-based stride prefetcher
Initialize Hawkeye state
Heartbeat CPU 0 instructions: 1000002 cycles: 564509 heartbeat IPC: 1.77145 cumulative IPC: 1.77145 (Simulation time: 0 hr 0 min 34 sec) 
Heartbeat CPU 0 instructions: 2000000 cycles: 1215810 heartbeat IPC: 1.53539 cumulative IPC: 1.64499 (Simulation time: 0 hr 1 min 11 sec) 
Heartbeat CPU 0 instructions: 3000000 cycles: 1867537 heartbeat IPC: 1.53438 cumulative IPC: 1.60639 (Simulation time: 0 hr 1 min 48 sec) 
Heartbeat CPU 0 instructions: 4000000 cycles: 2473072 heartbeat IPC: 1.65143 cumulative IPC: 1.61742 (Simulation time: 0 hr 2 min 21 sec) 
Heartbeat CPU 0 instructions: 5000000 cycles: 3083389 heartbeat IPC: 1.63849 cumulative IPC: 1.62159 (Simulation time: 0 hr 2 min 58 sec) 
Heartbeat CPU 0 instructions: 6000000 cycles: 3735110 heartbeat IPC: 1.5344 cumulative IPC: 1.60638 (Simulation time: 0 hr 3 min 33 sec) 
Heartbeat CPU 0 instructions: 7000001 cycles: 4386339 heartbeat IPC: 1.53556 cumulative IPC: 1.59586 (Simulation time: 0 hr 4 min 11 sec) 
Heartbeat CPU 0 instructions: 8000000 cycles: 4950911 heartbeat IPC: 1.77125 cumulative IPC: 1.61586 (Simulation time: 0 hr 4 min 45 sec) 
Heartbeat CPU 0 instructions: 9000003 cycles: 5602199 heartbeat IPC: 1.53542 cumulative IPC: 1.60651 (Simulation time: 0 hr 5 min 22 sec) 
Heartbeat CPU 0 instructions: 10000001 cycles: 6253364 heartbeat IPC: 1.53571 cumulative IPC: 1.59914 (Simulation time: 0 hr 5 min 58 sec) 
Heartbeat CPU 0 instructions: 11000000 cycles: 6820146 heartbeat IPC: 1.76435 cumulative IPC: 1.61287 (Simulation time: 0 hr 6 min 34 sec) 
Heartbeat CPU 0 instructions: 12000000 cycles: 7469235 heartbeat IPC: 1.54062 cumulative IPC: 1.60659 (Simulation time: 0 hr 7 min 8 sec) 
Heartbeat CPU 0 instructions: 13000002 cycles: 8120721 heartbeat IPC: 1.53496 cumulative IPC: 1.60084 (Simulation time: 0 hr 7 min 42 sec) 
Heartbeat CPU 0 instructions: 14000000 cycles: 8755148 heartbeat IPC: 1.57622 cumulative IPC: 1.59906 (Simulation time: 0 hr 8 min 17 sec) 
Heartbeat CPU 0 instructions: 15000000 cycles: 9336232 heartbeat IPC: 1.72092 cumulative IPC: 1.60664 (Simulation time: 0 hr 8 min 50 sec) 
Heartbeat CPU 0 instructions: 16000000 cycles: 9987796 heartbeat IPC: 1.53477 cumulative IPC: 1.60196 (Simulation time: 0 hr 9 min 28 sec) 
Heartbeat CPU 0 instructions: 17000000 cycles: 10638858 heartbeat IPC: 1.53595 cumulative IPC: 1.59792 (Simulation time: 0 hr 10 min 2 sec) 
Heartbeat CPU 0 instructions: 18000003 cycles: 11203332 heartbeat IPC: 1.77157 cumulative IPC: 1.60667 (Simulation time: 0 hr 10 min 35 sec) 
Heartbeat CPU 0 instructions: 19000003 cycles: 11854615 heartbeat IPC: 1.53543 cumulative IPC: 1.60275 (Simulation time: 0 hr 11 min 12 sec) 
Heartbeat CPU 0 instructions: 20000000 cycles: 12505779 heartbeat IPC: 1.53571 cumulative IPC: 1.59926 (Simulation time: 0 hr 11 min 49 sec) 
Heartbeat CPU 0 instructions: 21000001 cycles: 13101419 heartbeat IPC: 1.67887 cumulative IPC: 1.60288 (Simulation time: 0 hr 12 min 26 sec) 
Heartbeat CPU 0 instructions: 22000003 cycles: 13721399 heartbeat IPC: 1.61296 cumulative IPC: 1.60334 (Simulation time: 0 hr 13 min 5 sec) 
Heartbeat CPU 0 instructions: 23000001 cycles: 14372560 heartbeat IPC: 1.53572 cumulative IPC: 1.60027 (Simulation time: 0 hr 13 min 41 sec) 
Heartbeat CPU 0 instructions: 24000000 cycles: 15024196 heartbeat IPC: 1.5346 cumulative IPC: 1.59742 (Simulation time: 0 hr 14 min 19 sec) 
Heartbeat CPU 0 instructions: 25000000 cycles: 15588250 heartbeat IPC: 1.77288 cumulative IPC: 1.60377 (Simulation time: 0 hr 14 min 53 sec) 
Heartbeat CPU 0 instructions: 26000003 cycles: 16240228 heartbeat IPC: 1.5338 cumulative IPC: 1.60096 (Simulation time: 0 hr 15 min 31 sec) 
Heartbeat CPU 0 instructions: 27000000 cycles: 16891856 heartbeat IPC: 1.53461 cumulative IPC: 1.5984 (Simulation time: 0 hr 16 min 9 sec) 
Heartbeat CPU 0 instructions: 28000000 cycles: 17455988 heartbeat IPC: 1.77263 cumulative IPC: 1.60403 (Simulation time: 0 hr 16 min 42 sec) 
Heartbeat CPU 0 instructions: 29000002 cycles: 18107431 heartbeat IPC: 1.53506 cumulative IPC: 1.60155 (Simulation time: 0 hr 17 min 18 sec) 
Heartbeat CPU 0 instructions: 30000002 cycles: 18758781 heartbeat IPC: 1.53527 cumulative IPC: 1.59925 (Simulation time: 0 hr 17 min 56 sec) 
Heartbeat CPU 0 instructions: 31000002 cycles: 19382831 heartbeat IPC: 1.60244 cumulative IPC: 1.59935 (Simulation time: 0 hr 18 min 32 sec) 
Heartbeat CPU 0 instructions: 32000000 cycles: 19974310 heartbeat IPC: 1.69067 cumulative IPC: 1.60206 (Simulation time: 0 hr 19 min 5 sec) 
Heartbeat CPU 0 instructions: 33000000 cycles: 20625863 heartbeat IPC: 1.53479 cumulative IPC: 1.59993 (Simulation time: 0 hr 19 min 43 sec) 
Heartbeat CPU 0 instructions: 34000000 cycles: 21277893 heartbeat IPC: 1.53367 cumulative IPC: 1.5979 (Simulation time: 0 hr 20 min 17 sec) 
Heartbeat CPU 0 instructions: 35000000 cycles: 21842129 heartbeat IPC: 1.77231 cumulative IPC: 1.60241 (Simulation time: 0 hr 20 min 55 sec) 
Heartbeat CPU 0 instructions: 36000000 cycles: 22493694 heartbeat IPC: 1.53477 cumulative IPC: 1.60045 (Simulation time: 0 hr 21 min 32 sec) 
Heartbeat CPU 0 instructions: 37000003 cycles: 23145411 heartbeat IPC: 1.53441 cumulative IPC: 1.59859 (Simulation time: 0 hr 22 min 9 sec) 
Heartbeat CPU 0 instructions: 38000002 cycles: 23731085 heartbeat IPC: 1.70743 cumulative IPC: 1.60128 (Simulation time: 0 hr 22 min 47 sec) 
Heartbeat CPU 0 instructions: 39000000 cycles: 24361289 heartbeat IPC: 1.58678 cumulative IPC: 1.6009 (Simulation time: 0 hr 23 min 22 sec) 
Heartbeat CPU 0 instructions: 40000000 cycles: 25013098 heartbeat IPC: 1.53419 cumulative IPC: 1.59916 (Simulation time: 0 hr 24 min 0 sec) 
Heartbeat CPU 0 instructions: 41000000 cycles: 25664076 heartbeat IPC: 1.53615 cumulative IPC: 1.59756 (Simulation time: 0 hr 24 min 36 sec) 
Heartbeat CPU 0 instructions: 42000000 cycles: 26228899 heartbeat IPC: 1.77047 cumulative IPC: 1.60129 (Simulation time: 0 hr 25 min 11 sec) 
Heartbeat CPU 0 instructions: 43000002 cycles: 26880014 heartbeat IPC: 1.53583 cumulative IPC: 1.5997 (Simulation time: 0 hr 25 min 46 sec) 
Heartbeat CPU 0 instructions: 44000000 cycles: 27531584 heartbeat IPC: 1.53475 cumulative IPC: 1.59816 (Simulation time: 0 hr 26 min 21 sec) 
Heartbeat CPU 0 instructions: 45000001 cycles: 28090708 heartbeat IPC: 1.78851 cumulative IPC: 1.60195 (Simulation time: 0 hr 26 min 55 sec) 
Heartbeat CPU 0 instructions: 46000001 cycles: 28591451 heartbeat IPC: 1.99703 cumulative IPC: 1.60887 (Simulation time: 0 hr 27 min 30 sec) 
Heartbeat CPU 0 instructions: 47000001 cycles: 29092125 heartbeat IPC: 1.99731 cumulative IPC: 1.61556 (Simulation time: 0 hr 28 min 6 sec) 
Heartbeat CPU 0 instructions: 48000000 cycles: 29592980 heartbeat IPC: 1.99658 cumulative IPC: 1.62201 (Simulation time: 0 hr 28 min 41 sec) 
Heartbeat CPU 0 instructions: 49000002 cycles: 30093366 heartbeat IPC: 1.99846 cumulative IPC: 1.62827 (Simulation time: 0 hr 29 min 16 sec) 
Heartbeat CPU 0 instructions: 50000001 cycles: 30594293 heartbeat IPC: 1.9963 cumulative IPC: 1.63429 (Simulation time: 0 hr 29 min 53 sec) 

Warmup complete CPU 0 instructions: 50000001 cycles: 30594293 (Simulation time: 0 hr 29 min 53 sec) 

Heartbeat CPU 0 instructions: 51000000 cycles: 32244092 heartbeat IPC: 0.606134 cumulative IPC: 0.606134 (Simulation time: 0 hr 30 min 35 sec) 
Heartbeat CPU 0 instructions: 52000000 cycles: 33798345 heartbeat IPC: 0.643396 cumulative IPC: 0.624209 (Simulation time: 0 hr 31 min 13 sec) 
Heartbeat CPU 0 instructions: 53000003 cycles: 35441522 heartbeat IPC: 0.608579 cumulative IPC: 0.618911 (Simulation time: 0 hr 31 min 52 sec) 
Heartbeat CPU 0 instructions: 54000003 cycles: 36996868 heartbeat IPC: 0.642944 cumulative IPC: 0.624749 (Simulation time: 0 hr 32 min 34 sec) 
Heartbeat CPU 0 instructions: 55000001 cycles: 38856854 heartbeat IPC: 0.537637 cumulative IPC: 0.605139 (Simulation time: 0 hr 33 min 12 sec) 
Heartbeat CPU 0 instructions: 56000000 cycles: 41247798 heartbeat IPC: 0.418244 cumulative IPC: 0.563195 (Simulation time: 0 hr 33 min 51 sec) 
Heartbeat CPU 0 instructions: 57000003 cycles: 43565676 heartbeat IPC: 0.43143 cumulative IPC: 0.53965 (Simulation time: 0 hr 34 min 33 sec) 
Heartbeat CPU 0 instructions: 58000001 cycles: 45931852 heartbeat IPC: 0.422622 cumulative IPC: 0.521595 (Simulation time: 0 hr 35 min 15 sec) 
Heartbeat CPU 0 instructions: 59000003 cycles: 48258011 heartbeat IPC: 0.429894 cumulative IPC: 0.509519 (Simulation time: 0 hr 36 min 2 sec) 
Heartbeat CPU 0 instructions: 60000000 cycles: 50607305 heartbeat IPC: 0.425659 cumulative IPC: 0.499675 (Simulation time: 0 hr 36 min 47 sec) 
Heartbeat CPU 0 instructions: 61000003 cycles: 52949724 heartbeat IPC: 0.42691 cumulative IPC: 0.492051 (Simulation time: 0 hr 37 min 34 sec) 
Heartbeat CPU 0 instructions: 62000001 cycles: 55281268 heartbeat IPC: 0.428899 cumulative IPC: 0.486086 (Simulation time: 0 hr 38 min 20 sec) 
Heartbeat CPU 0 instructions: 63000000 cycles: 57257772 heartbeat IPC: 0.505943 cumulative IPC: 0.487558 (Simulation time: 0 hr 39 min 4 sec) 
Heartbeat CPU 0 instructions: 64000000 cycles: 58488932 heartbeat IPC: 0.812242 cumulative IPC: 0.501889 (Simulation time: 0 hr 39 min 42 sec) 
Heartbeat CPU 0 instructions: 65000000 cycles: 59745457 heartbeat IPC: 0.795846 cumulative IPC: 0.514559 (Simulation time: 0 hr 40 min 20 sec) 
Heartbeat CPU 0 instructions: 66000002 cycles: 60992858 heartbeat IPC: 0.801668 cumulative IPC: 0.526341 (Simulation time: 0 hr 41 min 0 sec) 
Heartbeat CPU 0 instructions: 67000001 cycles: 62238640 heartbeat IPC: 0.802708 cumulative IPC: 0.537221 (Simulation time: 0 hr 41 min 40 sec) 
Heartbeat CPU 0 instructions: 68000000 cycles: 63545717 heartbeat IPC: 0.765065 cumulative IPC: 0.546259 (Simulation time: 0 hr 42 min 16 sec) 
Heartbeat CPU 0 instructions: 69000000 cycles: 64781809 heartbeat IPC: 0.809001 cumulative IPC: 0.555758 (Simulation time: 0 hr 42 min 53 sec) 
Heartbeat CPU 0 instructions: 70000000 cycles: 66056668 heartbeat IPC: 0.7844 cumulative IPC: 0.563978 (Simulation time: 0 hr 43 min 32 sec) 
Heartbeat CPU 0 instructions: 71000000 cycles: 67295347 heartbeat IPC: 0.807312 cumulative IPC: 0.572191 (Simulation time: 0 hr 44 min 13 sec) 
Heartbeat CPU 0 instructions: 72000000 cycles: 68559981 heartbeat IPC: 0.790743 cumulative IPC: 0.579471 (Simulation time: 0 hr 44 min 49 sec) 
Heartbeat CPU 0 instructions: 73000000 cycles: 69824248 heartbeat IPC: 0.790972 cumulative IPC: 0.586287 (Simulation time: 0 hr 45 min 27 sec) 
Heartbeat CPU 0 instructions: 74000000 cycles: 71062163 heartbeat IPC: 0.80781 cumulative IPC: 0.593063 (Simulation time: 0 hr 46 min 7 sec) 
Heartbeat CPU 0 instructions: 75000003 cycles: 72349105 heartbeat IPC: 0.777038 cumulative IPC: 0.598733 (Simulation time: 0 hr 46 min 44 sec) 
Heartbeat CPU 0 instructions: 76000000 cycles: 73593927 heartbeat IPC: 0.803325 cumulative IPC: 0.604656 (Simulation time: 0 hr 47 min 22 sec) 
Heartbeat CPU 0 instructions: 77000000 cycles: 74883505 heartbeat IPC: 0.775447 cumulative IPC: 0.609629 (Simulation time: 0 hr 48 min 0 sec) 
Heartbeat CPU 0 instructions: 78000001 cycles: 76146052 heartbeat IPC: 0.792051 cumulative IPC: 0.614685 (Simulation time: 0 hr 48 min 39 sec) 
Heartbeat CPU 0 instructions: 79000001 cycles: 77431018 heartbeat IPC: 0.778231 cumulative IPC: 0.619172 (Simulation time: 0 hr 49 min 14 sec) 
Heartbeat CPU 0 instructions: 80000000 cycles: 78706222 heartbeat IPC: 0.784187 cumulative IPC: 0.623546 (Simulation time: 0 hr 49 min 52 sec) 
Heartbeat CPU 0 instructions: 81000000 cycles: 79950994 heartbeat IPC: 0.80336 cumulative IPC: 0.628081 (Simulation time: 0 hr 50 min 30 sec) 
Heartbeat CPU 0 instructions: 82000003 cycles: 81239050 heartbeat IPC: 0.776366 cumulative IPC: 0.631852 (Simulation time: 0 hr 51 min 8 sec) 
Heartbeat CPU 0 instructions: 83000001 cycles: 82493600 heartbeat IPC: 0.797097 cumulative IPC: 0.635847 (Simulation time: 0 hr 51 min 45 sec) 
Heartbeat CPU 0 instructions: 84000000 cycles: 83774252 heartbeat IPC: 0.780851 cumulative IPC: 0.639339 (Simulation time: 0 hr 52 min 21 sec) 
Heartbeat CPU 0 instructions: 85000001 cycles: 85033218 heartbeat IPC: 0.794303 cumulative IPC: 0.642922 (Simulation time: 0 hr 53 min 1 sec) 
Heartbeat CPU 0 instructions: 86000003 cycles: 86311854 heartbeat IPC: 0.782085 cumulative IPC: 0.646116 (Simulation time: 0 hr 53 min 39 sec) 
Heartbeat CPU 0 instructions: 87000001 cycles: 87570991 heartbeat IPC: 0.794193 cumulative IPC: 0.649388 (Simulation time: 0 hr 54 min 15 sec) 
Heartbeat CPU 0 instructions: 88000000 cycles: 88837647 heartbeat IPC: 0.78948 cumulative IPC: 0.652435 (Simulation time: 0 hr 54 min 53 sec) 
Heartbeat CPU 0 instructions: 89000001 cycles: 90126627 heartbeat IPC: 0.775808 cumulative IPC: 0.655106 (Simulation time: 0 hr 55 min 32 sec) 
Heartbeat CPU 0 instructions: 90000002 cycles: 91388862 heartbeat IPC: 0.792246 cumulative IPC: 0.657954 (Simulation time: 0 hr 56 min 10 sec) 
Heartbeat CPU 0 instructions: 91000000 cycles: 92680839 heartbeat IPC: 0.774006 cumulative IPC: 0.660369 (Simulation time: 0 hr 56 min 46 sec) 
Heartbeat CPU 0 instructions: 92000000 cycles: 93935913 heartbeat IPC: 0.796766 cumulative IPC: 0.663071 (Simulation time: 0 hr 57 min 23 sec) 
Heartbeat CPU 0 instructions: 93000002 cycles: 95232434 heartbeat IPC: 0.771296 cumulative IPC: 0.665242 (Simulation time: 0 hr 58 min 1 sec) 
Heartbeat CPU 0 instructions: 94000000 cycles: 96471939 heartbeat IPC: 0.806772 cumulative IPC: 0.667905 (Simulation time: 0 hr 58 min 41 sec) 
Heartbeat CPU 0 instructions: 95000003 cycles: 97719125 heartbeat IPC: 0.801807 cumulative IPC: 0.670393 (Simulation time: 0 hr 59 min 19 sec) 
Heartbeat CPU 0 instructions: 96000000 cycles: 99003046 heartbeat IPC: 0.778862 cumulative IPC: 0.672429 (Simulation time: 0 hr 59 min 58 sec) 
Heartbeat CPU 0 instructions: 97000001 cycles: 100245031 heartbeat IPC: 0.805164 cumulative IPC: 0.674795 (Simulation time: 1 hr 0 min 38 sec) 
Heartbeat CPU 0 instructions: 98000002 cycles: 101539243 heartbeat IPC: 0.772672 cumulative IPC: 0.676581 (Simulation time: 1 hr 1 min 16 sec) 
Heartbeat CPU 0 instructions: 99000000 cycles: 102784035 heartbeat IPC: 0.803345 cumulative IPC: 0.678767 (Simulation time: 1 hr 1 min 54 sec) 
Heartbeat CPU 0 instructions: 100000000 cycles: 104080165 heartbeat IPC: 0.771528 cumulative IPC: 0.680403 (Simulation time: 1 hr 2 min 33 sec) 
Heartbeat CPU 0 instructions: 101000000 cycles: 105329144 heartbeat IPC: 0.800654 cumulative IPC: 0.682413 (Simulation time: 1 hr 3 min 12 sec) 
Heartbeat CPU 0 instructions: 102000001 cycles: 106578144 heartbeat IPC: 0.800641 cumulative IPC: 0.684356 (Simulation time: 1 hr 3 min 51 sec) 
Heartbeat CPU 0 instructions: 103000002 cycles: 107879359 heartbeat IPC: 0.768513 cumulative IPC: 0.685773 (Simulation time: 1 hr 4 min 28 sec) 
Heartbeat CPU 0 instructions: 104000000 cycles: 109117019 heartbeat IPC: 0.807975 cumulative IPC: 0.687699 (Simulation time: 1 hr 5 min 6 sec) 
Heartbeat CPU 0 instructions: 105000001 cycles: 110415488 heartbeat IPC: 0.770139 cumulative IPC: 0.68904 (Simulation time: 1 hr 5 min 44 sec) 
Heartbeat CPU 0 instructions: 106000002 cycles: 111660370 heartbeat IPC: 0.80329 cumulative IPC: 0.690795 (Simulation time: 1 hr 6 min 22 sec) 
Heartbeat CPU 0 instructions: 107000000 cycles: 112955605 heartbeat IPC: 0.772059 cumulative IPC: 0.692073 (Simulation time: 1 hr 7 min 1 sec) 
Heartbeat CPU 0 instructions: 108000000 cycles: 114214550 heartbeat IPC: 0.794316 cumulative IPC: 0.693612 (Simulation time: 1 hr 7 min 38 sec) 
Heartbeat CPU 0 instructions: 109000003 cycles: 115468433 heartbeat IPC: 0.797525 cumulative IPC: 0.695147 (Simulation time: 1 hr 8 min 14 sec) 
Heartbeat CPU 0 instructions: 110000001 cycles: 116771164 heartbeat IPC: 0.767617 cumulative IPC: 0.696243 (Simulation time: 1 hr 8 min 49 sec) 
Heartbeat CPU 0 instructions: 111000001 cycles: 118017941 heartbeat IPC: 0.802068 cumulative IPC: 0.697752 (Simulation time: 1 hr 9 min 24 sec) 
Heartbeat CPU 0 instructions: 112000000 cycles: 119355799 heartbeat IPC: 0.747463 cumulative IPC: 0.698501 (Simulation time: 1 hr 9 min 58 sec) 
Heartbeat CPU 0 instructions: 113000000 cycles: 120987123 heartbeat IPC: 0.612999 cumulative IPC: 0.696958 (Simulation time: 1 hr 10 min 31 sec) 
Heartbeat CPU 0 instructions: 114000000 cycles: 122598953 heartbeat IPC: 0.620413 cumulative IPC: 0.695617 (Simulation time: 1 hr 11 min 4 sec) 
Heartbeat CPU 0 instructions: 115000000 cycles: 124208184 heartbeat IPC: 0.621415 cumulative IPC: 0.694341 (Simulation time: 1 hr 11 min 36 sec) 
Heartbeat CPU 0 instructions: 116000000 cycles: 125825579 heartbeat IPC: 0.618278 cumulative IPC: 0.69305 (Simulation time: 1 hr 12 min 6 sec) 
Heartbeat CPU 0 instructions: 117000002 cycles: 127449947 heartbeat IPC: 0.615625 cumulative IPC: 0.691751 (Simulation time: 1 hr 12 min 35 sec) 
Heartbeat CPU 0 instructions: 118000000 cycles: 129078935 heartbeat IPC: 0.613877 cumulative IPC: 0.690463 (Simulation time: 1 hr 13 min 5 sec) 
Heartbeat CPU 0 instructions: 119000003 cycles: 130714827 heartbeat IPC: 0.611289 cumulative IPC: 0.689169 (Simulation time: 1 hr 13 min 37 sec) 
Heartbeat CPU 0 instructions: 120000000 cycles: 132382976 heartbeat IPC: 0.599465 cumulative IPC: 0.687699 (Simulation time: 1 hr 14 min 7 sec) 
Heartbeat CPU 0 instructions: 121000002 cycles: 134034337 heartbeat IPC: 0.605562 cumulative IPC: 0.686388 (Simulation time: 1 hr 14 min 36 sec) 
Heartbeat CPU 0 instructions: 122000000 cycles: 135720007 heartbeat IPC: 0.593235 cumulative IPC: 0.684894 (Simulation time: 1 hr 15 min 2 sec) 
Heartbeat CPU 0 instructions: 123000002 cycles: 137366612 heartbeat IPC: 0.607311 cumulative IPC: 0.683698 (Simulation time: 1 hr 15 min 27 sec) 
Heartbeat CPU 0 instructions: 124000000 cycles: 139024411 heartbeat IPC: 0.603208 cumulative IPC: 0.682467 (Simulation time: 1 hr 15 min 51 sec) 
Heartbeat CPU 0 instructions: 125000003 cycles: 140684477 heartbeat IPC: 0.602387 cumulative IPC: 0.68126 (Simulation time: 1 hr 16 min 17 sec) 
Heartbeat CPU 0 instructions: 126000000 cycles: 142319739 heartbeat IPC: 0.611521 cumulative IPC: 0.680239 (Simulation time: 1 hr 16 min 40 sec) 
Heartbeat CPU 0 instructions: 127000001 cycles: 144016793 heartbeat IPC: 0.589257 cumulative IPC: 0.678878 (Simulation time: 1 hr 17 min 4 sec) 
Heartbeat CPU 0 instructions: 128000000 cycles: 145669517 heartbeat IPC: 0.605061 cumulative IPC: 0.677817 (Simulation time: 1 hr 17 min 28 sec) 
Heartbeat CPU 0 instructions: 129000001 cycles: 147305695 heartbeat IPC: 0.611181 cumulative IPC: 0.676883 (Simulation time: 1 hr 17 min 49 sec) 
Heartbeat CPU 0 instructions: 130000003 cycles: 148981794 heartbeat IPC: 0.596625 cumulative IPC: 0.675747 (Simulation time: 1 hr 18 min 10 sec) 
Heartbeat CPU 0 instructions: 131000001 cycles: 154438377 heartbeat IPC: 0.183265 cumulative IPC: 0.654048 (Simulation time: 1 hr 18 min 51 sec) 
Heartbeat CPU 0 instructions: 132000000 cycles: 157355067 heartbeat IPC: 0.342854 cumulative IPC: 0.646888 (Simulation time: 1 hr 19 min 25 sec) 
Heartbeat CPU 0 instructions: 133000002 cycles: 159942141 heartbeat IPC: 0.386538 cumulative IPC: 0.641681 (Simulation time: 1 hr 19 min 55 sec) 
Heartbeat CPU 0 instructions: 134000000 cycles: 161288791 heartbeat IPC: 0.742582 cumulative IPC: 0.64272 (Simulation time: 1 hr 20 min 11 sec) 
Heartbeat CPU 0 instructions: 135000001 cycles: 162552646 heartbeat IPC: 0.791231 cumulative IPC: 0.644143 (Simulation time: 1 hr 20 min 26 sec) 
Heartbeat CPU 0 instructions: 136000000 cycles: 163795158 heartbeat IPC: 0.80482 cumulative IPC: 0.645641 (Simulation time: 1 hr 20 min 42 sec) 
Heartbeat CPU 0 instructions: 137000001 cycles: 165227238 heartbeat IPC: 0.698286 cumulative IPC: 0.646201 (Simulation time: 1 hr 20 min 57 sec) 
Heartbeat CPU 0 instructions: 138000003 cycles: 166767356 heartbeat IPC: 0.649302 cumulative IPC: 0.646236 (Simulation time: 1 hr 21 min 13 sec) 
Heartbeat CPU 0 instructions: 139000001 cycles: 168264572 heartbeat IPC: 0.667905 cumulative IPC: 0.646472 (Simulation time: 1 hr 21 min 30 sec) 
Heartbeat CPU 0 instructions: 140000000 cycles: 169774342 heartbeat IPC: 0.662352 cumulative IPC: 0.646644 (Simulation time: 1 hr 21 min 46 sec) 
Heartbeat CPU 0 instructions: 141000003 cycles: 171283521 heartbeat IPC: 0.662614 cumulative IPC: 0.646816 (Simulation time: 1 hr 22 min 3 sec) 
Heartbeat CPU 0 instructions: 142000003 cycles: 172828469 heartbeat IPC: 0.647271 cumulative IPC: 0.646821 (Simulation time: 1 hr 22 min 19 sec) 
Heartbeat CPU 0 instructions: 143000003 cycles: 174332062 heartbeat IPC: 0.665074 cumulative IPC: 0.647012 (Simulation time: 1 hr 22 min 36 sec) 
Heartbeat CPU 0 instructions: 144000000 cycles: 175839648 heartbeat IPC: 0.66331 cumulative IPC: 0.647181 (Simulation time: 1 hr 22 min 51 sec) 
Heartbeat CPU 0 instructions: 145000001 cycles: 177386106 heartbeat IPC: 0.64664 cumulative IPC: 0.647175 (Simulation time: 1 hr 23 min 7 sec) 
Heartbeat CPU 0 instructions: 146000003 cycles: 178908112 heartbeat IPC: 0.657029 cumulative IPC: 0.647276 (Simulation time: 1 hr 23 min 22 sec) 
Heartbeat CPU 0 instructions: 147000001 cycles: 181005593 heartbeat IPC: 0.476761 cumulative IPC: 0.644898 (Simulation time: 1 hr 23 min 40 sec) 
Heartbeat CPU 0 instructions: 148000000 cycles: 183547317 heartbeat IPC: 0.393433 cumulative IPC: 0.64072 (Simulation time: 1 hr 23 min 57 sec) 
Heartbeat CPU 0 instructions: 149000003 cycles: 185900758 heartbeat IPC: 0.424911 cumulative IPC: 0.637449 (Simulation time: 1 hr 24 min 14 sec) 
Heartbeat CPU 0 instructions: 150000001 cycles: 188275907 heartbeat IPC: 0.421025 cumulative IPC: 0.634189 (Simulation time: 1 hr 24 min 30 sec) 
Finished CPU 0 instructions: 100000000 cycles: 157681614 cummulative IPC: 0.634189 (Simulation time: 1 hr 24 min 30 sec) 

ChampSim completed all CPUs

Region of Interest Statistics

CPU 0 cummulative IPC: 0.634189 instructions: 100000000 cycles: 157681614
LLC TOTAL     ACCESS:    4660466  HIT:    1260610  MISS:    3399856
LLC LOAD      ACCESS:     475520  HIT:     124964  MISS:     350556
LLC RFO       ACCESS:     797045  HIT:      90524  MISS:     706521
LLC PREFETCH  ACCESS:    2243444  HIT:     524269  MISS:    1719175
LLC WRITEBACK ACCESS:    1144457  HIT:     520853  MISS:     623604
OPTgen accesses: 23837
OPTgen hits: 11436
OPTgen hit rate: 47.9758


