
*** ChampSim Multicore Out-of-Order Simulator ***

Warmup Instructions: 50000000
Simulation Instructions: 100000000
Configuration: 2
Number of CPUs: 1
LLC sets: 2048
LLC ways: 16
Off-chip DRAM Channels: 1 Width: 64-bit Data Rate: 1600 MT/s

CPU 0 runs /datasets/cs240c-wi22-a00-public/data/Assignment2-gz/cactusADM_1495B.trace.gz
CPU 0 L1D next line prefetcher
CPU 0 L2C IP-based stride prefetcher
Initialize Hawkeye state
Heartbeat CPU 0 instructions: 1000003 cycles: 593383 heartbeat IPC: 1.68526 cumulative IPC: 1.68526 (Simulation time: 0 hr 0 min 36 sec) 
Heartbeat CPU 0 instructions: 2000000 cycles: 1186345 heartbeat IPC: 1.68644 cumulative IPC: 1.68585 (Simulation time: 0 hr 1 min 14 sec) 
Heartbeat CPU 0 instructions: 3000003 cycles: 1779703 heartbeat IPC: 1.68533 cumulative IPC: 1.68568 (Simulation time: 0 hr 1 min 53 sec) 
Heartbeat CPU 0 instructions: 4000000 cycles: 2372522 heartbeat IPC: 1.68685 cumulative IPC: 1.68597 (Simulation time: 0 hr 2 min 31 sec) 
Heartbeat CPU 0 instructions: 5000000 cycles: 2965579 heartbeat IPC: 1.68618 cumulative IPC: 1.68601 (Simulation time: 0 hr 3 min 9 sec) 
Heartbeat CPU 0 instructions: 6000001 cycles: 3558796 heartbeat IPC: 1.68573 cumulative IPC: 1.68596 (Simulation time: 0 hr 3 min 46 sec) 
Heartbeat CPU 0 instructions: 7000000 cycles: 4151738 heartbeat IPC: 1.6865 cumulative IPC: 1.68604 (Simulation time: 0 hr 4 min 25 sec) 
Heartbeat CPU 0 instructions: 8000000 cycles: 4906753 heartbeat IPC: 1.32448 cumulative IPC: 1.63041 (Simulation time: 0 hr 5 min 9 sec) 
Heartbeat CPU 0 instructions: 9000002 cycles: 5499948 heartbeat IPC: 1.68579 cumulative IPC: 1.63638 (Simulation time: 0 hr 5 min 45 sec) 
Heartbeat CPU 0 instructions: 10000002 cycles: 6092872 heartbeat IPC: 1.68656 cumulative IPC: 1.64126 (Simulation time: 0 hr 6 min 21 sec) 
Heartbeat CPU 0 instructions: 11000001 cycles: 6686000 heartbeat IPC: 1.68598 cumulative IPC: 1.64523 (Simulation time: 0 hr 6 min 56 sec) 
Heartbeat CPU 0 instructions: 12000000 cycles: 7279157 heartbeat IPC: 1.68589 cumulative IPC: 1.64854 (Simulation time: 0 hr 7 min 32 sec) 
Heartbeat CPU 0 instructions: 13000001 cycles: 7872063 heartbeat IPC: 1.68661 cumulative IPC: 1.65141 (Simulation time: 0 hr 8 min 10 sec) 
Heartbeat CPU 0 instructions: 14000003 cycles: 8465330 heartbeat IPC: 1.68559 cumulative IPC: 1.6538 (Simulation time: 0 hr 8 min 48 sec) 
Heartbeat CPU 0 instructions: 15000001 cycles: 9058420 heartbeat IPC: 1.68608 cumulative IPC: 1.65592 (Simulation time: 0 hr 9 min 27 sec) 
Heartbeat CPU 0 instructions: 16000000 cycles: 9651689 heartbeat IPC: 1.68557 cumulative IPC: 1.65774 (Simulation time: 0 hr 10 min 6 sec) 
Heartbeat CPU 0 instructions: 17000002 cycles: 10244675 heartbeat IPC: 1.68638 cumulative IPC: 1.6594 (Simulation time: 0 hr 10 min 43 sec) 
Heartbeat CPU 0 instructions: 18000000 cycles: 10837658 heartbeat IPC: 1.68639 cumulative IPC: 1.66088 (Simulation time: 0 hr 11 min 19 sec) 
Heartbeat CPU 0 instructions: 19000002 cycles: 11430670 heartbeat IPC: 1.68631 cumulative IPC: 1.66219 (Simulation time: 0 hr 11 min 57 sec) 
Heartbeat CPU 0 instructions: 20000000 cycles: 12024037 heartbeat IPC: 1.68529 cumulative IPC: 1.66333 (Simulation time: 0 hr 12 min 37 sec) 
Heartbeat CPU 0 instructions: 21000002 cycles: 12765397 heartbeat IPC: 1.34888 cumulative IPC: 1.64507 (Simulation time: 0 hr 13 min 21 sec) 
Heartbeat CPU 0 instructions: 22000003 cycles: 13370379 heartbeat IPC: 1.65294 cumulative IPC: 1.64543 (Simulation time: 0 hr 14 min 1 sec) 
Heartbeat CPU 0 instructions: 23000000 cycles: 13963070 heartbeat IPC: 1.68721 cumulative IPC: 1.6472 (Simulation time: 0 hr 14 min 37 sec) 
Heartbeat CPU 0 instructions: 24000000 cycles: 14556759 heartbeat IPC: 1.68438 cumulative IPC: 1.64872 (Simulation time: 0 hr 15 min 15 sec) 
Heartbeat CPU 0 instructions: 25000002 cycles: 15149905 heartbeat IPC: 1.68593 cumulative IPC: 1.65018 (Simulation time: 0 hr 15 min 52 sec) 
Heartbeat CPU 0 instructions: 26000003 cycles: 15742474 heartbeat IPC: 1.68757 cumulative IPC: 1.65158 (Simulation time: 0 hr 16 min 29 sec) 
Heartbeat CPU 0 instructions: 27000001 cycles: 16335564 heartbeat IPC: 1.68608 cumulative IPC: 1.65284 (Simulation time: 0 hr 17 min 7 sec) 
Heartbeat CPU 0 instructions: 28000000 cycles: 16928654 heartbeat IPC: 1.68608 cumulative IPC: 1.654 (Simulation time: 0 hr 17 min 45 sec) 
Heartbeat CPU 0 instructions: 29000002 cycles: 17521813 heartbeat IPC: 1.68589 cumulative IPC: 1.65508 (Simulation time: 0 hr 18 min 27 sec) 
Heartbeat CPU 0 instructions: 30000002 cycles: 18114917 heartbeat IPC: 1.68604 cumulative IPC: 1.65609 (Simulation time: 0 hr 19 min 4 sec) 
Heartbeat CPU 0 instructions: 31000002 cycles: 18708186 heartbeat IPC: 1.68558 cumulative IPC: 1.65703 (Simulation time: 0 hr 19 min 43 sec) 
Heartbeat CPU 0 instructions: 32000000 cycles: 19301557 heartbeat IPC: 1.68528 cumulative IPC: 1.6579 (Simulation time: 0 hr 20 min 20 sec) 
Heartbeat CPU 0 instructions: 33000001 cycles: 19894281 heartbeat IPC: 1.68713 cumulative IPC: 1.65877 (Simulation time: 0 hr 21 min 0 sec) 
Heartbeat CPU 0 instructions: 34000002 cycles: 20606286 heartbeat IPC: 1.40449 cumulative IPC: 1.64998 (Simulation time: 0 hr 21 min 41 sec) 
Heartbeat CPU 0 instructions: 35000001 cycles: 21242243 heartbeat IPC: 1.57243 cumulative IPC: 1.64766 (Simulation time: 0 hr 22 min 24 sec) 
Heartbeat CPU 0 instructions: 36000000 cycles: 21835313 heartbeat IPC: 1.68614 cumulative IPC: 1.64871 (Simulation time: 0 hr 23 min 5 sec) 
Heartbeat CPU 0 instructions: 37000000 cycles: 22428120 heartbeat IPC: 1.68689 cumulative IPC: 1.64971 (Simulation time: 0 hr 23 min 50 sec) 
Heartbeat CPU 0 instructions: 38000003 cycles: 23021071 heartbeat IPC: 1.68649 cumulative IPC: 1.65066 (Simulation time: 0 hr 24 min 33 sec) 
Heartbeat CPU 0 instructions: 39000002 cycles: 23614382 heartbeat IPC: 1.68545 cumulative IPC: 1.65154 (Simulation time: 0 hr 25 min 12 sec) 
Heartbeat CPU 0 instructions: 40000000 cycles: 24207280 heartbeat IPC: 1.68663 cumulative IPC: 1.6524 (Simulation time: 0 hr 25 min 51 sec) 
Heartbeat CPU 0 instructions: 41000002 cycles: 24800180 heartbeat IPC: 1.68663 cumulative IPC: 1.65321 (Simulation time: 0 hr 26 min 33 sec) 
Heartbeat CPU 0 instructions: 42000000 cycles: 25393101 heartbeat IPC: 1.68656 cumulative IPC: 1.65399 (Simulation time: 0 hr 27 min 10 sec) 
Heartbeat CPU 0 instructions: 43000000 cycles: 25986098 heartbeat IPC: 1.68635 cumulative IPC: 1.65473 (Simulation time: 0 hr 27 min 50 sec) 
Heartbeat CPU 0 instructions: 44000000 cycles: 26578942 heartbeat IPC: 1.68678 cumulative IPC: 1.65545 (Simulation time: 0 hr 28 min 28 sec) 
Heartbeat CPU 0 instructions: 45000003 cycles: 27171926 heartbeat IPC: 1.68639 cumulative IPC: 1.65612 (Simulation time: 0 hr 29 min 5 sec) 
Heartbeat CPU 0 instructions: 46000001 cycles: 27765054 heartbeat IPC: 1.68597 cumulative IPC: 1.65676 (Simulation time: 0 hr 29 min 43 sec) 
Heartbeat CPU 0 instructions: 47000001 cycles: 28445132 heartbeat IPC: 1.47042 cumulative IPC: 1.6523 (Simulation time: 0 hr 30 min 27 sec) 
Heartbeat CPU 0 instructions: 48000000 cycles: 29112077 heartbeat IPC: 1.49937 cumulative IPC: 1.6488 (Simulation time: 0 hr 31 min 5 sec) 
Heartbeat CPU 0 instructions: 49000001 cycles: 29705027 heartbeat IPC: 1.68648 cumulative IPC: 1.64955 (Simulation time: 0 hr 31 min 43 sec) 
Heartbeat CPU 0 instructions: 50000003 cycles: 30297945 heartbeat IPC: 1.68658 cumulative IPC: 1.65028 (Simulation time: 0 hr 32 min 27 sec) 

Warmup complete CPU 0 instructions: 50000003 cycles: 30297945 (Simulation time: 0 hr 32 min 27 sec) 

Heartbeat CPU 0 instructions: 51000000 cycles: 31985493 heartbeat IPC: 0.592574 cumulative IPC: 0.592574 (Simulation time: 0 hr 33 min 13 sec) 
Heartbeat CPU 0 instructions: 52000000 cycles: 33666449 heartbeat IPC: 0.5949 cumulative IPC: 0.593735 (Simulation time: 0 hr 33 min 56 sec) 
Heartbeat CPU 0 instructions: 53000003 cycles: 35405137 heartbeat IPC: 0.575148 cumulative IPC: 0.587407 (Simulation time: 0 hr 34 min 39 sec) 
Heartbeat CPU 0 instructions: 54000001 cycles: 37144126 heartbeat IPC: 0.575046 cumulative IPC: 0.584267 (Simulation time: 0 hr 35 min 22 sec) 
Heartbeat CPU 0 instructions: 55000000 cycles: 38880493 heartbeat IPC: 0.575915 cumulative IPC: 0.582577 (Simulation time: 0 hr 36 min 2 sec) 
Heartbeat CPU 0 instructions: 56000000 cycles: 40539547 heartbeat IPC: 0.602753 cumulative IPC: 0.585846 (Simulation time: 0 hr 36 min 44 sec) 
Heartbeat CPU 0 instructions: 57000000 cycles: 42252644 heartbeat IPC: 0.583738 cumulative IPC: 0.585544 (Simulation time: 0 hr 37 min 33 sec) 
Heartbeat CPU 0 instructions: 58000002 cycles: 43993372 heartbeat IPC: 0.574473 cumulative IPC: 0.584136 (Simulation time: 0 hr 38 min 18 sec) 
Heartbeat CPU 0 instructions: 59000001 cycles: 45735246 heartbeat IPC: 0.574094 cumulative IPC: 0.583003 (Simulation time: 0 hr 39 min 0 sec) 
Heartbeat CPU 0 instructions: 60000000 cycles: 49097411 heartbeat IPC: 0.297427 cumulative IPC: 0.53193 (Simulation time: 0 hr 39 min 49 sec) 
Heartbeat CPU 0 instructions: 61000001 cycles: 54055965 heartbeat IPC: 0.201672 cumulative IPC: 0.463001 (Simulation time: 0 hr 40 min 37 sec) 
Heartbeat CPU 0 instructions: 62000000 cycles: 55792248 heartbeat IPC: 0.575942 cumulative IPC: 0.470693 (Simulation time: 0 hr 41 min 17 sec) 
Heartbeat CPU 0 instructions: 63000000 cycles: 57533267 heartbeat IPC: 0.574376 cumulative IPC: 0.477321 (Simulation time: 0 hr 41 min 56 sec) 
Heartbeat CPU 0 instructions: 64000000 cycles: 59267836 heartbeat IPC: 0.576512 cumulative IPC: 0.48326 (Simulation time: 0 hr 42 min 36 sec) 
Heartbeat CPU 0 instructions: 65000002 cycles: 60929133 heartbeat IPC: 0.601941 cumulative IPC: 0.489697 (Simulation time: 0 hr 43 min 18 sec) 
Heartbeat CPU 0 instructions: 66000003 cycles: 62635122 heartbeat IPC: 0.586171 cumulative IPC: 0.494787 (Simulation time: 0 hr 44 min 2 sec) 
Heartbeat CPU 0 instructions: 67000001 cycles: 64375709 heartbeat IPC: 0.574518 cumulative IPC: 0.498859 (Simulation time: 0 hr 44 min 49 sec) 
Heartbeat CPU 0 instructions: 68000000 cycles: 66116653 heartbeat IPC: 0.5744 cumulative IPC: 0.502531 (Simulation time: 0 hr 45 min 30 sec) 
Heartbeat CPU 0 instructions: 69000003 cycles: 67834291 heartbeat IPC: 0.582197 cumulative IPC: 0.506176 (Simulation time: 0 hr 46 min 9 sec) 
Heartbeat CPU 0 instructions: 70000000 cycles: 69488291 heartbeat IPC: 0.604593 cumulative IPC: 0.51033 (Simulation time: 0 hr 46 min 49 sec) 
Heartbeat CPU 0 instructions: 71000002 cycles: 71218334 heartbeat IPC: 0.578021 cumulative IPC: 0.513192 (Simulation time: 0 hr 47 min 35 sec) 
Heartbeat CPU 0 instructions: 72000000 cycles: 72958715 heartbeat IPC: 0.574586 cumulative IPC: 0.515696 (Simulation time: 0 hr 48 min 19 sec) 
Heartbeat CPU 0 instructions: 73000001 cycles: 75428090 heartbeat IPC: 0.404961 cumulative IPC: 0.509637 (Simulation time: 0 hr 48 min 59 sec) 
Heartbeat CPU 0 instructions: 74000002 cycles: 81344889 heartbeat IPC: 0.16901 cumulative IPC: 0.470155 (Simulation time: 0 hr 49 min 44 sec) 
Heartbeat CPU 0 instructions: 75000002 cycles: 83044336 heartbeat IPC: 0.588427 cumulative IPC: 0.473966 (Simulation time: 0 hr 50 min 25 sec) 
Heartbeat CPU 0 instructions: 76000000 cycles: 84783340 heartbeat IPC: 0.575041 cumulative IPC: 0.477192 (Simulation time: 0 hr 51 min 6 sec) 
Heartbeat CPU 0 instructions: 77000001 cycles: 86522402 heartbeat IPC: 0.575023 cumulative IPC: 0.480218 (Simulation time: 0 hr 51 min 48 sec) 
Heartbeat CPU 0 instructions: 78000000 cycles: 88245577 heartbeat IPC: 0.580324 cumulative IPC: 0.483195 (Simulation time: 0 hr 52 min 28 sec) 
Heartbeat CPU 0 instructions: 79000003 cycles: 89893166 heartbeat IPC: 0.606949 cumulative IPC: 0.486616 (Simulation time: 0 hr 53 min 9 sec) 
Heartbeat CPU 0 instructions: 80000000 cycles: 91624307 heartbeat IPC: 0.577652 cumulative IPC: 0.489186 (Simulation time: 0 hr 53 min 51 sec) 
Heartbeat CPU 0 instructions: 81000002 cycles: 93366086 heartbeat IPC: 0.574127 cumulative IPC: 0.491532 (Simulation time: 0 hr 54 min 36 sec) 
Heartbeat CPU 0 instructions: 82000000 cycles: 95106649 heartbeat IPC: 0.574526 cumulative IPC: 0.493761 (Simulation time: 0 hr 55 min 17 sec) 
Heartbeat CPU 0 instructions: 83000000 cycles: 96795297 heartbeat IPC: 0.59219 cumulative IPC: 0.49626 (Simulation time: 0 hr 55 min 57 sec) 
Heartbeat CPU 0 instructions: 84000000 cycles: 98471796 heartbeat IPC: 0.596481 cumulative IPC: 0.498725 (Simulation time: 0 hr 56 min 36 sec) 
Heartbeat CPU 0 instructions: 85000003 cycles: 100234802 heartbeat IPC: 0.567215 cumulative IPC: 0.500451 (Simulation time: 0 hr 57 min 15 sec) 
Heartbeat CPU 0 instructions: 86000000 cycles: 101976864 heartbeat IPC: 0.574031 cumulative IPC: 0.50224 (Simulation time: 0 hr 57 min 54 sec) 
Heartbeat CPU 0 instructions: 87000001 cycles: 108714302 heartbeat IPC: 0.148425 cumulative IPC: 0.47184 (Simulation time: 0 hr 58 min 41 sec) 
Heartbeat CPU 0 instructions: 88000000 cycles: 110360878 heartbeat IPC: 0.60732 cumulative IPC: 0.474627 (Simulation time: 0 hr 59 min 26 sec) 
Heartbeat CPU 0 instructions: 89000002 cycles: 112089554 heartbeat IPC: 0.578479 cumulative IPC: 0.476822 (Simulation time: 1 hr 0 min 6 sec) 
Heartbeat CPU 0 instructions: 90000001 cycles: 113856216 heartbeat IPC: 0.566039 cumulative IPC: 0.478708 (Simulation time: 1 hr 0 min 50 sec) 
Heartbeat CPU 0 instructions: 91000002 cycles: 115595538 heartbeat IPC: 0.574937 cumulative IPC: 0.48067 (Simulation time: 1 hr 1 min 33 sec) 
Heartbeat CPU 0 instructions: 92000000 cycles: 117291275 heartbeat IPC: 0.589713 cumulative IPC: 0.482796 (Simulation time: 1 hr 2 min 15 sec) 
Heartbeat CPU 0 instructions: 93000002 cycles: 118962603 heartbeat IPC: 0.598328 cumulative IPC: 0.484973 (Simulation time: 1 hr 2 min 59 sec) 
Heartbeat CPU 0 instructions: 94000002 cycles: 120698295 heartbeat IPC: 0.576139 cumulative IPC: 0.486724 (Simulation time: 1 hr 3 min 40 sec) 
Heartbeat CPU 0 instructions: 95000003 cycles: 122440475 heartbeat IPC: 0.573994 cumulative IPC: 0.488374 (Simulation time: 1 hr 4 min 19 sec) 
Heartbeat CPU 0 instructions: 96000000 cycles: 124176482 heartbeat IPC: 0.576033 cumulative IPC: 0.489995 (Simulation time: 1 hr 5 min 0 sec) 
Heartbeat CPU 0 instructions: 97000003 cycles: 125840728 heartbeat IPC: 0.600874 cumulative IPC: 0.491926 (Simulation time: 1 hr 5 min 44 sec) 
Heartbeat CPU 0 instructions: 98000003 cycles: 127544397 heartbeat IPC: 0.586968 cumulative IPC: 0.493591 (Simulation time: 1 hr 6 min 25 sec) 
Heartbeat CPU 0 instructions: 99000000 cycles: 129285106 heartbeat IPC: 0.574477 cumulative IPC: 0.495014 (Simulation time: 1 hr 7 min 6 sec) 
Heartbeat CPU 0 instructions: 100000000 cycles: 136036358 heartbeat IPC: 0.148121 cumulative IPC: 0.472865 (Simulation time: 1 hr 7 min 52 sec) 
Heartbeat CPU 0 instructions: 101000000 cycles: 137736140 heartbeat IPC: 0.588311 cumulative IPC: 0.474691 (Simulation time: 1 hr 8 min 30 sec) 
Heartbeat CPU 0 instructions: 102000003 cycles: 139404121 heartbeat IPC: 0.599529 cumulative IPC: 0.4766 (Simulation time: 1 hr 9 min 6 sec) 
Heartbeat CPU 0 instructions: 103000000 cycles: 141138246 heartbeat IPC: 0.576658 cumulative IPC: 0.478165 (Simulation time: 1 hr 9 min 41 sec) 
Heartbeat CPU 0 instructions: 104000000 cycles: 142878428 heartbeat IPC: 0.574653 cumulative IPC: 0.479657 (Simulation time: 1 hr 10 min 15 sec) 
Heartbeat CPU 0 instructions: 105000001 cycles: 144614001 heartbeat IPC: 0.576179 cumulative IPC: 0.481122 (Simulation time: 1 hr 10 min 50 sec) 
Heartbeat CPU 0 instructions: 106000000 cycles: 146283766 heartbeat IPC: 0.598886 cumulative IPC: 0.482818 (Simulation time: 1 hr 11 min 25 sec) 
Heartbeat CPU 0 instructions: 107000001 cycles: 147981079 heartbeat IPC: 0.589167 cumulative IPC: 0.484351 (Simulation time: 1 hr 11 min 59 sec) 
Heartbeat CPU 0 instructions: 108000000 cycles: 149721615 heartbeat IPC: 0.574535 cumulative IPC: 0.485666 (Simulation time: 1 hr 12 min 32 sec) 
Heartbeat CPU 0 instructions: 109000002 cycles: 151461836 heartbeat IPC: 0.574641 cumulative IPC: 0.486944 (Simulation time: 1 hr 13 min 5 sec) 
Heartbeat CPU 0 instructions: 110000001 cycles: 153188169 heartbeat IPC: 0.579262 cumulative IPC: 0.488241 (Simulation time: 1 hr 13 min 36 sec) 
Heartbeat CPU 0 instructions: 111000003 cycles: 154836420 heartbeat IPC: 0.606705 cumulative IPC: 0.489808 (Simulation time: 1 hr 14 min 8 sec) 
Heartbeat CPU 0 instructions: 112000000 cycles: 156565529 heartbeat IPC: 0.578331 cumulative IPC: 0.491021 (Simulation time: 1 hr 14 min 39 sec) 
Heartbeat CPU 0 instructions: 113000001 cycles: 163250578 heartbeat IPC: 0.149588 cumulative IPC: 0.473853 (Simulation time: 1 hr 15 min 15 sec) 
Heartbeat CPU 0 instructions: 114000003 cycles: 164987770 heartbeat IPC: 0.575643 cumulative IPC: 0.475166 (Simulation time: 1 hr 15 min 42 sec) 
Heartbeat CPU 0 instructions: 115000003 cycles: 166662488 heartbeat IPC: 0.597115 cumulative IPC: 0.476664 (Simulation time: 1 hr 16 min 9 sec) 
Heartbeat CPU 0 instructions: 116000000 cycles: 168355906 heartbeat IPC: 0.59052 cumulative IPC: 0.47806 (Simulation time: 1 hr 16 min 36 sec) 
Heartbeat CPU 0 instructions: 117000002 cycles: 170095868 heartbeat IPC: 0.574726 cumulative IPC: 0.479263 (Simulation time: 1 hr 17 min 3 sec) 
Heartbeat CPU 0 instructions: 118000001 cycles: 171837679 heartbeat IPC: 0.574115 cumulative IPC: 0.48043 (Simulation time: 1 hr 17 min 27 sec) 
Heartbeat CPU 0 instructions: 119000000 cycles: 173565469 heartbeat IPC: 0.578773 cumulative IPC: 0.481616 (Simulation time: 1 hr 17 min 52 sec) 
Heartbeat CPU 0 instructions: 120000000 cycles: 175213948 heartbeat IPC: 0.60662 cumulative IPC: 0.483038 (Simulation time: 1 hr 18 min 16 sec) 
Heartbeat CPU 0 instructions: 121000003 cycles: 176941680 heartbeat IPC: 0.578795 cumulative IPC: 0.484167 (Simulation time: 1 hr 18 min 39 sec) 
Heartbeat CPU 0 instructions: 122000003 cycles: 178683514 heartbeat IPC: 0.574108 cumulative IPC: 0.485222 (Simulation time: 1 hr 19 min 2 sec) 
Heartbeat CPU 0 instructions: 123000001 cycles: 180424117 heartbeat IPC: 0.574512 cumulative IPC: 0.486258 (Simulation time: 1 hr 19 min 24 sec) 
Heartbeat CPU 0 instructions: 124000000 cycles: 182123448 heartbeat IPC: 0.588466 cumulative IPC: 0.487402 (Simulation time: 1 hr 19 min 46 sec) 
Heartbeat CPU 0 instructions: 125000000 cycles: 183794655 heartbeat IPC: 0.59837 cumulative IPC: 0.48861 (Simulation time: 1 hr 20 min 9 sec) 
Heartbeat CPU 0 instructions: 126000002 cycles: 190234311 heartbeat IPC: 0.155288 cumulative IPC: 0.475189 (Simulation time: 1 hr 20 min 35 sec) 
Heartbeat CPU 0 instructions: 127000002 cycles: 192225525 heartbeat IPC: 0.502206 cumulative IPC: 0.475521 (Simulation time: 1 hr 20 min 56 sec) 
Heartbeat CPU 0 instructions: 128000000 cycles: 193955467 heartbeat IPC: 0.578053 cumulative IPC: 0.476605 (Simulation time: 1 hr 21 min 16 sec) 
Heartbeat CPU 0 instructions: 129000001 cycles: 195606694 heartbeat IPC: 0.605611 cumulative IPC: 0.477894 (Simulation time: 1 hr 21 min 36 sec) 
Heartbeat CPU 0 instructions: 130000001 cycles: 197328269 heartbeat IPC: 0.580863 cumulative IPC: 0.478955 (Simulation time: 1 hr 21 min 56 sec) 
Heartbeat CPU 0 instructions: 131000002 cycles: 199068412 heartbeat IPC: 0.574666 cumulative IPC: 0.479942 (Simulation time: 1 hr 22 min 15 sec) 
Heartbeat CPU 0 instructions: 132000000 cycles: 200807446 heartbeat IPC: 0.575031 cumulative IPC: 0.480912 (Simulation time: 1 hr 22 min 36 sec) 
Heartbeat CPU 0 instructions: 133000002 cycles: 202508065 heartbeat IPC: 0.588022 cumulative IPC: 0.481969 (Simulation time: 1 hr 22 min 56 sec) 
Heartbeat CPU 0 instructions: 134000000 cycles: 204172640 heartbeat IPC: 0.600753 cumulative IPC: 0.483107 (Simulation time: 1 hr 23 min 14 sec) 
Heartbeat CPU 0 instructions: 135000003 cycles: 205908170 heartbeat IPC: 0.576195 cumulative IPC: 0.484026 (Simulation time: 1 hr 23 min 31 sec) 
Heartbeat CPU 0 instructions: 136000000 cycles: 207645960 heartbeat IPC: 0.575442 cumulative IPC: 0.484922 (Simulation time: 1 hr 23 min 47 sec) 
Heartbeat CPU 0 instructions: 137000003 cycles: 209383786 heartbeat IPC: 0.575433 cumulative IPC: 0.485801 (Simulation time: 1 hr 24 min 2 sec) 
Heartbeat CPU 0 instructions: 138000003 cycles: 211057149 heartbeat IPC: 0.597599 cumulative IPC: 0.486836 (Simulation time: 1 hr 24 min 18 sec) 
Heartbeat CPU 0 instructions: 139000000 cycles: 216458199 heartbeat IPC: 0.185149 cumulative IPC: 0.478083 (Simulation time: 1 hr 24 min 34 sec) 
Heartbeat CPU 0 instructions: 140000000 cycles: 219423491 heartbeat IPC: 0.337235 cumulative IPC: 0.475874 (Simulation time: 1 hr 24 min 48 sec) 
Heartbeat CPU 0 instructions: 141000001 cycles: 221160638 heartbeat IPC: 0.575657 cumulative IPC: 0.476783 (Simulation time: 1 hr 25 min 0 sec) 
Heartbeat CPU 0 instructions: 142000000 cycles: 222867266 heartbeat IPC: 0.58595 cumulative IPC: 0.47775 (Simulation time: 1 hr 25 min 13 sec) 
Heartbeat CPU 0 instructions: 143000003 cycles: 224529047 heartbeat IPC: 0.601766 cumulative IPC: 0.478811 (Simulation time: 1 hr 25 min 24 sec) 
Heartbeat CPU 0 instructions: 144000000 cycles: 226260794 heartbeat IPC: 0.57745 cumulative IPC: 0.479683 (Simulation time: 1 hr 25 min 36 sec) 
Heartbeat CPU 0 instructions: 145000002 cycles: 228015014 heartbeat IPC: 0.570055 cumulative IPC: 0.480485 (Simulation time: 1 hr 25 min 46 sec) 
Heartbeat CPU 0 instructions: 146000001 cycles: 229752137 heartbeat IPC: 0.575664 cumulative IPC: 0.481314 (Simulation time: 1 hr 25 min 57 sec) 
Heartbeat CPU 0 instructions: 147000000 cycles: 231426779 heartbeat IPC: 0.597142 cumulative IPC: 0.482278 (Simulation time: 1 hr 26 min 9 sec) 
Heartbeat CPU 0 instructions: 148000000 cycles: 233114990 heartbeat IPC: 0.592343 cumulative IPC: 0.483194 (Simulation time: 1 hr 26 min 20 sec) 
Heartbeat CPU 0 instructions: 149000000 cycles: 234869088 heartbeat IPC: 0.570094 cumulative IPC: 0.483939 (Simulation time: 1 hr 26 min 32 sec) 
Heartbeat CPU 0 instructions: 150000002 cycles: 236627161 heartbeat IPC: 0.568806 cumulative IPC: 0.484662 (Simulation time: 1 hr 26 min 43 sec) 
Finished CPU 0 instructions: 100000003 cycles: 206329217 cummulative IPC: 0.484662 (Simulation time: 1 hr 26 min 43 sec) 

ChampSim completed all CPUs

Region of Interest Statistics

CPU 0 cummulative IPC: 0.484662 instructions: 100000003 cycles: 206329217
LLC TOTAL     ACCESS:    1106908  HIT:     321520  MISS:     785388
LLC LOAD      ACCESS:      21694  HIT:       3027  MISS:      18667
LLC RFO       ACCESS:     245174  HIT:      87383  MISS:     157791
LLC PREFETCH  ACCESS:     594478  HIT:     120155  MISS:     474323
LLC WRITEBACK ACCESS:     245562  HIT:     110955  MISS:     134607
OPTgen accesses: 6537
OPTgen hits: 2350
OPTgen hit rate: 35.9492


