
*** ChampSim Multicore Out-of-Order Simulator ***

Warmup Instructions: 50000000
Simulation Instructions: 100000000
Configuration: 2
Number of CPUs: 1
LLC sets: 2048
LLC ways: 16
Off-chip DRAM Channels: 1 Width: 64-bit Data Rate: 1600 MT/s

CPU 0 runs /datasets/cs240c-wi22-a00-public/data/Assignment2-gz/sphinx3_883B.trace.gz
CPU 0 L1D next line prefetcher
CPU 0 L2C IP-based stride prefetcher
Initialize Hawkeye state
Heartbeat CPU 0 instructions: 1000003 cycles: 414365 heartbeat IPC: 2.41334 cumulative IPC: 2.41334 (Simulation time: 0 hr 0 min 30 sec) 
Heartbeat CPU 0 instructions: 2000000 cycles: 823887 heartbeat IPC: 2.44186 cumulative IPC: 2.42752 (Simulation time: 0 hr 1 min 3 sec) 
Heartbeat CPU 0 instructions: 3000003 cycles: 1298677 heartbeat IPC: 2.1062 cumulative IPC: 2.31005 (Simulation time: 0 hr 1 min 31 sec) 
Heartbeat CPU 0 instructions: 4000000 cycles: 1637567 heartbeat IPC: 2.9508 cumulative IPC: 2.44265 (Simulation time: 0 hr 1 min 59 sec) 
Heartbeat CPU 0 instructions: 5000000 cycles: 1992239 heartbeat IPC: 2.81951 cumulative IPC: 2.50974 (Simulation time: 0 hr 2 min 30 sec) 
Heartbeat CPU 0 instructions: 6000003 cycles: 2406682 heartbeat IPC: 2.41288 cumulative IPC: 2.49306 (Simulation time: 0 hr 3 min 4 sec) 
Heartbeat CPU 0 instructions: 7000002 cycles: 2815442 heartbeat IPC: 2.44642 cumulative IPC: 2.48629 (Simulation time: 0 hr 3 min 35 sec) 
Heartbeat CPU 0 instructions: 8000000 cycles: 3291297 heartbeat IPC: 2.10148 cumulative IPC: 2.43065 (Simulation time: 0 hr 4 min 2 sec) 
Heartbeat CPU 0 instructions: 9000001 cycles: 3630294 heartbeat IPC: 2.94988 cumulative IPC: 2.47914 (Simulation time: 0 hr 4 min 26 sec) 
Heartbeat CPU 0 instructions: 10000000 cycles: 3984386 heartbeat IPC: 2.82412 cumulative IPC: 2.5098 (Simulation time: 0 hr 4 min 54 sec) 
Heartbeat CPU 0 instructions: 11000000 cycles: 4398833 heartbeat IPC: 2.41285 cumulative IPC: 2.50066 (Simulation time: 0 hr 5 min 25 sec) 
Heartbeat CPU 0 instructions: 12000000 cycles: 4811706 heartbeat IPC: 2.42205 cumulative IPC: 2.49392 (Simulation time: 0 hr 5 min 56 sec) 
Heartbeat CPU 0 instructions: 13000001 cycles: 5277017 heartbeat IPC: 2.1491 cumulative IPC: 2.46351 (Simulation time: 0 hr 6 min 24 sec) 
Heartbeat CPU 0 instructions: 14000001 cycles: 5630841 heartbeat IPC: 2.82626 cumulative IPC: 2.48631 (Simulation time: 0 hr 6 min 51 sec) 
Heartbeat CPU 0 instructions: 15000000 cycles: 5977461 heartbeat IPC: 2.885 cumulative IPC: 2.50943 (Simulation time: 0 hr 7 min 19 sec) 
Heartbeat CPU 0 instructions: 16000000 cycles: 6390943 heartbeat IPC: 2.41848 cumulative IPC: 2.50354 (Simulation time: 0 hr 7 min 50 sec) 
Heartbeat CPU 0 instructions: 17000000 cycles: 6803006 heartbeat IPC: 2.42681 cumulative IPC: 2.4989 (Simulation time: 0 hr 8 min 19 sec) 
Heartbeat CPU 0 instructions: 18000000 cycles: 7219330 heartbeat IPC: 2.40198 cumulative IPC: 2.49331 (Simulation time: 0 hr 8 min 49 sec) 
Heartbeat CPU 0 instructions: 19000003 cycles: 7633883 heartbeat IPC: 2.41224 cumulative IPC: 2.4889 (Simulation time: 0 hr 9 min 16 sec) 
Heartbeat CPU 0 instructions: 20000000 cycles: 7972832 heartbeat IPC: 2.95029 cumulative IPC: 2.50852 (Simulation time: 0 hr 9 min 45 sec) 
Heartbeat CPU 0 instructions: 21000000 cycles: 8382461 heartbeat IPC: 2.44123 cumulative IPC: 2.50523 (Simulation time: 0 hr 10 min 15 sec) 
Heartbeat CPU 0 instructions: 22000003 cycles: 8795975 heartbeat IPC: 2.41831 cumulative IPC: 2.50114 (Simulation time: 0 hr 10 min 46 sec) 
Heartbeat CPU 0 instructions: 23000003 cycles: 9206119 heartbeat IPC: 2.43817 cumulative IPC: 2.49834 (Simulation time: 0 hr 11 min 16 sec) 
Heartbeat CPU 0 instructions: 24000000 cycles: 9656807 heartbeat IPC: 2.21882 cumulative IPC: 2.48529 (Simulation time: 0 hr 11 min 42 sec) 
Heartbeat CPU 0 instructions: 25000000 cycles: 9995844 heartbeat IPC: 2.94953 cumulative IPC: 2.50104 (Simulation time: 0 hr 12 min 11 sec) 
Heartbeat CPU 0 instructions: 26000001 cycles: 10373024 heartbeat IPC: 2.65126 cumulative IPC: 2.5065 (Simulation time: 0 hr 12 min 43 sec) 
Heartbeat CPU 0 instructions: 27000001 cycles: 10788028 heartbeat IPC: 2.40962 cumulative IPC: 2.50277 (Simulation time: 0 hr 13 min 17 sec) 
Heartbeat CPU 0 instructions: 28000000 cycles: 11202788 heartbeat IPC: 2.41103 cumulative IPC: 2.49938 (Simulation time: 0 hr 13 min 50 sec) 
Heartbeat CPU 0 instructions: 29000003 cycles: 11666127 heartbeat IPC: 2.15825 cumulative IPC: 2.48583 (Simulation time: 0 hr 14 min 15 sec) 
Heartbeat CPU 0 instructions: 30000000 cycles: 12005048 heartbeat IPC: 2.95053 cumulative IPC: 2.49895 (Simulation time: 0 hr 14 min 38 sec) 
Heartbeat CPU 0 instructions: 31000003 cycles: 12368366 heartbeat IPC: 2.75242 cumulative IPC: 2.50639 (Simulation time: 0 hr 15 min 8 sec) 
Heartbeat CPU 0 instructions: 32000000 cycles: 12783425 heartbeat IPC: 2.40929 cumulative IPC: 2.50324 (Simulation time: 0 hr 15 min 39 sec) 
Heartbeat CPU 0 instructions: 33000001 cycles: 13193002 heartbeat IPC: 2.44155 cumulative IPC: 2.50133 (Simulation time: 0 hr 16 min 8 sec) 
Heartbeat CPU 0 instructions: 34000000 cycles: 13667191 heartbeat IPC: 2.10886 cumulative IPC: 2.48771 (Simulation time: 0 hr 16 min 33 sec) 
Heartbeat CPU 0 instructions: 35000000 cycles: 14006152 heartbeat IPC: 2.95019 cumulative IPC: 2.4989 (Simulation time: 0 hr 17 min 1 sec) 
Heartbeat CPU 0 instructions: 36000000 cycles: 14364457 heartbeat IPC: 2.79092 cumulative IPC: 2.50619 (Simulation time: 0 hr 17 min 29 sec) 
Heartbeat CPU 0 instructions: 37000001 cycles: 14780518 heartbeat IPC: 2.4035 cumulative IPC: 2.5033 (Simulation time: 0 hr 18 min 1 sec) 
Heartbeat CPU 0 instructions: 38000000 cycles: 15190133 heartbeat IPC: 2.44131 cumulative IPC: 2.50162 (Simulation time: 0 hr 18 min 30 sec) 
Heartbeat CPU 0 instructions: 39000002 cycles: 15665195 heartbeat IPC: 2.10499 cumulative IPC: 2.4896 (Simulation time: 0 hr 18 min 57 sec) 
Heartbeat CPU 0 instructions: 40000000 cycles: 16004173 heartbeat IPC: 2.95004 cumulative IPC: 2.49935 (Simulation time: 0 hr 19 min 24 sec) 
Heartbeat CPU 0 instructions: 41000003 cycles: 16361486 heartbeat IPC: 2.79868 cumulative IPC: 2.50589 (Simulation time: 0 hr 19 min 51 sec) 
Heartbeat CPU 0 instructions: 42000000 cycles: 16777592 heartbeat IPC: 2.40323 cumulative IPC: 2.50334 (Simulation time: 0 hr 20 min 26 sec) 
Heartbeat CPU 0 instructions: 43000001 cycles: 17188982 heartbeat IPC: 2.43079 cumulative IPC: 2.5016 (Simulation time: 0 hr 20 min 56 sec) 
Heartbeat CPU 0 instructions: 44000000 cycles: 17659721 heartbeat IPC: 2.12432 cumulative IPC: 2.49155 (Simulation time: 0 hr 21 min 27 sec) 
Heartbeat CPU 0 instructions: 45000001 cycles: 17998712 heartbeat IPC: 2.94993 cumulative IPC: 2.50018 (Simulation time: 0 hr 21 min 54 sec) 
Heartbeat CPU 0 instructions: 46000001 cycles: 18359063 heartbeat IPC: 2.77507 cumulative IPC: 2.50557 (Simulation time: 0 hr 22 min 26 sec) 
Heartbeat CPU 0 instructions: 47000003 cycles: 18773651 heartbeat IPC: 2.41204 cumulative IPC: 2.50351 (Simulation time: 0 hr 22 min 56 sec) 
Heartbeat CPU 0 instructions: 48000000 cycles: 19189460 heartbeat IPC: 2.40494 cumulative IPC: 2.50137 (Simulation time: 0 hr 23 min 25 sec) 
Heartbeat CPU 0 instructions: 49000001 cycles: 19647578 heartbeat IPC: 2.18285 cumulative IPC: 2.49395 (Simulation time: 0 hr 23 min 51 sec) 
Heartbeat CPU 0 instructions: 50000003 cycles: 19986532 heartbeat IPC: 2.95026 cumulative IPC: 2.50168 (Simulation time: 0 hr 24 min 21 sec) 

Warmup complete CPU 0 instructions: 50000003 cycles: 19986532 (Simulation time: 0 hr 24 min 21 sec) 

Heartbeat CPU 0 instructions: 51000003 cycles: 21105514 heartbeat IPC: 0.893669 cumulative IPC: 0.893669 (Simulation time: 0 hr 24 min 54 sec) 
Heartbeat CPU 0 instructions: 52000000 cycles: 22713283 heartbeat IPC: 0.621978 cumulative IPC: 0.733473 (Simulation time: 0 hr 25 min 28 sec) 
Heartbeat CPU 0 instructions: 53000000 cycles: 24615079 heartbeat IPC: 0.525819 cumulative IPC: 0.648151 (Simulation time: 0 hr 26 min 3 sec) 
Heartbeat CPU 0 instructions: 54000003 cycles: 25890566 heartbeat IPC: 0.784017 cumulative IPC: 0.677503 (Simulation time: 0 hr 26 min 36 sec) 
Heartbeat CPU 0 instructions: 55000003 cycles: 26828217 heartbeat IPC: 1.06649 cumulative IPC: 0.730814 (Simulation time: 0 hr 27 min 6 sec) 
Heartbeat CPU 0 instructions: 56000000 cycles: 27736362 heartbeat IPC: 1.10114 cumulative IPC: 0.77421 (Simulation time: 0 hr 27 min 36 sec) 
Heartbeat CPU 0 instructions: 57000002 cycles: 28954637 heartbeat IPC: 0.820834 cumulative IPC: 0.780544 (Simulation time: 0 hr 28 min 10 sec) 
Heartbeat CPU 0 instructions: 58000001 cycles: 29980439 heartbeat IPC: 0.974846 cumulative IPC: 0.800488 (Simulation time: 0 hr 28 min 40 sec) 
Heartbeat CPU 0 instructions: 59000003 cycles: 30882047 heartbeat IPC: 1.10913 cumulative IPC: 0.826028 (Simulation time: 0 hr 29 min 12 sec) 
Heartbeat CPU 0 instructions: 60000000 cycles: 31785423 heartbeat IPC: 1.10696 cumulative IPC: 0.847537 (Simulation time: 0 hr 29 min 45 sec) 
Heartbeat CPU 0 instructions: 61000001 cycles: 32968688 heartbeat IPC: 0.84512 cumulative IPC: 0.847317 (Simulation time: 0 hr 30 min 22 sec) 
Heartbeat CPU 0 instructions: 62000001 cycles: 33844470 heartbeat IPC: 1.14184 cumulative IPC: 0.86593 (Simulation time: 0 hr 30 min 54 sec) 
Heartbeat CPU 0 instructions: 63000003 cycles: 34701382 heartbeat IPC: 1.16698 cumulative IPC: 0.883461 (Simulation time: 0 hr 31 min 24 sec) 
Heartbeat CPU 0 instructions: 64000000 cycles: 35952578 heartbeat IPC: 0.799233 cumulative IPC: 0.876861 (Simulation time: 0 hr 31 min 55 sec) 
Heartbeat CPU 0 instructions: 65000003 cycles: 36829632 heartbeat IPC: 1.14018 cumulative IPC: 0.890572 (Simulation time: 0 hr 32 min 25 sec) 
Heartbeat CPU 0 instructions: 66000002 cycles: 37711424 heartbeat IPC: 1.13405 cumulative IPC: 0.902685 (Simulation time: 0 hr 32 min 56 sec) 
Heartbeat CPU 0 instructions: 67000000 cycles: 38978001 heartbeat IPC: 0.789528 cumulative IPC: 0.895139 (Simulation time: 0 hr 33 min 31 sec) 
Heartbeat CPU 0 instructions: 68000000 cycles: 40611827 heartbeat IPC: 0.61206 cumulative IPC: 0.872715 (Simulation time: 0 hr 34 min 11 sec) 
Heartbeat CPU 0 instructions: 69000003 cycles: 41483159 heartbeat IPC: 1.14767 cumulative IPC: 0.88386 (Simulation time: 0 hr 34 min 43 sec) 
Heartbeat CPU 0 instructions: 70000000 cycles: 42371404 heartbeat IPC: 1.12581 cumulative IPC: 0.89346 (Simulation time: 0 hr 35 min 15 sec) 
Heartbeat CPU 0 instructions: 71000000 cycles: 43503712 heartbeat IPC: 0.883152 cumulative IPC: 0.892964 (Simulation time: 0 hr 35 min 49 sec) 
Heartbeat CPU 0 instructions: 72000000 cycles: 44918202 heartbeat IPC: 0.706969 cumulative IPC: 0.882412 (Simulation time: 0 hr 36 min 20 sec) 
Heartbeat CPU 0 instructions: 73000000 cycles: 45788167 heartbeat IPC: 1.14947 cumulative IPC: 0.891416 (Simulation time: 0 hr 36 min 50 sec) 
Heartbeat CPU 0 instructions: 74000000 cycles: 46674259 heartbeat IPC: 1.12855 cumulative IPC: 0.89929 (Simulation time: 0 hr 37 min 22 sec) 
Heartbeat CPU 0 instructions: 75000000 cycles: 47849722 heartbeat IPC: 0.850729 cumulative IPC: 0.897241 (Simulation time: 0 hr 37 min 54 sec) 
Heartbeat CPU 0 instructions: 76000000 cycles: 49111553 heartbeat IPC: 0.792499 cumulative IPC: 0.892703 (Simulation time: 0 hr 38 min 25 sec) 
Heartbeat CPU 0 instructions: 77000000 cycles: 50014582 heartbeat IPC: 1.10738 cumulative IPC: 0.899159 (Simulation time: 0 hr 38 min 57 sec) 
Heartbeat CPU 0 instructions: 78000000 cycles: 50903553 heartbeat IPC: 1.1249 cumulative IPC: 0.90565 (Simulation time: 0 hr 39 min 30 sec) 
Heartbeat CPU 0 instructions: 79000001 cycles: 52245226 heartbeat IPC: 0.745339 cumulative IPC: 0.898982 (Simulation time: 0 hr 40 min 2 sec) 
Heartbeat CPU 0 instructions: 80000000 cycles: 53399207 heartbeat IPC: 0.866565 cumulative IPC: 0.897863 (Simulation time: 0 hr 40 min 34 sec) 
Heartbeat CPU 0 instructions: 81000000 cycles: 54328540 heartbeat IPC: 1.07604 cumulative IPC: 0.902684 (Simulation time: 0 hr 41 min 7 sec) 
Heartbeat CPU 0 instructions: 82000000 cycles: 55147500 heartbeat IPC: 1.22106 cumulative IPC: 0.9101 (Simulation time: 0 hr 41 min 38 sec) 
Heartbeat CPU 0 instructions: 83000000 cycles: 56534392 heartbeat IPC: 0.721037 cumulative IPC: 0.902926 (Simulation time: 0 hr 42 min 11 sec) 
Heartbeat CPU 0 instructions: 84000000 cycles: 57430606 heartbeat IPC: 1.1158 cumulative IPC: 0.908021 (Simulation time: 0 hr 42 min 41 sec) 
Heartbeat CPU 0 instructions: 85000001 cycles: 58252261 heartbeat IPC: 1.21706 cumulative IPC: 0.914657 (Simulation time: 0 hr 43 min 10 sec) 
Heartbeat CPU 0 instructions: 86000001 cycles: 59263970 heartbeat IPC: 0.988427 cumulative IPC: 0.916557 (Simulation time: 0 hr 43 min 40 sec) 
Heartbeat CPU 0 instructions: 87000000 cycles: 60434703 heartbeat IPC: 0.854165 cumulative IPC: 0.914751 (Simulation time: 0 hr 44 min 13 sec) 
Heartbeat CPU 0 instructions: 88000000 cycles: 61302942 heartbeat IPC: 1.15176 cumulative IPC: 0.919731 (Simulation time: 0 hr 44 min 45 sec) 
Heartbeat CPU 0 instructions: 89000000 cycles: 62111069 heartbeat IPC: 1.23743 cumulative IPC: 0.925826 (Simulation time: 0 hr 45 min 15 sec) 
Heartbeat CPU 0 instructions: 90000000 cycles: 63365560 heartbeat IPC: 0.797136 cumulative IPC: 0.922104 (Simulation time: 0 hr 45 min 48 sec) 
Heartbeat CPU 0 instructions: 91000003 cycles: 64607092 heartbeat IPC: 0.805459 cumulative IPC: 0.918859 (Simulation time: 0 hr 46 min 22 sec) 
Heartbeat CPU 0 instructions: 92000000 cycles: 65566825 heartbeat IPC: 1.04195 cumulative IPC: 0.921451 (Simulation time: 0 hr 46 min 51 sec) 
Heartbeat CPU 0 instructions: 93000000 cycles: 66389614 heartbeat IPC: 1.21538 cumulative IPC: 0.926663 (Simulation time: 0 hr 47 min 23 sec) 
Heartbeat CPU 0 instructions: 94000002 cycles: 67177604 heartbeat IPC: 1.26905 cumulative IPC: 0.93238 (Simulation time: 0 hr 47 min 53 sec) 
Heartbeat CPU 0 instructions: 95000001 cycles: 68526191 heartbeat IPC: 0.741516 cumulative IPC: 0.927077 (Simulation time: 0 hr 48 min 31 sec) 
Heartbeat CPU 0 instructions: 96000000 cycles: 69388487 heartbeat IPC: 1.15969 cumulative IPC: 0.931137 (Simulation time: 0 hr 48 min 59 sec) 
Heartbeat CPU 0 instructions: 97000002 cycles: 70227228 heartbeat IPC: 1.19227 cumulative IPC: 0.935497 (Simulation time: 0 hr 49 min 30 sec) 
Heartbeat CPU 0 instructions: 98000003 cycles: 71338681 heartbeat IPC: 0.899724 cumulative IPC: 0.934722 (Simulation time: 0 hr 50 min 1 sec) 
Heartbeat CPU 0 instructions: 99000000 cycles: 72399238 heartbeat IPC: 0.942898 cumulative IPC: 0.934888 (Simulation time: 0 hr 50 min 34 sec) 
Heartbeat CPU 0 instructions: 100000000 cycles: 73201801 heartbeat IPC: 1.24601 cumulative IPC: 0.93958 (Simulation time: 0 hr 51 min 4 sec) 
Heartbeat CPU 0 instructions: 101000000 cycles: 73995003 heartbeat IPC: 1.26071 cumulative IPC: 0.944296 (Simulation time: 0 hr 51 min 37 sec) 
Heartbeat CPU 0 instructions: 102000003 cycles: 75429568 heartbeat IPC: 0.697078 cumulative IPC: 0.9379 (Simulation time: 0 hr 52 min 10 sec) 
Heartbeat CPU 0 instructions: 103000001 cycles: 76372535 heartbeat IPC: 1.06048 cumulative IPC: 0.93995 (Simulation time: 0 hr 52 min 39 sec) 
Heartbeat CPU 0 instructions: 104000000 cycles: 77213124 heartbeat IPC: 1.18964 cumulative IPC: 0.943617 (Simulation time: 0 hr 53 min 12 sec) 
Heartbeat CPU 0 instructions: 105000002 cycles: 78247713 heartbeat IPC: 0.966569 cumulative IPC: 0.944025 (Simulation time: 0 hr 53 min 45 sec) 
Heartbeat CPU 0 instructions: 106000003 cycles: 79714172 heartbeat IPC: 0.681915 cumulative IPC: 0.937589 (Simulation time: 0 hr 54 min 20 sec) 
Heartbeat CPU 0 instructions: 107000001 cycles: 80602719 heartbeat IPC: 1.12543 cumulative IPC: 0.940343 (Simulation time: 0 hr 54 min 53 sec) 
Heartbeat CPU 0 instructions: 108000000 cycles: 81374481 heartbeat IPC: 1.29574 cumulative IPC: 0.944811 (Simulation time: 0 hr 55 min 24 sec) 
Heartbeat CPU 0 instructions: 109000001 cycles: 82453656 heartbeat IPC: 0.926635 cumulative IPC: 0.944497 (Simulation time: 0 hr 55 min 58 sec) 
Heartbeat CPU 0 instructions: 110000000 cycles: 83798782 heartbeat IPC: 0.743424 cumulative IPC: 0.940258 (Simulation time: 0 hr 56 min 33 sec) 
Heartbeat CPU 0 instructions: 111000003 cycles: 84667568 heartbeat IPC: 1.15103 cumulative IPC: 0.943089 (Simulation time: 0 hr 57 min 10 sec) 
Heartbeat CPU 0 instructions: 112000000 cycles: 85458737 heartbeat IPC: 1.26395 cumulative IPC: 0.946967 (Simulation time: 0 hr 57 min 40 sec) 
Heartbeat CPU 0 instructions: 113000002 cycles: 86648225 heartbeat IPC: 0.8407 cumulative IPC: 0.945071 (Simulation time: 0 hr 58 min 14 sec) 
Heartbeat CPU 0 instructions: 114000001 cycles: 87866309 heartbeat IPC: 0.820961 cumulative IPC: 0.942843 (Simulation time: 0 hr 58 min 46 sec) 
Heartbeat CPU 0 instructions: 115000002 cycles: 88760402 heartbeat IPC: 1.11845 cumulative IPC: 0.945126 (Simulation time: 0 hr 59 min 21 sec) 
Heartbeat CPU 0 instructions: 116000000 cycles: 89548222 heartbeat IPC: 1.26932 cumulative IPC: 0.948798 (Simulation time: 0 hr 59 min 53 sec) 
Heartbeat CPU 0 instructions: 117000002 cycles: 90883932 heartbeat IPC: 0.748667 cumulative IPC: 0.945028 (Simulation time: 1 hr 0 min 25 sec) 
Heartbeat CPU 0 instructions: 118000002 cycles: 91871335 heartbeat IPC: 1.01276 cumulative IPC: 0.945958 (Simulation time: 1 hr 0 min 52 sec) 
Heartbeat CPU 0 instructions: 119000001 cycles: 92739499 heartbeat IPC: 1.15185 cumulative IPC: 0.948415 (Simulation time: 1 hr 1 min 26 sec) 
Heartbeat CPU 0 instructions: 120000000 cycles: 93670234 heartbeat IPC: 1.07442 cumulative IPC: 0.950007 (Simulation time: 1 hr 2 min 6 sec) 
Heartbeat CPU 0 instructions: 121000000 cycles: 95089489 heartbeat IPC: 0.704595 cumulative IPC: 0.945369 (Simulation time: 1 hr 2 min 44 sec) 
Heartbeat CPU 0 instructions: 122000003 cycles: 95983926 heartbeat IPC: 1.11803 cumulative IPC: 0.947401 (Simulation time: 1 hr 3 min 15 sec) 
Heartbeat CPU 0 instructions: 123000001 cycles: 96844168 heartbeat IPC: 1.16246 cumulative IPC: 0.949808 (Simulation time: 1 hr 3 min 52 sec) 
Heartbeat CPU 0 instructions: 124000000 cycles: 97970956 heartbeat IPC: 0.887478 cumulative IPC: 0.948907 (Simulation time: 1 hr 4 min 25 sec) 
Heartbeat CPU 0 instructions: 125000003 cycles: 99296019 heartbeat IPC: 0.754683 cumulative IPC: 0.945662 (Simulation time: 1 hr 4 min 58 sec) 
Heartbeat CPU 0 instructions: 126000001 cycles: 100180927 heartbeat IPC: 1.13006 cumulative IPC: 0.947697 (Simulation time: 1 hr 5 min 28 sec) 
Heartbeat CPU 0 instructions: 127000000 cycles: 101038946 heartbeat IPC: 1.16547 cumulative IPC: 0.950002 (Simulation time: 1 hr 5 min 58 sec) 
Heartbeat CPU 0 instructions: 128000000 cycles: 102272672 heartbeat IPC: 0.810553 cumulative IPC: 0.947912 (Simulation time: 1 hr 6 min 30 sec) 
Heartbeat CPU 0 instructions: 129000002 cycles: 103576612 heartbeat IPC: 0.766908 cumulative IPC: 0.945088 (Simulation time: 1 hr 7 min 2 sec) 
Heartbeat CPU 0 instructions: 130000002 cycles: 104467798 heartbeat IPC: 1.1221 cumulative IPC: 0.946956 (Simulation time: 1 hr 7 min 30 sec) 
Heartbeat CPU 0 instructions: 131000001 cycles: 105353738 heartbeat IPC: 1.12874 cumulative IPC: 0.948842 (Simulation time: 1 hr 7 min 58 sec) 
Heartbeat CPU 0 instructions: 132000000 cycles: 106705412 heartbeat IPC: 0.739823 cumulative IPC: 0.945584 (Simulation time: 1 hr 8 min 28 sec) 
Heartbeat CPU 0 instructions: 133000001 cycles: 108177721 heartbeat IPC: 0.679206 cumulative IPC: 0.941137 (Simulation time: 1 hr 8 min 59 sec) 
Heartbeat CPU 0 instructions: 134000002 cycles: 109052184 heartbeat IPC: 1.14356 cumulative IPC: 0.943125 (Simulation time: 1 hr 9 min 26 sec) 
Heartbeat CPU 0 instructions: 135000001 cycles: 109844667 heartbeat IPC: 1.26186 cumulative IPC: 0.945935 (Simulation time: 1 hr 9 min 55 sec) 
Heartbeat CPU 0 instructions: 136000000 cycles: 111057834 heartbeat IPC: 0.824288 cumulative IPC: 0.944315 (Simulation time: 1 hr 10 min 27 sec) 
Heartbeat CPU 0 instructions: 137000001 cycles: 112374095 heartbeat IPC: 0.759728 cumulative IPC: 0.941685 (Simulation time: 1 hr 10 min 56 sec) 
Heartbeat CPU 0 instructions: 138000002 cycles: 113246378 heartbeat IPC: 1.14642 cumulative IPC: 0.9436 (Simulation time: 1 hr 11 min 22 sec) 
Heartbeat CPU 0 instructions: 139000001 cycles: 114064829 heartbeat IPC: 1.22182 cumulative IPC: 0.94602 (Simulation time: 1 hr 11 min 47 sec) 
Heartbeat CPU 0 instructions: 140000000 cycles: 115348753 heartbeat IPC: 0.778862 cumulative IPC: 0.94377 (Simulation time: 1 hr 12 min 15 sec) 
Heartbeat CPU 0 instructions: 141000000 cycles: 116844374 heartbeat IPC: 0.668619 cumulative IPC: 0.939521 (Simulation time: 1 hr 12 min 43 sec) 
Heartbeat CPU 0 instructions: 142000002 cycles: 117978219 heartbeat IPC: 0.881957 cumulative IPC: 0.938855 (Simulation time: 1 hr 13 min 10 sec) 
Heartbeat CPU 0 instructions: 143000003 cycles: 118832969 heartbeat IPC: 1.16993 cumulative IPC: 0.940853 (Simulation time: 1 hr 13 min 37 sec) 
Heartbeat CPU 0 instructions: 144000000 cycles: 119664905 heartbeat IPC: 1.20201 cumulative IPC: 0.943033 (Simulation time: 1 hr 14 min 3 sec) 
Heartbeat CPU 0 instructions: 145000000 cycles: 120787961 heartbeat IPC: 0.890428 cumulative IPC: 0.942447 (Simulation time: 1 hr 14 min 28 sec) 
Heartbeat CPU 0 instructions: 146000001 cycles: 122194813 heartbeat IPC: 0.710808 cumulative IPC: 0.939259 (Simulation time: 1 hr 14 min 52 sec) 
Heartbeat CPU 0 instructions: 147000002 cycles: 123061534 heartbeat IPC: 1.15377 cumulative IPC: 0.941062 (Simulation time: 1 hr 15 min 15 sec) 
Heartbeat CPU 0 instructions: 148000000 cycles: 123907933 heartbeat IPC: 1.18147 cumulative IPC: 0.94302 (Simulation time: 1 hr 15 min 36 sec) 
Heartbeat CPU 0 instructions: 149000001 cycles: 125056472 heartbeat IPC: 0.870672 cumulative IPC: 0.94223 (Simulation time: 1 hr 15 min 58 sec) 
Heartbeat CPU 0 instructions: 150000001 cycles: 126378940 heartbeat IPC: 0.756162 cumulative IPC: 0.939917 (Simulation time: 1 hr 16 min 20 sec) 
Finished CPU 0 instructions: 100000002 cycles: 106392409 cummulative IPC: 0.939917 (Simulation time: 1 hr 16 min 20 sec) 

ChampSim completed all CPUs

Region of Interest Statistics

CPU 0 cummulative IPC: 0.939917 instructions: 100000002 cycles: 106392409
LLC TOTAL     ACCESS:    1706408  HIT:     704336  MISS:    1002072
LLC LOAD      ACCESS:     272403  HIT:     217009  MISS:      55394
LLC RFO       ACCESS:     107593  HIT:      91463  MISS:      16130
LLC PREFETCH  ACCESS:    1186828  HIT:     257609  MISS:     929219
LLC WRITEBACK ACCESS:     139584  HIT:     138255  MISS:       1329
OPTgen accesses: 9263
OPTgen hits: 8585
OPTgen hit rate: 92.6806


