
*** ChampSim Multicore Out-of-Order Simulator ***

Warmup Instructions: 50000000
Simulation Instructions: 100000000
Configuration: 2
Number of CPUs: 1
LLC sets: 2048
LLC ways: 16
Off-chip DRAM Channels: 1 Width: 64-bit Data Rate: 1600 MT/s

CPU 0 runs /datasets/cs240c-wi22-a00-public/data/Assignment2-gz/milc_360B.trace.gz
CPU 0 L1D next line prefetcher
CPU 0 L2C IP-based stride prefetcher
Initialize Hawkeye state
Heartbeat CPU 0 instructions: 1000001 cycles: 549511 heartbeat IPC: 1.8198 cumulative IPC: 1.8198 (Simulation time: 0 hr 0 min 37 sec) 
Heartbeat CPU 0 instructions: 2000003 cycles: 1099026 heartbeat IPC: 1.81979 cumulative IPC: 1.8198 (Simulation time: 0 hr 1 min 9 sec) 
Heartbeat CPU 0 instructions: 3000001 cycles: 1648486 heartbeat IPC: 1.81997 cumulative IPC: 1.81985 (Simulation time: 0 hr 1 min 42 sec) 
Heartbeat CPU 0 instructions: 4000000 cycles: 2197959 heartbeat IPC: 1.81992 cumulative IPC: 1.81987 (Simulation time: 0 hr 2 min 14 sec) 
Heartbeat CPU 0 instructions: 5000002 cycles: 2747468 heartbeat IPC: 1.81981 cumulative IPC: 1.81986 (Simulation time: 0 hr 2 min 50 sec) 
Heartbeat CPU 0 instructions: 6000001 cycles: 3296983 heartbeat IPC: 1.81978 cumulative IPC: 1.81985 (Simulation time: 0 hr 3 min 22 sec) 
Heartbeat CPU 0 instructions: 7000000 cycles: 3846462 heartbeat IPC: 1.8199 cumulative IPC: 1.81985 (Simulation time: 0 hr 3 min 55 sec) 
Heartbeat CPU 0 instructions: 8000000 cycles: 4395923 heartbeat IPC: 1.81997 cumulative IPC: 1.81987 (Simulation time: 0 hr 4 min 32 sec) 
Heartbeat CPU 0 instructions: 9000001 cycles: 4945436 heartbeat IPC: 1.8198 cumulative IPC: 1.81986 (Simulation time: 0 hr 5 min 4 sec) 
Heartbeat CPU 0 instructions: 10000001 cycles: 5494911 heartbeat IPC: 1.81992 cumulative IPC: 1.81987 (Simulation time: 0 hr 5 min 36 sec) 
Heartbeat CPU 0 instructions: 11000001 cycles: 6044376 heartbeat IPC: 1.81995 cumulative IPC: 1.81987 (Simulation time: 0 hr 6 min 9 sec) 
Heartbeat CPU 0 instructions: 12000000 cycles: 6593855 heartbeat IPC: 1.8199 cumulative IPC: 1.81988 (Simulation time: 0 hr 6 min 44 sec) 
Heartbeat CPU 0 instructions: 13000001 cycles: 7143384 heartbeat IPC: 1.81974 cumulative IPC: 1.81987 (Simulation time: 0 hr 7 min 15 sec) 
Heartbeat CPU 0 instructions: 14000003 cycles: 7692851 heartbeat IPC: 1.81995 cumulative IPC: 1.81987 (Simulation time: 0 hr 7 min 49 sec) 
Heartbeat CPU 0 instructions: 15000003 cycles: 8242328 heartbeat IPC: 1.81991 cumulative IPC: 1.81987 (Simulation time: 0 hr 8 min 22 sec) 
Heartbeat CPU 0 instructions: 16000000 cycles: 8791808 heartbeat IPC: 1.8199 cumulative IPC: 1.81988 (Simulation time: 0 hr 8 min 53 sec) 
Heartbeat CPU 0 instructions: 17000001 cycles: 9341333 heartbeat IPC: 1.81976 cumulative IPC: 1.81987 (Simulation time: 0 hr 9 min 28 sec) 
Heartbeat CPU 0 instructions: 18000001 cycles: 9890809 heartbeat IPC: 1.81992 cumulative IPC: 1.81987 (Simulation time: 0 hr 9 min 57 sec) 
Heartbeat CPU 0 instructions: 19000000 cycles: 10440288 heartbeat IPC: 1.8199 cumulative IPC: 1.81987 (Simulation time: 0 hr 10 min 30 sec) 
Heartbeat CPU 0 instructions: 20000000 cycles: 10989424 heartbeat IPC: 1.82104 cumulative IPC: 1.81993 (Simulation time: 0 hr 11 min 1 sec) 
Heartbeat CPU 0 instructions: 21000000 cycles: 11536405 heartbeat IPC: 1.82822 cumulative IPC: 1.82032 (Simulation time: 0 hr 11 min 30 sec) 
Heartbeat CPU 0 instructions: 22000003 cycles: 12083409 heartbeat IPC: 1.82815 cumulative IPC: 1.82068 (Simulation time: 0 hr 11 min 59 sec) 
Heartbeat CPU 0 instructions: 23000003 cycles: 12630401 heartbeat IPC: 1.82818 cumulative IPC: 1.821 (Simulation time: 0 hr 12 min 32 sec) 
Heartbeat CPU 0 instructions: 24000000 cycles: 13177380 heartbeat IPC: 1.82822 cumulative IPC: 1.8213 (Simulation time: 0 hr 13 min 4 sec) 
Heartbeat CPU 0 instructions: 25000003 cycles: 13724416 heartbeat IPC: 1.82804 cumulative IPC: 1.82157 (Simulation time: 0 hr 13 min 32 sec) 
Heartbeat CPU 0 instructions: 26000003 cycles: 14271406 heartbeat IPC: 1.82819 cumulative IPC: 1.82182 (Simulation time: 0 hr 13 min 59 sec) 
Heartbeat CPU 0 instructions: 27000000 cycles: 14818381 heartbeat IPC: 1.82823 cumulative IPC: 1.82206 (Simulation time: 0 hr 14 min 27 sec) 
Heartbeat CPU 0 instructions: 28000000 cycles: 15365365 heartbeat IPC: 1.82821 cumulative IPC: 1.82228 (Simulation time: 0 hr 14 min 55 sec) 
Heartbeat CPU 0 instructions: 29000003 cycles: 15912381 heartbeat IPC: 1.82811 cumulative IPC: 1.82248 (Simulation time: 0 hr 15 min 23 sec) 
Heartbeat CPU 0 instructions: 30000000 cycles: 16459393 heartbeat IPC: 1.82811 cumulative IPC: 1.82267 (Simulation time: 0 hr 15 min 51 sec) 
Heartbeat CPU 0 instructions: 31000003 cycles: 17006360 heartbeat IPC: 1.82827 cumulative IPC: 1.82285 (Simulation time: 0 hr 16 min 22 sec) 
Heartbeat CPU 0 instructions: 32000000 cycles: 17553384 heartbeat IPC: 1.82807 cumulative IPC: 1.82301 (Simulation time: 0 hr 16 min 58 sec) 
Heartbeat CPU 0 instructions: 33000000 cycles: 18100356 heartbeat IPC: 1.82825 cumulative IPC: 1.82317 (Simulation time: 0 hr 17 min 29 sec) 
Heartbeat CPU 0 instructions: 34000001 cycles: 18647368 heartbeat IPC: 1.82812 cumulative IPC: 1.82331 (Simulation time: 0 hr 18 min 1 sec) 
Heartbeat CPU 0 instructions: 35000001 cycles: 19194373 heartbeat IPC: 1.82814 cumulative IPC: 1.82345 (Simulation time: 0 hr 18 min 33 sec) 
Heartbeat CPU 0 instructions: 36000000 cycles: 19741323 heartbeat IPC: 1.82832 cumulative IPC: 1.82359 (Simulation time: 0 hr 19 min 5 sec) 
Heartbeat CPU 0 instructions: 37000001 cycles: 20288363 heartbeat IPC: 1.82802 cumulative IPC: 1.82371 (Simulation time: 0 hr 19 min 36 sec) 
Heartbeat CPU 0 instructions: 38000001 cycles: 20835354 heartbeat IPC: 1.82818 cumulative IPC: 1.82382 (Simulation time: 0 hr 20 min 10 sec) 
Heartbeat CPU 0 instructions: 39000000 cycles: 21382325 heartbeat IPC: 1.82825 cumulative IPC: 1.82394 (Simulation time: 0 hr 20 min 41 sec) 
Heartbeat CPU 0 instructions: 40000000 cycles: 21929320 heartbeat IPC: 1.82817 cumulative IPC: 1.82404 (Simulation time: 0 hr 21 min 12 sec) 
Heartbeat CPU 0 instructions: 41000001 cycles: 22476331 heartbeat IPC: 1.82812 cumulative IPC: 1.82414 (Simulation time: 0 hr 21 min 41 sec) 
Heartbeat CPU 0 instructions: 42000001 cycles: 23023324 heartbeat IPC: 1.82818 cumulative IPC: 1.82424 (Simulation time: 0 hr 22 min 10 sec) 
Heartbeat CPU 0 instructions: 43000000 cycles: 23570300 heartbeat IPC: 1.82823 cumulative IPC: 1.82433 (Simulation time: 0 hr 22 min 41 sec) 
Heartbeat CPU 0 instructions: 44000000 cycles: 24074427 heartbeat IPC: 1.98363 cumulative IPC: 1.82767 (Simulation time: 0 hr 23 min 17 sec) 
Heartbeat CPU 0 instructions: 45000002 cycles: 24567679 heartbeat IPC: 2.02737 cumulative IPC: 1.83167 (Simulation time: 0 hr 23 min 52 sec) 
Heartbeat CPU 0 instructions: 46000000 cycles: 25060917 heartbeat IPC: 2.02741 cumulative IPC: 1.83553 (Simulation time: 0 hr 24 min 27 sec) 
Heartbeat CPU 0 instructions: 47000000 cycles: 25554137 heartbeat IPC: 2.02749 cumulative IPC: 1.83923 (Simulation time: 0 hr 24 min 57 sec) 
Heartbeat CPU 0 instructions: 48000000 cycles: 26047374 heartbeat IPC: 2.02742 cumulative IPC: 1.8428 (Simulation time: 0 hr 25 min 31 sec) 
Heartbeat CPU 0 instructions: 49000002 cycles: 26540623 heartbeat IPC: 2.02738 cumulative IPC: 1.84623 (Simulation time: 0 hr 26 min 5 sec) 
Heartbeat CPU 0 instructions: 50000000 cycles: 27018579 heartbeat IPC: 2.09224 cumulative IPC: 1.85058 (Simulation time: 0 hr 26 min 34 sec) 

Warmup complete CPU 0 instructions: 50000004 cycles: 27018580 (Simulation time: 0 hr 26 min 34 sec) 

Heartbeat CPU 0 instructions: 51000002 cycles: 28319909 heartbeat IPC: 0.768446 cumulative IPC: 0.768444 (Simulation time: 0 hr 27 min 7 sec) 
Heartbeat CPU 0 instructions: 52000000 cycles: 30299973 heartbeat IPC: 0.505033 cumulative IPC: 0.609496 (Simulation time: 0 hr 27 min 41 sec) 
Heartbeat CPU 0 instructions: 53000002 cycles: 32545722 heartbeat IPC: 0.445287 cumulative IPC: 0.542776 (Simulation time: 0 hr 28 min 15 sec) 
Heartbeat CPU 0 instructions: 54000003 cycles: 34789603 heartbeat IPC: 0.445657 cumulative IPC: 0.514733 (Simulation time: 0 hr 28 min 45 sec) 
Heartbeat CPU 0 instructions: 55000003 cycles: 37025941 heartbeat IPC: 0.44716 cumulative IPC: 0.499632 (Simulation time: 0 hr 29 min 21 sec) 
Heartbeat CPU 0 instructions: 56000000 cycles: 39257332 heartbeat IPC: 0.44815 cumulative IPC: 0.490246 (Simulation time: 0 hr 29 min 55 sec) 
Heartbeat CPU 0 instructions: 57000000 cycles: 41488669 heartbeat IPC: 0.448162 cumulative IPC: 0.483756 (Simulation time: 0 hr 30 min 28 sec) 
Heartbeat CPU 0 instructions: 58000000 cycles: 43716759 heartbeat IPC: 0.448815 cumulative IPC: 0.479094 (Simulation time: 0 hr 31 min 1 sec) 
Heartbeat CPU 0 instructions: 59000001 cycles: 45948791 heartbeat IPC: 0.448023 cumulative IPC: 0.47543 (Simulation time: 0 hr 31 min 35 sec) 
Heartbeat CPU 0 instructions: 60000000 cycles: 48176981 heartbeat IPC: 0.448794 cumulative IPC: 0.472625 (Simulation time: 0 hr 32 min 8 sec) 
Heartbeat CPU 0 instructions: 61000000 cycles: 50404035 heartbeat IPC: 0.449024 cumulative IPC: 0.470378 (Simulation time: 0 hr 32 min 45 sec) 
Heartbeat CPU 0 instructions: 62000003 cycles: 52628775 heartbeat IPC: 0.449492 cumulative IPC: 0.468563 (Simulation time: 0 hr 33 min 17 sec) 
Heartbeat CPU 0 instructions: 63000003 cycles: 54863770 heartbeat IPC: 0.447428 cumulative IPC: 0.466867 (Simulation time: 0 hr 33 min 50 sec) 
Heartbeat CPU 0 instructions: 64000000 cycles: 57099770 heartbeat IPC: 0.447226 cumulative IPC: 0.465407 (Simulation time: 0 hr 34 min 25 sec) 
Heartbeat CPU 0 instructions: 65000001 cycles: 59334752 heartbeat IPC: 0.447431 cumulative IPC: 0.464164 (Simulation time: 0 hr 34 min 55 sec) 
Heartbeat CPU 0 instructions: 66000001 cycles: 61565907 heartbeat IPC: 0.448198 cumulative IPC: 0.463133 (Simulation time: 0 hr 35 min 26 sec) 
Heartbeat CPU 0 instructions: 67000002 cycles: 63800355 heartbeat IPC: 0.447538 cumulative IPC: 0.462185 (Simulation time: 0 hr 35 min 57 sec) 
Heartbeat CPU 0 instructions: 68000000 cycles: 66033478 heartbeat IPC: 0.447802 cumulative IPC: 0.461362 (Simulation time: 0 hr 36 min 31 sec) 
Heartbeat CPU 0 instructions: 69000001 cycles: 68265304 heartbeat IPC: 0.448064 cumulative IPC: 0.460643 (Simulation time: 0 hr 37 min 3 sec) 
Heartbeat CPU 0 instructions: 70000000 cycles: 70500025 heartbeat IPC: 0.447483 cumulative IPC: 0.459966 (Simulation time: 0 hr 37 min 35 sec) 
Heartbeat CPU 0 instructions: 71000000 cycles: 72737860 heartbeat IPC: 0.44686 cumulative IPC: 0.459325 (Simulation time: 0 hr 38 min 6 sec) 
Heartbeat CPU 0 instructions: 72000000 cycles: 74968432 heartbeat IPC: 0.448316 cumulative IPC: 0.458813 (Simulation time: 0 hr 38 min 38 sec) 
Heartbeat CPU 0 instructions: 73000001 cycles: 77188103 heartbeat IPC: 0.450518 cumulative IPC: 0.458446 (Simulation time: 0 hr 39 min 9 sec) 
Heartbeat CPU 0 instructions: 74000002 cycles: 78772471 heartbeat IPC: 0.631167 cumulative IPC: 0.463733 (Simulation time: 0 hr 39 min 42 sec) 
Heartbeat CPU 0 instructions: 75000003 cycles: 80360552 heartbeat IPC: 0.629691 cumulative IPC: 0.468674 (Simulation time: 0 hr 40 min 15 sec) 
Heartbeat CPU 0 instructions: 76000000 cycles: 81949030 heartbeat IPC: 0.629532 cumulative IPC: 0.473326 (Simulation time: 0 hr 40 min 50 sec) 
Heartbeat CPU 0 instructions: 77000000 cycles: 83529877 heartbeat IPC: 0.632572 cumulative IPC: 0.47778 (Simulation time: 0 hr 41 min 31 sec) 
Heartbeat CPU 0 instructions: 78000000 cycles: 85119310 heartbeat IPC: 0.629155 cumulative IPC: 0.481922 (Simulation time: 0 hr 42 min 18 sec) 
Heartbeat CPU 0 instructions: 79000000 cycles: 86703603 heartbeat IPC: 0.631196 cumulative IPC: 0.485884 (Simulation time: 0 hr 42 min 51 sec) 
Heartbeat CPU 0 instructions: 80000000 cycles: 88288727 heartbeat IPC: 0.630865 cumulative IPC: 0.489635 (Simulation time: 0 hr 43 min 29 sec) 
Heartbeat CPU 0 instructions: 81000003 cycles: 89874681 heartbeat IPC: 0.630537 cumulative IPC: 0.49319 (Simulation time: 0 hr 44 min 12 sec) 
Heartbeat CPU 0 instructions: 82000003 cycles: 91465370 heartbeat IPC: 0.628658 cumulative IPC: 0.496534 (Simulation time: 0 hr 44 min 46 sec) 
Heartbeat CPU 0 instructions: 83000002 cycles: 93050377 heartbeat IPC: 0.630911 cumulative IPC: 0.499759 (Simulation time: 0 hr 45 min 21 sec) 
Heartbeat CPU 0 instructions: 84000000 cycles: 94640931 heartbeat IPC: 0.628711 cumulative IPC: 0.502792 (Simulation time: 0 hr 46 min 2 sec) 
Heartbeat CPU 0 instructions: 85000000 cycles: 96228221 heartbeat IPC: 0.630005 cumulative IPC: 0.50571 (Simulation time: 0 hr 46 min 37 sec) 
Heartbeat CPU 0 instructions: 86000000 cycles: 97815714 heartbeat IPC: 0.629924 cumulative IPC: 0.508495 (Simulation time: 0 hr 47 min 14 sec) 
Heartbeat CPU 0 instructions: 87000000 cycles: 99399609 heartbeat IPC: 0.631355 cumulative IPC: 0.511184 (Simulation time: 0 hr 47 min 48 sec) 
Heartbeat CPU 0 instructions: 88000000 cycles: 100985859 heartbeat IPC: 0.630418 cumulative IPC: 0.513741 (Simulation time: 0 hr 48 min 24 sec) 
Heartbeat CPU 0 instructions: 89000002 cycles: 102576883 heartbeat IPC: 0.628527 cumulative IPC: 0.516158 (Simulation time: 0 hr 48 min 59 sec) 
Heartbeat CPU 0 instructions: 90000002 cycles: 104162270 heartbeat IPC: 0.630761 cumulative IPC: 0.518513 (Simulation time: 0 hr 49 min 39 sec) 
Heartbeat CPU 0 instructions: 91000003 cycles: 105748146 heartbeat IPC: 0.630567 cumulative IPC: 0.52077 (Simulation time: 0 hr 50 min 11 sec) 
Heartbeat CPU 0 instructions: 92000000 cycles: 107335186 heartbeat IPC: 0.630102 cumulative IPC: 0.52293 (Simulation time: 0 hr 50 min 57 sec) 
Heartbeat CPU 0 instructions: 93000000 cycles: 108916852 heartbeat IPC: 0.632245 cumulative IPC: 0.525042 (Simulation time: 0 hr 51 min 38 sec) 
Heartbeat CPU 0 instructions: 94000000 cycles: 110503532 heartbeat IPC: 0.630247 cumulative IPC: 0.527041 (Simulation time: 0 hr 52 min 21 sec) 
Heartbeat CPU 0 instructions: 95000000 cycles: 112093142 heartbeat IPC: 0.629085 cumulative IPC: 0.528948 (Simulation time: 0 hr 52 min 56 sec) 
Heartbeat CPU 0 instructions: 96000000 cycles: 113678967 heartbeat IPC: 0.630587 cumulative IPC: 0.530808 (Simulation time: 0 hr 53 min 38 sec) 
Heartbeat CPU 0 instructions: 97000002 cycles: 115252123 heartbeat IPC: 0.635666 cumulative IPC: 0.532677 (Simulation time: 0 hr 54 min 21 sec) 
Heartbeat CPU 0 instructions: 98000003 cycles: 116826337 heartbeat IPC: 0.635238 cumulative IPC: 0.534475 (Simulation time: 0 hr 55 min 10 sec) 
Heartbeat CPU 0 instructions: 99000000 cycles: 118400150 heartbeat IPC: 0.635398 cumulative IPC: 0.536213 (Simulation time: 0 hr 55 min 53 sec) 
Heartbeat CPU 0 instructions: 100000000 cycles: 119972831 heartbeat IPC: 0.635857 cumulative IPC: 0.537899 (Simulation time: 0 hr 56 min 42 sec) 
Heartbeat CPU 0 instructions: 101000002 cycles: 121551209 heartbeat IPC: 0.633563 cumulative IPC: 0.539496 (Simulation time: 0 hr 57 min 25 sec) 
Heartbeat CPU 0 instructions: 102000000 cycles: 123127577 heartbeat IPC: 0.634368 cumulative IPC: 0.541052 (Simulation time: 0 hr 58 min 10 sec) 
Heartbeat CPU 0 instructions: 103000002 cycles: 124703979 heartbeat IPC: 0.634357 cumulative IPC: 0.542558 (Simulation time: 0 hr 58 min 51 sec) 
Heartbeat CPU 0 instructions: 104000000 cycles: 126275347 heartbeat IPC: 0.636387 cumulative IPC: 0.544043 (Simulation time: 0 hr 59 min 32 sec) 
Heartbeat CPU 0 instructions: 105000003 cycles: 127848677 heartbeat IPC: 0.635596 cumulative IPC: 0.545472 (Simulation time: 1 hr 0 min 19 sec) 
Heartbeat CPU 0 instructions: 106000002 cycles: 129427923 heartbeat IPC: 0.633213 cumulative IPC: 0.546825 (Simulation time: 1 hr 1 min 2 sec) 
Heartbeat CPU 0 instructions: 107000000 cycles: 131009549 heartbeat IPC: 0.632259 cumulative IPC: 0.548124 (Simulation time: 1 hr 1 min 44 sec) 
Heartbeat CPU 0 instructions: 108000000 cycles: 132585268 heartbeat IPC: 0.634631 cumulative IPC: 0.549416 (Simulation time: 1 hr 2 min 30 sec) 
Heartbeat CPU 0 instructions: 109000002 cycles: 134157870 heartbeat IPC: 0.63589 cumulative IPC: 0.550685 (Simulation time: 1 hr 3 min 17 sec) 
Heartbeat CPU 0 instructions: 110000000 cycles: 135732582 heartbeat IPC: 0.635036 cumulative IPC: 0.551907 (Simulation time: 1 hr 4 min 1 sec) 
Heartbeat CPU 0 instructions: 111000000 cycles: 137309986 heartbeat IPC: 0.633953 cumulative IPC: 0.55308 (Simulation time: 1 hr 4 min 46 sec) 
Heartbeat CPU 0 instructions: 112000000 cycles: 138886132 heartbeat IPC: 0.634459 cumulative IPC: 0.554227 (Simulation time: 1 hr 5 min 25 sec) 
Heartbeat CPU 0 instructions: 113000002 cycles: 140462428 heartbeat IPC: 0.6344 cumulative IPC: 0.555341 (Simulation time: 1 hr 6 min 8 sec) 
Heartbeat CPU 0 instructions: 114000003 cycles: 142041639 heartbeat IPC: 0.633228 cumulative IPC: 0.55641 (Simulation time: 1 hr 6 min 49 sec) 
Heartbeat CPU 0 instructions: 115000002 cycles: 143617660 heartbeat IPC: 0.634509 cumulative IPC: 0.557466 (Simulation time: 1 hr 7 min 29 sec) 
Heartbeat CPU 0 instructions: 116000000 cycles: 145189416 heartbeat IPC: 0.63623 cumulative IPC: 0.558513 (Simulation time: 1 hr 8 min 3 sec) 
Heartbeat CPU 0 instructions: 117000003 cycles: 146759365 heartbeat IPC: 0.636965 cumulative IPC: 0.559542 (Simulation time: 1 hr 8 min 46 sec) 
Heartbeat CPU 0 instructions: 118000001 cycles: 148330805 heartbeat IPC: 0.636358 cumulative IPC: 0.560537 (Simulation time: 1 hr 9 min 21 sec) 
Heartbeat CPU 0 instructions: 119000000 cycles: 149910243 heartbeat IPC: 0.633136 cumulative IPC: 0.56147 (Simulation time: 1 hr 9 min 57 sec) 
Heartbeat CPU 0 instructions: 120000000 cycles: 151760885 heartbeat IPC: 0.540353 cumulative IPC: 0.561157 (Simulation time: 1 hr 10 min 35 sec) 
Heartbeat CPU 0 instructions: 121000003 cycles: 153936599 heartbeat IPC: 0.459621 cumulative IPC: 0.559416 (Simulation time: 1 hr 11 min 14 sec) 
Heartbeat CPU 0 instructions: 122000002 cycles: 156232221 heartbeat IPC: 0.435611 cumulative IPC: 0.557217 (Simulation time: 1 hr 11 min 50 sec) 
Heartbeat CPU 0 instructions: 123000002 cycles: 158556532 heartbeat IPC: 0.430235 cumulative IPC: 0.554973 (Simulation time: 1 hr 12 min 29 sec) 
Heartbeat CPU 0 instructions: 124000000 cycles: 160915030 heartbeat IPC: 0.423998 cumulative IPC: 0.552666 (Simulation time: 1 hr 13 min 3 sec) 
Heartbeat CPU 0 instructions: 125000002 cycles: 163205333 heartbeat IPC: 0.436624 cumulative IPC: 0.550714 (Simulation time: 1 hr 13 min 36 sec) 
Heartbeat CPU 0 instructions: 126000001 cycles: 165526209 heartbeat IPC: 0.430871 cumulative IPC: 0.548706 (Simulation time: 1 hr 14 min 9 sec) 
Heartbeat CPU 0 instructions: 127000001 cycles: 169753052 heartbeat IPC: 0.236583 cumulative IPC: 0.539463 (Simulation time: 1 hr 14 min 56 sec) 
Heartbeat CPU 0 instructions: 128000000 cycles: 171607454 heartbeat IPC: 0.539257 cumulative IPC: 0.539461 (Simulation time: 1 hr 15 min 24 sec) 
Heartbeat CPU 0 instructions: 129000000 cycles: 173447714 heartbeat IPC: 0.543401 cumulative IPC: 0.53951 (Simulation time: 1 hr 15 min 52 sec) 
Heartbeat CPU 0 instructions: 130000001 cycles: 175275774 heartbeat IPC: 0.547029 cumulative IPC: 0.539603 (Simulation time: 1 hr 16 min 18 sec) 
Heartbeat CPU 0 instructions: 131000003 cycles: 177098845 heartbeat IPC: 0.548526 cumulative IPC: 0.539711 (Simulation time: 1 hr 16 min 43 sec) 
Heartbeat CPU 0 instructions: 132000000 cycles: 178918158 heartbeat IPC: 0.549656 cumulative IPC: 0.53983 (Simulation time: 1 hr 17 min 6 sec) 
Heartbeat CPU 0 instructions: 133000001 cycles: 180738163 heartbeat IPC: 0.54945 cumulative IPC: 0.539944 (Simulation time: 1 hr 17 min 28 sec) 
Heartbeat CPU 0 instructions: 134000003 cycles: 182547563 heartbeat IPC: 0.55267 cumulative IPC: 0.540092 (Simulation time: 1 hr 17 min 51 sec) 
Heartbeat CPU 0 instructions: 135000001 cycles: 184362117 heartbeat IPC: 0.551099 cumulative IPC: 0.540219 (Simulation time: 1 hr 18 min 12 sec) 
Heartbeat CPU 0 instructions: 136000000 cycles: 186179457 heartbeat IPC: 0.550254 cumulative IPC: 0.540334 (Simulation time: 1 hr 18 min 32 sec) 
Heartbeat CPU 0 instructions: 137000001 cycles: 187998253 heartbeat IPC: 0.549815 cumulative IPC: 0.540441 (Simulation time: 1 hr 18 min 53 sec) 
Heartbeat CPU 0 instructions: 138000003 cycles: 189809913 heartbeat IPC: 0.551981 cumulative IPC: 0.540569 (Simulation time: 1 hr 19 min 13 sec) 
Heartbeat CPU 0 instructions: 139000003 cycles: 191624108 heartbeat IPC: 0.551209 cumulative IPC: 0.540687 (Simulation time: 1 hr 19 min 34 sec) 
Heartbeat CPU 0 instructions: 140000000 cycles: 193436769 heartbeat IPC: 0.551673 cumulative IPC: 0.540806 (Simulation time: 1 hr 19 min 53 sec) 
Heartbeat CPU 0 instructions: 141000003 cycles: 195247968 heartbeat IPC: 0.552122 cumulative IPC: 0.540928 (Simulation time: 1 hr 20 min 14 sec) 
Heartbeat CPU 0 instructions: 142000001 cycles: 197063250 heartbeat IPC: 0.550878 cumulative IPC: 0.541034 (Simulation time: 1 hr 20 min 34 sec) 
Heartbeat CPU 0 instructions: 143000003 cycles: 198880125 heartbeat IPC: 0.550397 cumulative IPC: 0.541133 (Simulation time: 1 hr 20 min 53 sec) 
Heartbeat CPU 0 instructions: 144000000 cycles: 200699644 heartbeat IPC: 0.549594 cumulative IPC: 0.541222 (Simulation time: 1 hr 21 min 12 sec) 
Heartbeat CPU 0 instructions: 145000001 cycles: 202510475 heartbeat IPC: 0.552233 cumulative IPC: 0.541336 (Simulation time: 1 hr 21 min 30 sec) 
Heartbeat CPU 0 instructions: 146000001 cycles: 204322063 heartbeat IPC: 0.552002 cumulative IPC: 0.541444 (Simulation time: 1 hr 21 min 49 sec) 
Heartbeat CPU 0 instructions: 147000001 cycles: 206141120 heartbeat IPC: 0.549735 cumulative IPC: 0.541529 (Simulation time: 1 hr 22 min 7 sec) 
Heartbeat CPU 0 instructions: 148000000 cycles: 207955853 heartbeat IPC: 0.551045 cumulative IPC: 0.541624 (Simulation time: 1 hr 22 min 25 sec) 
Heartbeat CPU 0 instructions: 149000001 cycles: 209775918 heartbeat IPC: 0.549432 cumulative IPC: 0.541702 (Simulation time: 1 hr 22 min 43 sec) 
Heartbeat CPU 0 instructions: 150000003 cycles: 211591126 heartbeat IPC: 0.550902 cumulative IPC: 0.541792 (Simulation time: 1 hr 23 min 2 sec) 
Finished CPU 0 instructions: 100000003 cycles: 184572547 cummulative IPC: 0.541792 (Simulation time: 1 hr 23 min 2 sec) 

ChampSim completed all CPUs

Region of Interest Statistics

CPU 0 cummulative IPC: 0.541792 instructions: 100000003 cycles: 184572547
LLC TOTAL     ACCESS:    3782727  HIT:     120144  MISS:    3662583
LLC LOAD      ACCESS:    1109469  HIT:        826  MISS:    1108643
LLC RFO       ACCESS:     348144  HIT:       3083  MISS:     345061
LLC PREFETCH  ACCESS:    1536101  HIT:      18449  MISS:    1517652
LLC WRITEBACK ACCESS:     789013  HIT:      97786  MISS:     691227
OPTgen accesses: 120026
OPTgen hits: 225
OPTgen hit rate: 0.187459


