
*** ChampSim Multicore Out-of-Order Simulator ***

Warmup Instructions: 50000000
Simulation Instructions: 100000000
Configuration: 2
Number of CPUs: 1
LLC sets: 2048
LLC ways: 16
Off-chip DRAM Channels: 1 Width: 64-bit Data Rate: 1600 MT/s

CPU 0 runs /datasets/cs240c-wi22-a00-public/data/Assignment2-gz/soplex_205B.trace.gz
CPU 0 L1D next line prefetcher
CPU 0 L2C IP-based stride prefetcher
Initialize Hawkeye state
Heartbeat CPU 0 instructions: 1000000 cycles: 395620 heartbeat IPC: 2.52768 cumulative IPC: 2.52768 (Simulation time: 0 hr 0 min 28 sec) 
Heartbeat CPU 0 instructions: 2000002 cycles: 928798 heartbeat IPC: 1.87555 cumulative IPC: 2.15332 (Simulation time: 0 hr 1 min 4 sec) 
Heartbeat CPU 0 instructions: 3000000 cycles: 1400571 heartbeat IPC: 2.11966 cumulative IPC: 2.14198 (Simulation time: 0 hr 1 min 52 sec) 
Heartbeat CPU 0 instructions: 4000000 cycles: 1761876 heartbeat IPC: 2.76774 cumulative IPC: 2.27031 (Simulation time: 0 hr 2 min 25 sec) 
Heartbeat CPU 0 instructions: 5000003 cycles: 2205183 heartbeat IPC: 2.25578 cumulative IPC: 2.26739 (Simulation time: 0 hr 2 min 57 sec) 
Heartbeat CPU 0 instructions: 6000003 cycles: 2624641 heartbeat IPC: 2.38403 cumulative IPC: 2.28603 (Simulation time: 0 hr 3 min 31 sec) 
Heartbeat CPU 0 instructions: 7000000 cycles: 3009077 heartbeat IPC: 2.60121 cumulative IPC: 2.32629 (Simulation time: 0 hr 4 min 1 sec) 
Heartbeat CPU 0 instructions: 8000000 cycles: 3401390 heartbeat IPC: 2.54899 cumulative IPC: 2.35198 (Simulation time: 0 hr 4 min 35 sec) 
Heartbeat CPU 0 instructions: 9000003 cycles: 3922982 heartbeat IPC: 1.91721 cumulative IPC: 2.29417 (Simulation time: 0 hr 5 min 5 sec) 
Heartbeat CPU 0 instructions: 10000000 cycles: 4408189 heartbeat IPC: 2.06097 cumulative IPC: 2.26851 (Simulation time: 0 hr 5 min 43 sec) 
Heartbeat CPU 0 instructions: 11000001 cycles: 4778206 heartbeat IPC: 2.70258 cumulative IPC: 2.30212 (Simulation time: 0 hr 6 min 14 sec) 
Heartbeat CPU 0 instructions: 12000000 cycles: 5215400 heartbeat IPC: 2.28731 cumulative IPC: 2.30088 (Simulation time: 0 hr 6 min 46 sec) 
Heartbeat CPU 0 instructions: 13000001 cycles: 5637949 heartbeat IPC: 2.36659 cumulative IPC: 2.3058 (Simulation time: 0 hr 7 min 20 sec) 
Heartbeat CPU 0 instructions: 14000003 cycles: 6022271 heartbeat IPC: 2.60199 cumulative IPC: 2.3247 (Simulation time: 0 hr 7 min 49 sec) 
Heartbeat CPU 0 instructions: 15000000 cycles: 6432596 heartbeat IPC: 2.43709 cumulative IPC: 2.33187 (Simulation time: 0 hr 8 min 17 sec) 
Heartbeat CPU 0 instructions: 16000000 cycles: 6963402 heartbeat IPC: 1.88393 cumulative IPC: 2.29773 (Simulation time: 0 hr 8 min 53 sec) 
Heartbeat CPU 0 instructions: 17000001 cycles: 7519788 heartbeat IPC: 1.79732 cumulative IPC: 2.2607 (Simulation time: 0 hr 9 min 34 sec) 
Heartbeat CPU 0 instructions: 18000002 cycles: 8031907 heartbeat IPC: 1.95267 cumulative IPC: 2.24106 (Simulation time: 0 hr 10 min 16 sec) 
Heartbeat CPU 0 instructions: 19000002 cycles: 8707112 heartbeat IPC: 1.48103 cumulative IPC: 2.18212 (Simulation time: 0 hr 10 min 59 sec) 
Heartbeat CPU 0 instructions: 20000000 cycles: 9463194 heartbeat IPC: 1.32261 cumulative IPC: 2.11345 (Simulation time: 0 hr 11 min 36 sec) 
Heartbeat CPU 0 instructions: 21000001 cycles: 9909753 heartbeat IPC: 2.23935 cumulative IPC: 2.11912 (Simulation time: 0 hr 12 min 19 sec) 
Heartbeat CPU 0 instructions: 22000000 cycles: 10355513 heartbeat IPC: 2.24336 cumulative IPC: 2.12447 (Simulation time: 0 hr 12 min 55 sec) 
Heartbeat CPU 0 instructions: 23000000 cycles: 10797390 heartbeat IPC: 2.26307 cumulative IPC: 2.13014 (Simulation time: 0 hr 13 min 32 sec) 
Heartbeat CPU 0 instructions: 24000000 cycles: 11298315 heartbeat IPC: 1.99631 cumulative IPC: 2.12421 (Simulation time: 0 hr 14 min 9 sec) 
Heartbeat CPU 0 instructions: 25000002 cycles: 11839457 heartbeat IPC: 1.84795 cumulative IPC: 2.11158 (Simulation time: 0 hr 14 min 47 sec) 
Heartbeat CPU 0 instructions: 26000002 cycles: 12479114 heartbeat IPC: 1.56334 cumulative IPC: 2.08348 (Simulation time: 0 hr 15 min 34 sec) 
Heartbeat CPU 0 instructions: 27000003 cycles: 13066027 heartbeat IPC: 1.70383 cumulative IPC: 2.06643 (Simulation time: 0 hr 16 min 11 sec) 
Heartbeat CPU 0 instructions: 28000000 cycles: 13836602 heartbeat IPC: 1.29773 cumulative IPC: 2.02362 (Simulation time: 0 hr 17 min 1 sec) 
Heartbeat CPU 0 instructions: 29000002 cycles: 14418274 heartbeat IPC: 1.71919 cumulative IPC: 2.01134 (Simulation time: 0 hr 17 min 36 sec) 
Heartbeat CPU 0 instructions: 30000003 cycles: 14838586 heartbeat IPC: 2.37919 cumulative IPC: 2.02176 (Simulation time: 0 hr 18 min 7 sec) 
Heartbeat CPU 0 instructions: 31000003 cycles: 15305062 heartbeat IPC: 2.14373 cumulative IPC: 2.02547 (Simulation time: 0 hr 18 min 42 sec) 
Heartbeat CPU 0 instructions: 32000000 cycles: 15812448 heartbeat IPC: 1.97088 cumulative IPC: 2.02372 (Simulation time: 0 hr 19 min 25 sec) 
Heartbeat CPU 0 instructions: 33000000 cycles: 16346036 heartbeat IPC: 1.87411 cumulative IPC: 2.01884 (Simulation time: 0 hr 20 min 5 sec) 
Heartbeat CPU 0 instructions: 34000003 cycles: 16845465 heartbeat IPC: 2.00229 cumulative IPC: 2.01835 (Simulation time: 0 hr 20 min 35 sec) 
Heartbeat CPU 0 instructions: 35000003 cycles: 17213398 heartbeat IPC: 2.71789 cumulative IPC: 2.0333 (Simulation time: 0 hr 21 min 4 sec) 
Heartbeat CPU 0 instructions: 36000000 cycles: 17654929 heartbeat IPC: 2.26484 cumulative IPC: 2.03909 (Simulation time: 0 hr 21 min 40 sec) 
Heartbeat CPU 0 instructions: 37000000 cycles: 18076214 heartbeat IPC: 2.37369 cumulative IPC: 2.04689 (Simulation time: 0 hr 22 min 19 sec) 
Heartbeat CPU 0 instructions: 38000003 cycles: 18460247 heartbeat IPC: 2.60395 cumulative IPC: 2.05848 (Simulation time: 0 hr 22 min 45 sec) 
Heartbeat CPU 0 instructions: 39000003 cycles: 18850293 heartbeat IPC: 2.5638 cumulative IPC: 2.06893 (Simulation time: 0 hr 23 min 14 sec) 
Heartbeat CPU 0 instructions: 40000000 cycles: 19373321 heartbeat IPC: 1.91194 cumulative IPC: 2.0647 (Simulation time: 0 hr 23 min 46 sec) 
Heartbeat CPU 0 instructions: 41000000 cycles: 19768775 heartbeat IPC: 2.52874 cumulative IPC: 2.07398 (Simulation time: 0 hr 24 min 22 sec) 
Heartbeat CPU 0 instructions: 42000001 cycles: 20187078 heartbeat IPC: 2.39061 cumulative IPC: 2.08054 (Simulation time: 0 hr 24 min 52 sec) 
Heartbeat CPU 0 instructions: 43000001 cycles: 20611669 heartbeat IPC: 2.35521 cumulative IPC: 2.0862 (Simulation time: 0 hr 25 min 24 sec) 
Heartbeat CPU 0 instructions: 44000000 cycles: 21011044 heartbeat IPC: 2.50391 cumulative IPC: 2.09414 (Simulation time: 0 hr 25 min 56 sec) 
Heartbeat CPU 0 instructions: 45000001 cycles: 21395744 heartbeat IPC: 2.59943 cumulative IPC: 2.10322 (Simulation time: 0 hr 26 min 26 sec) 
Heartbeat CPU 0 instructions: 46000000 cycles: 21880972 heartbeat IPC: 2.06088 cumulative IPC: 2.10228 (Simulation time: 0 hr 26 min 53 sec) 
Heartbeat CPU 0 instructions: 47000000 cycles: 22336656 heartbeat IPC: 2.1945 cumulative IPC: 2.10416 (Simulation time: 0 hr 27 min 26 sec) 
Heartbeat CPU 0 instructions: 48000000 cycles: 22778513 heartbeat IPC: 2.26318 cumulative IPC: 2.10725 (Simulation time: 0 hr 28 min 0 sec) 
Heartbeat CPU 0 instructions: 49000001 cycles: 23194123 heartbeat IPC: 2.4061 cumulative IPC: 2.1126 (Simulation time: 0 hr 28 min 31 sec) 
Heartbeat CPU 0 instructions: 50000003 cycles: 23615520 heartbeat IPC: 2.37306 cumulative IPC: 2.11725 (Simulation time: 0 hr 29 min 10 sec) 

Warmup complete CPU 0 instructions: 50000003 cycles: 23615520 (Simulation time: 0 hr 29 min 10 sec) 

Heartbeat CPU 0 instructions: 51000003 cycles: 26064318 heartbeat IPC: 0.408364 cumulative IPC: 0.408364 (Simulation time: 0 hr 29 min 46 sec) 
Heartbeat CPU 0 instructions: 52000000 cycles: 27236846 heartbeat IPC: 0.852856 cumulative IPC: 0.552283 (Simulation time: 0 hr 30 min 11 sec) 
Heartbeat CPU 0 instructions: 53000003 cycles: 30117056 heartbeat IPC: 0.347198 cumulative IPC: 0.461429 (Simulation time: 0 hr 30 min 50 sec) 
Heartbeat CPU 0 instructions: 54000001 cycles: 33222631 heartbeat IPC: 0.322001 cumulative IPC: 0.416358 (Simulation time: 0 hr 31 min 35 sec) 
Heartbeat CPU 0 instructions: 55000001 cycles: 36627575 heartbeat IPC: 0.293691 cumulative IPC: 0.384259 (Simulation time: 0 hr 32 min 27 sec) 
Heartbeat CPU 0 instructions: 56000000 cycles: 38426561 heartbeat IPC: 0.555868 cumulative IPC: 0.405103 (Simulation time: 0 hr 33 min 9 sec) 
Heartbeat CPU 0 instructions: 57000000 cycles: 41970997 heartbeat IPC: 0.282132 cumulative IPC: 0.381357 (Simulation time: 0 hr 34 min 0 sec) 
Heartbeat CPU 0 instructions: 58000000 cycles: 44378340 heartbeat IPC: 0.415396 cumulative IPC: 0.385304 (Simulation time: 0 hr 34 min 39 sec) 
Heartbeat CPU 0 instructions: 59000001 cycles: 45541220 heartbeat IPC: 0.859935 cumulative IPC: 0.410477 (Simulation time: 0 hr 35 min 4 sec) 
Heartbeat CPU 0 instructions: 60000000 cycles: 48735367 heartbeat IPC: 0.313072 cumulative IPC: 0.398091 (Simulation time: 0 hr 35 min 43 sec) 
Heartbeat CPU 0 instructions: 61000003 cycles: 51979555 heartbeat IPC: 0.308244 cumulative IPC: 0.387815 (Simulation time: 0 hr 36 min 27 sec) 
Heartbeat CPU 0 instructions: 62000002 cycles: 55283321 heartbeat IPC: 0.302685 cumulative IPC: 0.378934 (Simulation time: 0 hr 37 min 13 sec) 
Heartbeat CPU 0 instructions: 63000001 cycles: 56867022 heartbeat IPC: 0.631432 cumulative IPC: 0.39096 (Simulation time: 0 hr 37 min 47 sec) 
Heartbeat CPU 0 instructions: 64000000 cycles: 60538715 heartbeat IPC: 0.272354 cumulative IPC: 0.379165 (Simulation time: 0 hr 38 min 37 sec) 
Heartbeat CPU 0 instructions: 65000001 cycles: 62497034 heartbeat IPC: 0.510643 cumulative IPC: 0.385787 (Simulation time: 0 hr 39 min 7 sec) 
Heartbeat CPU 0 instructions: 66000000 cycles: 63640948 heartbeat IPC: 0.874191 cumulative IPC: 0.399746 (Simulation time: 0 hr 39 min 37 sec) 
Heartbeat CPU 0 instructions: 67000003 cycles: 66757122 heartbeat IPC: 0.320907 cumulative IPC: 0.394051 (Simulation time: 0 hr 40 min 18 sec) 
Heartbeat CPU 0 instructions: 68000000 cycles: 70003080 heartbeat IPC: 0.308075 cumulative IPC: 0.388035 (Simulation time: 0 hr 41 min 5 sec) 
Heartbeat CPU 0 instructions: 69000001 cycles: 73055311 heartbeat IPC: 0.32763 cumulative IPC: 0.384306 (Simulation time: 0 hr 41 min 55 sec) 
Heartbeat CPU 0 instructions: 70000000 cycles: 74893933 heartbeat IPC: 0.543885 cumulative IPC: 0.390028 (Simulation time: 0 hr 42 min 35 sec) 
Heartbeat CPU 0 instructions: 71000001 cycles: 78458075 heartbeat IPC: 0.280573 cumulative IPC: 0.382914 (Simulation time: 0 hr 43 min 22 sec) 
Heartbeat CPU 0 instructions: 72000000 cycles: 80836433 heartbeat IPC: 0.420458 cumulative IPC: 0.384475 (Simulation time: 0 hr 43 min 53 sec) 
Heartbeat CPU 0 instructions: 73000000 cycles: 81985447 heartbeat IPC: 0.870311 cumulative IPC: 0.394038 (Simulation time: 0 hr 44 min 22 sec) 
Heartbeat CPU 0 instructions: 74000001 cycles: 85014375 heartbeat IPC: 0.33015 cumulative IPC: 0.390887 (Simulation time: 0 hr 45 min 14 sec) 
Heartbeat CPU 0 instructions: 75000003 cycles: 88284683 heartbeat IPC: 0.305782 cumulative IPC: 0.386583 (Simulation time: 0 hr 46 min 0 sec) 
Heartbeat CPU 0 instructions: 76000000 cycles: 91757390 heartbeat IPC: 0.287959 cumulative IPC: 0.381557 (Simulation time: 0 hr 46 min 45 sec) 
Heartbeat CPU 0 instructions: 77000000 cycles: 93289070 heartbeat IPC: 0.652878 cumulative IPC: 0.387521 (Simulation time: 0 hr 47 min 22 sec) 
Heartbeat CPU 0 instructions: 78000000 cycles: 97062794 heartbeat IPC: 0.26499 cumulative IPC: 0.381226 (Simulation time: 0 hr 48 min 9 sec) 
Heartbeat CPU 0 instructions: 79000002 cycles: 98926631 heartbeat IPC: 0.536529 cumulative IPC: 0.385069 (Simulation time: 0 hr 48 min 40 sec) 
Heartbeat CPU 0 instructions: 80000000 cycles: 100076076 heartbeat IPC: 0.869983 cumulative IPC: 0.392359 (Simulation time: 0 hr 49 min 4 sec) 
Heartbeat CPU 0 instructions: 81000000 cycles: 103097421 heartbeat IPC: 0.330978 cumulative IPC: 0.390026 (Simulation time: 0 hr 49 min 46 sec) 
Heartbeat CPU 0 instructions: 82000000 cycles: 106310974 heartbeat IPC: 0.311182 cumulative IPC: 0.386962 (Simulation time: 0 hr 50 min 35 sec) 
Heartbeat CPU 0 instructions: 83000000 cycles: 109890123 heartbeat IPC: 0.279396 cumulative IPC: 0.3825 (Simulation time: 0 hr 51 min 21 sec) 
Heartbeat CPU 0 instructions: 84000000 cycles: 111567976 heartbeat IPC: 0.596 cumulative IPC: 0.386572 (Simulation time: 0 hr 52 min 1 sec) 
Heartbeat CPU 0 instructions: 85000000 cycles: 115757443 heartbeat IPC: 0.238694 cumulative IPC: 0.379849 (Simulation time: 0 hr 52 min 53 sec) 
Heartbeat CPU 0 instructions: 86000002 cycles: 117249964 heartbeat IPC: 0.670009 cumulative IPC: 0.384474 (Simulation time: 0 hr 53 min 18 sec) 
Heartbeat CPU 0 instructions: 87000002 cycles: 118382386 heartbeat IPC: 0.883063 cumulative IPC: 0.390432 (Simulation time: 0 hr 53 min 44 sec) 
Heartbeat CPU 0 instructions: 88000000 cycles: 121634723 heartbeat IPC: 0.307471 cumulative IPC: 0.387679 (Simulation time: 0 hr 54 min 25 sec) 
Heartbeat CPU 0 instructions: 89000003 cycles: 125245789 heartbeat IPC: 0.276927 cumulative IPC: 0.383744 (Simulation time: 0 hr 55 min 17 sec) 
Heartbeat CPU 0 instructions: 90000001 cycles: 128399030 heartbeat IPC: 0.317133 cumulative IPC: 0.381739 (Simulation time: 0 hr 56 min 2 sec) 
Heartbeat CPU 0 instructions: 91000003 cycles: 130201689 heartbeat IPC: 0.554737 cumulative IPC: 0.384665 (Simulation time: 0 hr 56 min 47 sec) 
Heartbeat CPU 0 instructions: 92000000 cycles: 133915178 heartbeat IPC: 0.269288 cumulative IPC: 0.380781 (Simulation time: 0 hr 57 min 37 sec) 
Heartbeat CPU 0 instructions: 93000000 cycles: 135193484 heartbeat IPC: 0.782285 cumulative IPC: 0.385381 (Simulation time: 0 hr 58 min 5 sec) 
Heartbeat CPU 0 instructions: 94000000 cycles: 136510527 heartbeat IPC: 0.759277 cumulative IPC: 0.389743 (Simulation time: 0 hr 58 min 32 sec) 
Heartbeat CPU 0 instructions: 95000002 cycles: 139706335 heartbeat IPC: 0.312911 cumulative IPC: 0.387628 (Simulation time: 0 hr 59 min 20 sec) 
Heartbeat CPU 0 instructions: 96000000 cycles: 142610877 heartbeat IPC: 0.344288 cumulative IPC: 0.38657 (Simulation time: 1 hr 0 min 7 sec) 
Heartbeat CPU 0 instructions: 97000003 cycles: 145460614 heartbeat IPC: 0.350911 cumulative IPC: 0.385736 (Simulation time: 1 hr 0 min 50 sec) 
Heartbeat CPU 0 instructions: 98000003 cycles: 147810494 heartbeat IPC: 0.425554 cumulative IPC: 0.386489 (Simulation time: 1 hr 1 min 32 sec) 
Heartbeat CPU 0 instructions: 99000000 cycles: 151311048 heartbeat IPC: 0.285668 cumulative IPC: 0.383725 (Simulation time: 1 hr 2 min 20 sec) 
Heartbeat CPU 0 instructions: 100000000 cycles: 152553268 heartbeat IPC: 0.80501 cumulative IPC: 0.387784 (Simulation time: 1 hr 2 min 45 sec) 
Heartbeat CPU 0 instructions: 101000003 cycles: 154481398 heartbeat IPC: 0.518639 cumulative IPC: 0.389712 (Simulation time: 1 hr 3 min 14 sec) 
Heartbeat CPU 0 instructions: 102000002 cycles: 157837629 heartbeat IPC: 0.297953 cumulative IPC: 0.387418 (Simulation time: 1 hr 4 min 0 sec) 
Heartbeat CPU 0 instructions: 103000000 cycles: 159896749 heartbeat IPC: 0.485643 cumulative IPC: 0.388902 (Simulation time: 1 hr 4 min 42 sec) 
Heartbeat CPU 0 instructions: 104000000 cycles: 168475541 heartbeat IPC: 0.116567 cumulative IPC: 0.372774 (Simulation time: 1 hr 5 min 32 sec) 
Heartbeat CPU 0 instructions: 105000000 cycles: 170567514 heartbeat IPC: 0.478018 cumulative IPC: 0.374272 (Simulation time: 1 hr 6 min 24 sec) 
Heartbeat CPU 0 instructions: 106000002 cycles: 174856549 heartbeat IPC: 0.233153 cumulative IPC: 0.37027 (Simulation time: 1 hr 7 min 12 sec) 
Heartbeat CPU 0 instructions: 107000003 cycles: 179141886 heartbeat IPC: 0.233354 cumulative IPC: 0.366497 (Simulation time: 1 hr 7 min 55 sec) 
Heartbeat CPU 0 instructions: 108000000 cycles: 182483334 heartbeat IPC: 0.299271 cumulative IPC: 0.365083 (Simulation time: 1 hr 8 min 38 sec) 
Heartbeat CPU 0 instructions: 109000000 cycles: 185946444 heartbeat IPC: 0.288758 cumulative IPC: 0.363455 (Simulation time: 1 hr 9 min 28 sec) 
Heartbeat CPU 0 instructions: 110000003 cycles: 189655804 heartbeat IPC: 0.269589 cumulative IPC: 0.361358 (Simulation time: 1 hr 10 min 2 sec) 
Heartbeat CPU 0 instructions: 111000002 cycles: 193488654 heartbeat IPC: 0.260902 cumulative IPC: 0.359091 (Simulation time: 1 hr 10 min 42 sec) 
Heartbeat CPU 0 instructions: 112000000 cycles: 196136241 heartbeat IPC: 0.377702 cumulative IPC: 0.359377 (Simulation time: 1 hr 11 min 12 sec) 
Heartbeat CPU 0 instructions: 113000001 cycles: 199898087 heartbeat IPC: 0.265827 cumulative IPC: 0.357381 (Simulation time: 1 hr 11 min 48 sec) 
Heartbeat CPU 0 instructions: 114000000 cycles: 201911260 heartbeat IPC: 0.496728 cumulative IPC: 0.358954 (Simulation time: 1 hr 12 min 18 sec) 
Heartbeat CPU 0 instructions: 115000002 cycles: 203328879 heartbeat IPC: 0.70541 cumulative IPC: 0.361687 (Simulation time: 1 hr 12 min 47 sec) 
Heartbeat CPU 0 instructions: 116000000 cycles: 204719716 heartbeat IPC: 0.71899 cumulative IPC: 0.364431 (Simulation time: 1 hr 13 min 12 sec) 
Heartbeat CPU 0 instructions: 117000001 cycles: 207499928 heartbeat IPC: 0.359685 cumulative IPC: 0.364359 (Simulation time: 1 hr 13 min 45 sec) 
Heartbeat CPU 0 instructions: 118000002 cycles: 210304559 heartbeat IPC: 0.356553 cumulative IPC: 0.364242 (Simulation time: 1 hr 14 min 19 sec) 
Heartbeat CPU 0 instructions: 119000001 cycles: 212337860 heartbeat IPC: 0.491811 cumulative IPC: 0.365616 (Simulation time: 1 hr 14 min 47 sec) 
Heartbeat CPU 0 instructions: 120000000 cycles: 215051815 heartbeat IPC: 0.368466 cumulative IPC: 0.365657 (Simulation time: 1 hr 15 min 13 sec) 
Heartbeat CPU 0 instructions: 121000000 cycles: 216825302 heartbeat IPC: 0.563861 cumulative IPC: 0.367476 (Simulation time: 1 hr 15 min 39 sec) 
Heartbeat CPU 0 instructions: 122000000 cycles: 220857110 heartbeat IPC: 0.248028 cumulative IPC: 0.365035 (Simulation time: 1 hr 16 min 15 sec) 
Heartbeat CPU 0 instructions: 123000001 cycles: 222178439 heartbeat IPC: 0.756815 cumulative IPC: 0.367642 (Simulation time: 1 hr 16 min 34 sec) 
Heartbeat CPU 0 instructions: 124000000 cycles: 223407979 heartbeat IPC: 0.813311 cumulative IPC: 0.370384 (Simulation time: 1 hr 16 min 53 sec) 
Heartbeat CPU 0 instructions: 125000001 cycles: 226601127 heartbeat IPC: 0.313171 cumulative IPC: 0.369484 (Simulation time: 1 hr 17 min 21 sec) 
Heartbeat CPU 0 instructions: 126000000 cycles: 230385993 heartbeat IPC: 0.26421 cumulative IPC: 0.367557 (Simulation time: 1 hr 17 min 53 sec) 
Heartbeat CPU 0 instructions: 127000003 cycles: 232775988 heartbeat IPC: 0.418412 cumulative IPC: 0.368138 (Simulation time: 1 hr 18 min 16 sec) 
Heartbeat CPU 0 instructions: 128000000 cycles: 235729746 heartbeat IPC: 0.338551 cumulative IPC: 0.367726 (Simulation time: 1 hr 18 min 44 sec) 
Heartbeat CPU 0 instructions: 129000000 cycles: 238669512 heartbeat IPC: 0.340163 cumulative IPC: 0.36735 (Simulation time: 1 hr 19 min 8 sec) 
Heartbeat CPU 0 instructions: 130000003 cycles: 239883446 heartbeat IPC: 0.82377 cumulative IPC: 0.369912 (Simulation time: 1 hr 19 min 24 sec) 
Heartbeat CPU 0 instructions: 131000001 cycles: 242527601 heartbeat IPC: 0.378192 cumulative IPC: 0.370012 (Simulation time: 1 hr 19 min 46 sec) 
Heartbeat CPU 0 instructions: 132000000 cycles: 245826321 heartbeat IPC: 0.303148 cumulative IPC: 0.369019 (Simulation time: 1 hr 20 min 14 sec) 
Heartbeat CPU 0 instructions: 133000000 cycles: 248653183 heartbeat IPC: 0.353749 cumulative IPC: 0.368827 (Simulation time: 1 hr 20 min 37 sec) 
Heartbeat CPU 0 instructions: 134000002 cycles: 250234107 heartbeat IPC: 0.632543 cumulative IPC: 0.370667 (Simulation time: 1 hr 20 min 57 sec) 
Heartbeat CPU 0 instructions: 135000002 cycles: 254026048 heartbeat IPC: 0.263717 cumulative IPC: 0.368907 (Simulation time: 1 hr 21 min 24 sec) 
Heartbeat CPU 0 instructions: 136000000 cycles: 256008410 heartbeat IPC: 0.504448 cumulative IPC: 0.370063 (Simulation time: 1 hr 21 min 41 sec) 
Heartbeat CPU 0 instructions: 137000000 cycles: 257184825 heartbeat IPC: 0.85004 cumulative IPC: 0.37248 (Simulation time: 1 hr 21 min 55 sec) 
Heartbeat CPU 0 instructions: 138000003 cycles: 260244180 heartbeat IPC: 0.326867 cumulative IPC: 0.371891 (Simulation time: 1 hr 22 min 17 sec) 
Heartbeat CPU 0 instructions: 139000000 cycles: 263366743 heartbeat IPC: 0.320249 cumulative IPC: 0.371218 (Simulation time: 1 hr 22 min 42 sec) 
Heartbeat CPU 0 instructions: 140000000 cycles: 265573374 heartbeat IPC: 0.45318 cumulative IPC: 0.371966 (Simulation time: 1 hr 23 min 3 sec) 
Heartbeat CPU 0 instructions: 141000002 cycles: 267273517 heartbeat IPC: 0.588187 cumulative IPC: 0.373474 (Simulation time: 1 hr 23 min 21 sec) 
Heartbeat CPU 0 instructions: 142000003 cycles: 271086412 heartbeat IPC: 0.262268 cumulative IPC: 0.371761 (Simulation time: 1 hr 23 min 47 sec) 
Heartbeat CPU 0 instructions: 143000003 cycles: 273331241 heartbeat IPC: 0.445468 cumulative IPC: 0.372423 (Simulation time: 1 hr 24 min 0 sec) 
Heartbeat CPU 0 instructions: 144000000 cycles: 274491206 heartbeat IPC: 0.862092 cumulative IPC: 0.374688 (Simulation time: 1 hr 24 min 12 sec) 
Heartbeat CPU 0 instructions: 145000000 cycles: 277546432 heartbeat IPC: 0.327308 cumulative IPC: 0.374117 (Simulation time: 1 hr 24 min 28 sec) 
Heartbeat CPU 0 instructions: 146000003 cycles: 280792837 heartbeat IPC: 0.308034 cumulative IPC: 0.373283 (Simulation time: 1 hr 24 min 48 sec) 
Heartbeat CPU 0 instructions: 147000000 cycles: 282861801 heartbeat IPC: 0.483332 cumulative IPC: 0.374162 (Simulation time: 1 hr 25 min 2 sec) 
Heartbeat CPU 0 instructions: 148000000 cycles: 284420299 heartbeat IPC: 0.641643 cumulative IPC: 0.37576 (Simulation time: 1 hr 25 min 16 sec) 
Heartbeat CPU 0 instructions: 149000001 cycles: 288261931 heartbeat IPC: 0.260306 cumulative IPC: 0.374084 (Simulation time: 1 hr 25 min 36 sec) 
Heartbeat CPU 0 instructions: 150000002 cycles: 290150513 heartbeat IPC: 0.529498 cumulative IPC: 0.375185 (Simulation time: 1 hr 25 min 47 sec) 
Finished CPU 0 instructions: 100000002 cycles: 266534995 cummulative IPC: 0.375185 (Simulation time: 1 hr 25 min 47 sec) 

ChampSim completed all CPUs

Region of Interest Statistics

CPU 0 cummulative IPC: 0.375185 instructions: 100000002 cycles: 266534995
LLC TOTAL     ACCESS:    8447216  HIT:    4176538  MISS:    4270678
LLC LOAD      ACCESS:    2166776  HIT:     938724  MISS:    1228052
LLC RFO       ACCESS:     775959  HIT:     240992  MISS:     534967
LLC PREFETCH  ACCESS:    3418596  HIT:    1478771  MISS:    1939825
LLC WRITEBACK ACCESS:    2085885  HIT:    1518051  MISS:     567834
OPTgen accesses: 276981
OPTgen hits: 103106
OPTgen hit rate: 37.2249


