
*** ChampSim Multicore Out-of-Order Simulator ***

Warmup Instructions: 50000000
Simulation Instructions: 100000000
Configuration: 2
Number of CPUs: 1
LLC sets: 2048
LLC ways: 16
Off-chip DRAM Channels: 1 Width: 64-bit Data Rate: 1600 MT/s

CPU 0 runs /datasets/cs240c-wi22-a00-public/data/Assignment2-gz/wrf_1228B.trace.gz
CPU 0 L1D next line prefetcher
CPU 0 L2C IP-based stride prefetcher
Initialize Hawkeye state
Heartbeat CPU 0 instructions: 1000003 cycles: 591062 heartbeat IPC: 1.69187 cumulative IPC: 1.69187 (Simulation time: 0 hr 0 min 39 sec) 
Heartbeat CPU 0 instructions: 2000003 cycles: 1111220 heartbeat IPC: 1.92249 cumulative IPC: 1.79983 (Simulation time: 0 hr 1 min 22 sec) 
Heartbeat CPU 0 instructions: 3000000 cycles: 1729186 heartbeat IPC: 1.61821 cumulative IPC: 1.73492 (Simulation time: 0 hr 2 min 12 sec) 
Heartbeat CPU 0 instructions: 4000000 cycles: 2349845 heartbeat IPC: 1.61119 cumulative IPC: 1.70224 (Simulation time: 0 hr 2 min 56 sec) 
Heartbeat CPU 0 instructions: 5000000 cycles: 3052208 heartbeat IPC: 1.42377 cumulative IPC: 1.63816 (Simulation time: 0 hr 3 min 39 sec) 
Heartbeat CPU 0 instructions: 6000000 cycles: 3612292 heartbeat IPC: 1.78545 cumulative IPC: 1.661 (Simulation time: 0 hr 4 min 16 sec) 
Heartbeat CPU 0 instructions: 7000001 cycles: 4165044 heartbeat IPC: 1.80913 cumulative IPC: 1.68065 (Simulation time: 0 hr 4 min 57 sec) 
Heartbeat CPU 0 instructions: 8000000 cycles: 4716410 heartbeat IPC: 1.81368 cumulative IPC: 1.69621 (Simulation time: 0 hr 5 min 36 sec) 
Heartbeat CPU 0 instructions: 9000002 cycles: 5266599 heartbeat IPC: 1.81756 cumulative IPC: 1.70888 (Simulation time: 0 hr 6 min 13 sec) 
Heartbeat CPU 0 instructions: 10000001 cycles: 5819499 heartbeat IPC: 1.80864 cumulative IPC: 1.71836 (Simulation time: 0 hr 6 min 54 sec) 
Heartbeat CPU 0 instructions: 11000002 cycles: 6373239 heartbeat IPC: 1.8059 cumulative IPC: 1.72597 (Simulation time: 0 hr 7 min 31 sec) 
Heartbeat CPU 0 instructions: 12000000 cycles: 6924089 heartbeat IPC: 1.81537 cumulative IPC: 1.73308 (Simulation time: 0 hr 8 min 9 sec) 
Heartbeat CPU 0 instructions: 13000003 cycles: 7475113 heartbeat IPC: 1.81481 cumulative IPC: 1.7391 (Simulation time: 0 hr 8 min 47 sec) 
Heartbeat CPU 0 instructions: 14000000 cycles: 7938761 heartbeat IPC: 2.1568 cumulative IPC: 1.7635 (Simulation time: 0 hr 9 min 21 sec) 
Heartbeat CPU 0 instructions: 15000002 cycles: 8329242 heartbeat IPC: 2.56095 cumulative IPC: 1.80088 (Simulation time: 0 hr 9 min 51 sec) 
Heartbeat CPU 0 instructions: 16000000 cycles: 8719718 heartbeat IPC: 2.56097 cumulative IPC: 1.83492 (Simulation time: 0 hr 10 min 22 sec) 
Heartbeat CPU 0 instructions: 17000001 cycles: 9108885 heartbeat IPC: 2.56959 cumulative IPC: 1.86631 (Simulation time: 0 hr 10 min 54 sec) 
Heartbeat CPU 0 instructions: 18000003 cycles: 9499622 heartbeat IPC: 2.55927 cumulative IPC: 1.89481 (Simulation time: 0 hr 11 min 29 sec) 
Heartbeat CPU 0 instructions: 19000001 cycles: 9889969 heartbeat IPC: 2.56182 cumulative IPC: 1.92114 (Simulation time: 0 hr 11 min 58 sec) 
Heartbeat CPU 0 instructions: 20000000 cycles: 10279485 heartbeat IPC: 2.56729 cumulative IPC: 1.94562 (Simulation time: 0 hr 12 min 30 sec) 
Heartbeat CPU 0 instructions: 21000003 cycles: 10669419 heartbeat IPC: 2.56454 cumulative IPC: 1.96824 (Simulation time: 0 hr 13 min 4 sec) 
Heartbeat CPU 0 instructions: 22000000 cycles: 11071751 heartbeat IPC: 2.4855 cumulative IPC: 1.98704 (Simulation time: 0 hr 13 min 37 sec) 
Heartbeat CPU 0 instructions: 23000003 cycles: 11599112 heartbeat IPC: 1.89624 cumulative IPC: 1.98291 (Simulation time: 0 hr 14 min 16 sec) 
Heartbeat CPU 0 instructions: 24000000 cycles: 12126830 heartbeat IPC: 1.89495 cumulative IPC: 1.97908 (Simulation time: 0 hr 14 min 52 sec) 
Heartbeat CPU 0 instructions: 25000000 cycles: 12654122 heartbeat IPC: 1.89648 cumulative IPC: 1.97564 (Simulation time: 0 hr 15 min 28 sec) 
Heartbeat CPU 0 instructions: 26000003 cycles: 13181100 heartbeat IPC: 1.89762 cumulative IPC: 1.97252 (Simulation time: 0 hr 16 min 6 sec) 
Heartbeat CPU 0 instructions: 27000001 cycles: 13708012 heartbeat IPC: 1.89785 cumulative IPC: 1.96965 (Simulation time: 0 hr 16 min 44 sec) 
Heartbeat CPU 0 instructions: 28000000 cycles: 14235081 heartbeat IPC: 1.89728 cumulative IPC: 1.96697 (Simulation time: 0 hr 17 min 21 sec) 
Heartbeat CPU 0 instructions: 29000003 cycles: 14865616 heartbeat IPC: 1.58596 cumulative IPC: 1.95081 (Simulation time: 0 hr 17 min 58 sec) 
Heartbeat CPU 0 instructions: 30000003 cycles: 15479038 heartbeat IPC: 1.6302 cumulative IPC: 1.93811 (Simulation time: 0 hr 18 min 40 sec) 
Heartbeat CPU 0 instructions: 31000001 cycles: 16036338 heartbeat IPC: 1.79436 cumulative IPC: 1.93311 (Simulation time: 0 hr 19 min 21 sec) 
Heartbeat CPU 0 instructions: 32000000 cycles: 16591927 heartbeat IPC: 1.79989 cumulative IPC: 1.92865 (Simulation time: 0 hr 20 min 1 sec) 
Heartbeat CPU 0 instructions: 33000001 cycles: 17212693 heartbeat IPC: 1.61091 cumulative IPC: 1.91719 (Simulation time: 0 hr 20 min 39 sec) 
Heartbeat CPU 0 instructions: 34000003 cycles: 17833273 heartbeat IPC: 1.6114 cumulative IPC: 1.90655 (Simulation time: 0 hr 21 min 19 sec) 
Heartbeat CPU 0 instructions: 35000002 cycles: 18516698 heartbeat IPC: 1.46322 cumulative IPC: 1.89019 (Simulation time: 0 hr 21 min 58 sec) 
Heartbeat CPU 0 instructions: 36000000 cycles: 19069520 heartbeat IPC: 1.8089 cumulative IPC: 1.88783 (Simulation time: 0 hr 22 min 38 sec) 
Heartbeat CPU 0 instructions: 37000001 cycles: 19623019 heartbeat IPC: 1.80669 cumulative IPC: 1.88554 (Simulation time: 0 hr 23 min 19 sec) 
Heartbeat CPU 0 instructions: 38000001 cycles: 20173218 heartbeat IPC: 1.81752 cumulative IPC: 1.88369 (Simulation time: 0 hr 23 min 59 sec) 
Heartbeat CPU 0 instructions: 39000002 cycles: 20724690 heartbeat IPC: 1.81333 cumulative IPC: 1.88181 (Simulation time: 0 hr 24 min 41 sec) 
Heartbeat CPU 0 instructions: 40000000 cycles: 21277149 heartbeat IPC: 1.81009 cumulative IPC: 1.87995 (Simulation time: 0 hr 25 min 18 sec) 
Heartbeat CPU 0 instructions: 41000000 cycles: 21829668 heartbeat IPC: 1.80989 cumulative IPC: 1.87818 (Simulation time: 0 hr 25 min 57 sec) 
Heartbeat CPU 0 instructions: 42000000 cycles: 22382148 heartbeat IPC: 1.81002 cumulative IPC: 1.8765 (Simulation time: 0 hr 26 min 35 sec) 
Heartbeat CPU 0 instructions: 43000000 cycles: 22932638 heartbeat IPC: 1.81656 cumulative IPC: 1.87506 (Simulation time: 0 hr 27 min 9 sec) 
Heartbeat CPU 0 instructions: 44000000 cycles: 23336480 heartbeat IPC: 2.47622 cumulative IPC: 1.88546 (Simulation time: 0 hr 27 min 39 sec) 
Heartbeat CPU 0 instructions: 45000000 cycles: 23725985 heartbeat IPC: 2.56736 cumulative IPC: 1.89665 (Simulation time: 0 hr 28 min 15 sec) 
Heartbeat CPU 0 instructions: 46000000 cycles: 24116108 heartbeat IPC: 2.56329 cumulative IPC: 1.90744 (Simulation time: 0 hr 28 min 43 sec) 
Heartbeat CPU 0 instructions: 47000002 cycles: 24506617 heartbeat IPC: 2.56077 cumulative IPC: 1.91785 (Simulation time: 0 hr 29 min 19 sec) 
Heartbeat CPU 0 instructions: 48000000 cycles: 24896732 heartbeat IPC: 2.56334 cumulative IPC: 1.92796 (Simulation time: 0 hr 29 min 49 sec) 
Heartbeat CPU 0 instructions: 49000001 cycles: 25285984 heartbeat IPC: 2.56903 cumulative IPC: 1.93783 (Simulation time: 0 hr 30 min 21 sec) 
Heartbeat CPU 0 instructions: 50000003 cycles: 25676650 heartbeat IPC: 2.55974 cumulative IPC: 1.94729 (Simulation time: 0 hr 30 min 53 sec) 

Warmup complete CPU 0 instructions: 50000003 cycles: 25676650 (Simulation time: 0 hr 30 min 53 sec) 

Heartbeat CPU 0 instructions: 51000001 cycles: 26573068 heartbeat IPC: 1.11555 cumulative IPC: 1.11555 (Simulation time: 0 hr 31 min 28 sec) 
Heartbeat CPU 0 instructions: 52000000 cycles: 27534207 heartbeat IPC: 1.04043 cumulative IPC: 1.07668 (Simulation time: 0 hr 32 min 4 sec) 
Heartbeat CPU 0 instructions: 53000002 cycles: 28542123 heartbeat IPC: 0.992148 cumulative IPC: 1.04695 (Simulation time: 0 hr 32 min 37 sec) 
Heartbeat CPU 0 instructions: 54000001 cycles: 29548903 heartbeat IPC: 0.993265 cumulative IPC: 1.03299 (Simulation time: 0 hr 33 min 11 sec) 
Heartbeat CPU 0 instructions: 55000003 cycles: 30563102 heartbeat IPC: 0.986002 cumulative IPC: 1.02324 (Simulation time: 0 hr 33 min 43 sec) 
Heartbeat CPU 0 instructions: 56000000 cycles: 31563022 heartbeat IPC: 1.00008 cumulative IPC: 1.0193 (Simulation time: 0 hr 34 min 17 sec) 
Heartbeat CPU 0 instructions: 57000001 cycles: 32565349 heartbeat IPC: 0.997679 cumulative IPC: 1.01616 (Simulation time: 0 hr 34 min 52 sec) 
Heartbeat CPU 0 instructions: 58000000 cycles: 33570531 heartbeat IPC: 0.994844 cumulative IPC: 1.01344 (Simulation time: 0 hr 35 min 24 sec) 
Heartbeat CPU 0 instructions: 59000001 cycles: 35404931 heartbeat IPC: 0.545138 cumulative IPC: 0.925138 (Simulation time: 0 hr 36 min 10 sec) 
Heartbeat CPU 0 instructions: 60000000 cycles: 37171716 heartbeat IPC: 0.565999 cumulative IPC: 0.869938 (Simulation time: 0 hr 36 min 51 sec) 
Heartbeat CPU 0 instructions: 61000000 cycles: 39495576 heartbeat IPC: 0.430319 cumulative IPC: 0.79601 (Simulation time: 0 hr 37 min 33 sec) 
Heartbeat CPU 0 instructions: 62000000 cycles: 41250231 heartbeat IPC: 0.569913 cumulative IPC: 0.770535 (Simulation time: 0 hr 38 min 16 sec) 
Heartbeat CPU 0 instructions: 63000001 cycles: 42617465 heartbeat IPC: 0.731404 cumulative IPC: 0.767377 (Simulation time: 0 hr 38 min 55 sec) 
Heartbeat CPU 0 instructions: 64000000 cycles: 43979796 heartbeat IPC: 0.734035 cumulative IPC: 0.764896 (Simulation time: 0 hr 39 min 35 sec) 
Heartbeat CPU 0 instructions: 65000003 cycles: 45474621 heartbeat IPC: 0.668977 cumulative IPC: 0.757653 (Simulation time: 0 hr 40 min 20 sec) 
Heartbeat CPU 0 instructions: 66000000 cycles: 46970086 heartbeat IPC: 0.668686 cumulative IPC: 0.751405 (Simulation time: 0 hr 41 min 1 sec) 
Heartbeat CPU 0 instructions: 67000000 cycles: 48464609 heartbeat IPC: 0.66911 cumulative IPC: 0.746008 (Simulation time: 0 hr 41 min 40 sec) 
Heartbeat CPU 0 instructions: 68000000 cycles: 49959189 heartbeat IPC: 0.669084 cumulative IPC: 0.741273 (Simulation time: 0 hr 42 min 22 sec) 
Heartbeat CPU 0 instructions: 69000000 cycles: 51466632 heartbeat IPC: 0.663375 cumulative IPC: 0.73672 (Simulation time: 0 hr 43 min 3 sec) 
Heartbeat CPU 0 instructions: 70000001 cycles: 52963187 heartbeat IPC: 0.668202 cumulative IPC: 0.732962 (Simulation time: 0 hr 43 min 43 sec) 
Heartbeat CPU 0 instructions: 71000001 cycles: 54457254 heartbeat IPC: 0.669314 cumulative IPC: 0.729658 (Simulation time: 0 hr 44 min 32 sec) 
Heartbeat CPU 0 instructions: 72000000 cycles: 55940348 heartbeat IPC: 0.674265 cumulative IPC: 0.726943 (Simulation time: 0 hr 45 min 14 sec) 
Heartbeat CPU 0 instructions: 73000003 cycles: 57428058 heartbeat IPC: 0.672176 cumulative IPC: 0.724377 (Simulation time: 0 hr 45 min 54 sec) 
Heartbeat CPU 0 instructions: 74000000 cycles: 58925582 heartbeat IPC: 0.667767 cumulative IPC: 0.721828 (Simulation time: 0 hr 46 min 31 sec) 
Heartbeat CPU 0 instructions: 75000001 cycles: 60419591 heartbeat IPC: 0.669341 cumulative IPC: 0.719571 (Simulation time: 0 hr 47 min 16 sec) 
Heartbeat CPU 0 instructions: 76000000 cycles: 61916025 heartbeat IPC: 0.668255 cumulative IPC: 0.717452 (Simulation time: 0 hr 47 min 56 sec) 
Heartbeat CPU 0 instructions: 77000003 cycles: 63409822 heartbeat IPC: 0.669437 cumulative IPC: 0.715551 (Simulation time: 0 hr 48 min 38 sec) 
Heartbeat CPU 0 instructions: 78000001 cycles: 64904547 heartbeat IPC: 0.669018 cumulative IPC: 0.713778 (Simulation time: 0 hr 49 min 19 sec) 
Heartbeat CPU 0 instructions: 79000000 cycles: 66400981 heartbeat IPC: 0.668255 cumulative IPC: 0.712105 (Simulation time: 0 hr 50 min 0 sec) 
Heartbeat CPU 0 instructions: 80000000 cycles: 67891366 heartbeat IPC: 0.670968 cumulative IPC: 0.710653 (Simulation time: 0 hr 50 min 38 sec) 
Heartbeat CPU 0 instructions: 81000001 cycles: 69375950 heartbeat IPC: 0.67359 cumulative IPC: 0.709393 (Simulation time: 0 hr 51 min 17 sec) 
Heartbeat CPU 0 instructions: 82000000 cycles: 70859215 heartbeat IPC: 0.674188 cumulative IPC: 0.708238 (Simulation time: 0 hr 51 min 59 sec) 
Heartbeat CPU 0 instructions: 83000000 cycles: 72342563 heartbeat IPC: 0.674151 cumulative IPC: 0.707154 (Simulation time: 0 hr 52 min 43 sec) 
Heartbeat CPU 0 instructions: 84000000 cycles: 73837464 heartbeat IPC: 0.668941 cumulative IPC: 0.705968 (Simulation time: 0 hr 53 min 22 sec) 
Heartbeat CPU 0 instructions: 85000000 cycles: 75332347 heartbeat IPC: 0.668949 cumulative IPC: 0.704854 (Simulation time: 0 hr 54 min 2 sec) 
Heartbeat CPU 0 instructions: 86000000 cycles: 76826110 heartbeat IPC: 0.66945 cumulative IPC: 0.70382 (Simulation time: 0 hr 54 min 46 sec) 
Heartbeat CPU 0 instructions: 87000000 cycles: 78320967 heartbeat IPC: 0.66896 cumulative IPC: 0.70283 (Simulation time: 0 hr 55 min 27 sec) 
Heartbeat CPU 0 instructions: 88000000 cycles: 79816182 heartbeat IPC: 0.6688 cumulative IPC: 0.70189 (Simulation time: 0 hr 56 min 9 sec) 
Heartbeat CPU 0 instructions: 89000002 cycles: 81311811 heartbeat IPC: 0.668616 cumulative IPC: 0.700996 (Simulation time: 0 hr 56 min 53 sec) 
Heartbeat CPU 0 instructions: 90000000 cycles: 82796144 heartbeat IPC: 0.673702 cumulative IPC: 0.700286 (Simulation time: 0 hr 57 min 38 sec) 
Heartbeat CPU 0 instructions: 91000000 cycles: 84280305 heartbeat IPC: 0.673781 cumulative IPC: 0.699615 (Simulation time: 0 hr 58 min 19 sec) 
Heartbeat CPU 0 instructions: 92000000 cycles: 85764149 heartbeat IPC: 0.673925 cumulative IPC: 0.698981 (Simulation time: 0 hr 59 min 1 sec) 
Heartbeat CPU 0 instructions: 93000000 cycles: 87253891 heartbeat IPC: 0.671257 cumulative IPC: 0.69831 (Simulation time: 0 hr 59 min 47 sec) 
Heartbeat CPU 0 instructions: 94000003 cycles: 88747746 heartbeat IPC: 0.669411 cumulative IPC: 0.697625 (Simulation time: 1 hr 0 min 27 sec) 
Heartbeat CPU 0 instructions: 95000000 cycles: 90243576 heartbeat IPC: 0.668523 cumulative IPC: 0.696951 (Simulation time: 1 hr 1 min 6 sec) 
Heartbeat CPU 0 instructions: 96000000 cycles: 91737524 heartbeat IPC: 0.669367 cumulative IPC: 0.696327 (Simulation time: 1 hr 1 min 45 sec) 
Heartbeat CPU 0 instructions: 97000001 cycles: 93233071 heartbeat IPC: 0.668652 cumulative IPC: 0.695715 (Simulation time: 1 hr 2 min 28 sec) 
Heartbeat CPU 0 instructions: 98000003 cycles: 94728427 heartbeat IPC: 0.668738 cumulative IPC: 0.695131 (Simulation time: 1 hr 3 min 13 sec) 
Heartbeat CPU 0 instructions: 99000000 cycles: 96217531 heartbeat IPC: 0.671543 cumulative IPC: 0.694633 (Simulation time: 1 hr 3 min 54 sec) 
Heartbeat CPU 0 instructions: 100000000 cycles: 97700922 heartbeat IPC: 0.674131 cumulative IPC: 0.69421 (Simulation time: 1 hr 4 min 37 sec) 
Heartbeat CPU 0 instructions: 101000000 cycles: 99184258 heartbeat IPC: 0.674156 cumulative IPC: 0.693806 (Simulation time: 1 hr 5 min 16 sec) 
Heartbeat CPU 0 instructions: 102000003 cycles: 100667841 heartbeat IPC: 0.674046 cumulative IPC: 0.693415 (Simulation time: 1 hr 5 min 56 sec) 
Heartbeat CPU 0 instructions: 103000003 cycles: 102164102 heartbeat IPC: 0.668333 cumulative IPC: 0.692924 (Simulation time: 1 hr 6 min 45 sec) 
Heartbeat CPU 0 instructions: 104000000 cycles: 103658751 heartbeat IPC: 0.669051 cumulative IPC: 0.692467 (Simulation time: 1 hr 7 min 33 sec) 
Heartbeat CPU 0 instructions: 105000000 cycles: 105153559 heartbeat IPC: 0.668982 cumulative IPC: 0.692025 (Simulation time: 1 hr 8 min 17 sec) 
Heartbeat CPU 0 instructions: 106000000 cycles: 106648620 heartbeat IPC: 0.668869 cumulative IPC: 0.691597 (Simulation time: 1 hr 8 min 59 sec) 
Heartbeat CPU 0 instructions: 107000000 cycles: 108144670 heartbeat IPC: 0.668427 cumulative IPC: 0.691177 (Simulation time: 1 hr 9 min 34 sec) 
Heartbeat CPU 0 instructions: 108000000 cycles: 109640248 heartbeat IPC: 0.668638 cumulative IPC: 0.690776 (Simulation time: 1 hr 10 min 10 sec) 
Heartbeat CPU 0 instructions: 109000003 cycles: 111123109 heartbeat IPC: 0.674374 cumulative IPC: 0.690491 (Simulation time: 1 hr 10 min 50 sec) 
Heartbeat CPU 0 instructions: 110000001 cycles: 112606305 heartbeat IPC: 0.674218 cumulative IPC: 0.690213 (Simulation time: 1 hr 11 min 24 sec) 
Heartbeat CPU 0 instructions: 111000000 cycles: 114089884 heartbeat IPC: 0.674045 cumulative IPC: 0.689942 (Simulation time: 1 hr 11 min 54 sec) 
Heartbeat CPU 0 instructions: 112000000 cycles: 115581255 heartbeat IPC: 0.670524 cumulative IPC: 0.68962 (Simulation time: 1 hr 12 min 24 sec) 
Heartbeat CPU 0 instructions: 113000000 cycles: 117075252 heartbeat IPC: 0.669345 cumulative IPC: 0.689288 (Simulation time: 1 hr 12 min 55 sec) 
Heartbeat CPU 0 instructions: 114000000 cycles: 118571021 heartbeat IPC: 0.668552 cumulative IPC: 0.688955 (Simulation time: 1 hr 13 min 25 sec) 
Heartbeat CPU 0 instructions: 115000003 cycles: 120065127 heartbeat IPC: 0.669299 cumulative IPC: 0.688643 (Simulation time: 1 hr 13 min 54 sec) 
Heartbeat CPU 0 instructions: 116000000 cycles: 121561214 heartbeat IPC: 0.668408 cumulative IPC: 0.688328 (Simulation time: 1 hr 14 min 23 sec) 
Heartbeat CPU 0 instructions: 117000000 cycles: 123056808 heartbeat IPC: 0.668631 cumulative IPC: 0.688025 (Simulation time: 1 hr 14 min 52 sec) 
Heartbeat CPU 0 instructions: 118000000 cycles: 124544729 heartbeat IPC: 0.672079 cumulative IPC: 0.687785 (Simulation time: 1 hr 15 min 22 sec) 
Heartbeat CPU 0 instructions: 119000001 cycles: 126028646 heartbeat IPC: 0.673893 cumulative IPC: 0.68758 (Simulation time: 1 hr 15 min 51 sec) 
Heartbeat CPU 0 instructions: 120000000 cycles: 127511910 heartbeat IPC: 0.674188 cumulative IPC: 0.687385 (Simulation time: 1 hr 16 min 20 sec) 
Heartbeat CPU 0 instructions: 121000000 cycles: 128996622 heartbeat IPC: 0.673531 cumulative IPC: 0.687186 (Simulation time: 1 hr 16 min 49 sec) 
Heartbeat CPU 0 instructions: 122000002 cycles: 130494903 heartbeat IPC: 0.667433 cumulative IPC: 0.686903 (Simulation time: 1 hr 17 min 15 sec) 
Heartbeat CPU 0 instructions: 123000002 cycles: 131996477 heartbeat IPC: 0.665968 cumulative IPC: 0.686608 (Simulation time: 1 hr 17 min 42 sec) 
Heartbeat CPU 0 instructions: 124000000 cycles: 133493881 heartbeat IPC: 0.667821 cumulative IPC: 0.686347 (Simulation time: 1 hr 18 min 7 sec) 
Heartbeat CPU 0 instructions: 125000000 cycles: 134989695 heartbeat IPC: 0.668532 cumulative IPC: 0.686103 (Simulation time: 1 hr 18 min 32 sec) 
Heartbeat CPU 0 instructions: 126000000 cycles: 136502801 heartbeat IPC: 0.660892 cumulative IPC: 0.685759 (Simulation time: 1 hr 18 min 57 sec) 
Heartbeat CPU 0 instructions: 127000000 cycles: 137999719 heartbeat IPC: 0.668039 cumulative IPC: 0.685523 (Simulation time: 1 hr 19 min 23 sec) 
Heartbeat CPU 0 instructions: 128000000 cycles: 139490683 heartbeat IPC: 0.670707 cumulative IPC: 0.685328 (Simulation time: 1 hr 19 min 47 sec) 
Heartbeat CPU 0 instructions: 129000000 cycles: 140974326 heartbeat IPC: 0.674017 cumulative IPC: 0.685183 (Simulation time: 1 hr 20 min 11 sec) 
Heartbeat CPU 0 instructions: 130000001 cycles: 142464745 heartbeat IPC: 0.670953 cumulative IPC: 0.685001 (Simulation time: 1 hr 20 min 35 sec) 
Heartbeat CPU 0 instructions: 131000001 cycles: 143959896 heartbeat IPC: 0.668829 cumulative IPC: 0.684797 (Simulation time: 1 hr 20 min 58 sec) 
Heartbeat CPU 0 instructions: 132000000 cycles: 145455390 heartbeat IPC: 0.668675 cumulative IPC: 0.684596 (Simulation time: 1 hr 21 min 21 sec) 
Heartbeat CPU 0 instructions: 133000000 cycles: 146953800 heartbeat IPC: 0.667374 cumulative IPC: 0.684383 (Simulation time: 1 hr 21 min 44 sec) 
Heartbeat CPU 0 instructions: 134000000 cycles: 148448369 heartbeat IPC: 0.669089 cumulative IPC: 0.684197 (Simulation time: 1 hr 22 min 6 sec) 
Heartbeat CPU 0 instructions: 135000001 cycles: 149943606 heartbeat IPC: 0.668791 cumulative IPC: 0.684011 (Simulation time: 1 hr 22 min 28 sec) 
Heartbeat CPU 0 instructions: 136000000 cycles: 151441278 heartbeat IPC: 0.667702 cumulative IPC: 0.683817 (Simulation time: 1 hr 22 min 50 sec) 
Heartbeat CPU 0 instructions: 137000002 cycles: 152927940 heartbeat IPC: 0.672649 cumulative IPC: 0.683687 (Simulation time: 1 hr 23 min 12 sec) 
Heartbeat CPU 0 instructions: 138000001 cycles: 154412738 heartbeat IPC: 0.673492 cumulative IPC: 0.683569 (Simulation time: 1 hr 23 min 32 sec) 
Heartbeat CPU 0 instructions: 139000001 cycles: 155896464 heartbeat IPC: 0.673979 cumulative IPC: 0.68346 (Simulation time: 1 hr 23 min 52 sec) 
Heartbeat CPU 0 instructions: 140000000 cycles: 157382457 heartbeat IPC: 0.67295 cumulative IPC: 0.683341 (Simulation time: 1 hr 24 min 10 sec) 
Heartbeat CPU 0 instructions: 141000002 cycles: 158878584 heartbeat IPC: 0.668394 cumulative IPC: 0.683173 (Simulation time: 1 hr 24 min 27 sec) 
Heartbeat CPU 0 instructions: 142000000 cycles: 160373667 heartbeat IPC: 0.668858 cumulative IPC: 0.683014 (Simulation time: 1 hr 24 min 44 sec) 
Heartbeat CPU 0 instructions: 143000000 cycles: 161868076 heartbeat IPC: 0.669161 cumulative IPC: 0.682862 (Simulation time: 1 hr 25 min 0 sec) 
Heartbeat CPU 0 instructions: 144000000 cycles: 163362860 heartbeat IPC: 0.668993 cumulative IPC: 0.682712 (Simulation time: 1 hr 25 min 17 sec) 
Heartbeat CPU 0 instructions: 145000000 cycles: 164859100 heartbeat IPC: 0.668342 cumulative IPC: 0.682557 (Simulation time: 1 hr 25 min 33 sec) 
Heartbeat CPU 0 instructions: 146000000 cycles: 166350830 heartbeat IPC: 0.670363 cumulative IPC: 0.682428 (Simulation time: 1 hr 25 min 49 sec) 
Heartbeat CPU 0 instructions: 147000003 cycles: 167833674 heartbeat IPC: 0.674382 cumulative IPC: 0.682344 (Simulation time: 1 hr 26 min 3 sec) 
Heartbeat CPU 0 instructions: 148000000 cycles: 169317806 heartbeat IPC: 0.673792 cumulative IPC: 0.682256 (Simulation time: 1 hr 26 min 17 sec) 
Heartbeat CPU 0 instructions: 149000002 cycles: 170801295 heartbeat IPC: 0.674088 cumulative IPC: 0.682172 (Simulation time: 1 hr 26 min 30 sec) 
Heartbeat CPU 0 instructions: 150000001 cycles: 172294825 heartbeat IPC: 0.669554 cumulative IPC: 0.682044 (Simulation time: 1 hr 26 min 44 sec) 
Finished CPU 0 instructions: 100000001 cycles: 146618179 cummulative IPC: 0.682044 (Simulation time: 1 hr 26 min 44 sec) 

ChampSim completed all CPUs

Region of Interest Statistics

CPU 0 cummulative IPC: 0.682044 instructions: 100000001 cycles: 146618179
LLC TOTAL     ACCESS:     644531  HIT:     117109  MISS:     527422
LLC LOAD      ACCESS:      34772  HIT:       3088  MISS:      31684
LLC RFO       ACCESS:     120254  HIT:      25586  MISS:      94668
LLC PREFETCH  ACCESS:     306881  HIT:      37520  MISS:     269361
LLC WRITEBACK ACCESS:     182624  HIT:      50915  MISS:     131709
OPTgen accesses: 22719
OPTgen hits: 1463
OPTgen hit rate: 6.43954


