
*** ChampSim Multicore Out-of-Order Simulator ***

Warmup Instructions: 50000000
Simulation Instructions: 100000000
Configuration: 2
Number of CPUs: 1
LLC sets: 2048
LLC ways: 16
Off-chip DRAM Channels: 1 Width: 64-bit Data Rate: 1600 MT/s

CPU 0 runs /datasets/cs240c-wi22-a00-public/data/Assignment2-gz/sphinx3_1339B.trace.gz
CPU 0 L1D next line prefetcher
CPU 0 L2C IP-based stride prefetcher
Initialize Hawkeye state
Heartbeat CPU 0 instructions: 1000000 cycles: 339022 heartbeat IPC: 2.94966 cumulative IPC: 2.94966 (Simulation time: 0 hr 0 min 37 sec) 
Heartbeat CPU 0 instructions: 2000001 cycles: 693417 heartbeat IPC: 2.82171 cumulative IPC: 2.88427 (Simulation time: 0 hr 1 min 8 sec) 
Heartbeat CPU 0 instructions: 3000000 cycles: 1084482 heartbeat IPC: 2.55712 cumulative IPC: 2.7663 (Simulation time: 0 hr 1 min 45 sec) 
Heartbeat CPU 0 instructions: 4000000 cycles: 1530019 heartbeat IPC: 2.24448 cumulative IPC: 2.61435 (Simulation time: 0 hr 2 min 14 sec) 
Heartbeat CPU 0 instructions: 5000003 cycles: 1869032 heartbeat IPC: 2.94975 cumulative IPC: 2.67518 (Simulation time: 0 hr 2 min 43 sec) 
Heartbeat CPU 0 instructions: 6000002 cycles: 2253114 heartbeat IPC: 2.60361 cumulative IPC: 2.66298 (Simulation time: 0 hr 3 min 20 sec) 
Heartbeat CPU 0 instructions: 7000001 cycles: 2716874 heartbeat IPC: 2.15629 cumulative IPC: 2.57649 (Simulation time: 0 hr 3 min 48 sec) 
Heartbeat CPU 0 instructions: 8000000 cycles: 3055745 heartbeat IPC: 2.95097 cumulative IPC: 2.61802 (Simulation time: 0 hr 4 min 19 sec) 
Heartbeat CPU 0 instructions: 9000003 cycles: 3412322 heartbeat IPC: 2.80445 cumulative IPC: 2.6375 (Simulation time: 0 hr 4 min 48 sec) 
Heartbeat CPU 0 instructions: 10000001 cycles: 3798942 heartbeat IPC: 2.58651 cumulative IPC: 2.63231 (Simulation time: 0 hr 5 min 23 sec) 
Heartbeat CPU 0 instructions: 11000002 cycles: 4242080 heartbeat IPC: 2.25664 cumulative IPC: 2.59307 (Simulation time: 0 hr 5 min 52 sec) 
Heartbeat CPU 0 instructions: 12000000 cycles: 4581043 heartbeat IPC: 2.95017 cumulative IPC: 2.61949 (Simulation time: 0 hr 6 min 20 sec) 
Heartbeat CPU 0 instructions: 13000000 cycles: 4972808 heartbeat IPC: 2.55255 cumulative IPC: 2.61422 (Simulation time: 0 hr 6 min 52 sec) 
Heartbeat CPU 0 instructions: 14000003 cycles: 5427644 heartbeat IPC: 2.1986 cumulative IPC: 2.57939 (Simulation time: 0 hr 7 min 20 sec) 
Heartbeat CPU 0 instructions: 15000003 cycles: 5766603 heartbeat IPC: 2.95021 cumulative IPC: 2.60119 (Simulation time: 0 hr 7 min 49 sec) 
Heartbeat CPU 0 instructions: 16000000 cycles: 6131477 heartbeat IPC: 2.74066 cumulative IPC: 2.60949 (Simulation time: 0 hr 8 min 17 sec) 
Heartbeat CPU 0 instructions: 17000000 cycles: 6578392 heartbeat IPC: 2.23756 cumulative IPC: 2.58422 (Simulation time: 0 hr 8 min 50 sec) 
Heartbeat CPU 0 instructions: 18000000 cycles: 7017672 heartbeat IPC: 2.27645 cumulative IPC: 2.56495 (Simulation time: 0 hr 9 min 24 sec) 
Heartbeat CPU 0 instructions: 19000001 cycles: 7462642 heartbeat IPC: 2.24734 cumulative IPC: 2.54602 (Simulation time: 0 hr 9 min 54 sec) 
Heartbeat CPU 0 instructions: 20000000 cycles: 7801703 heartbeat IPC: 2.94932 cumulative IPC: 2.56354 (Simulation time: 0 hr 10 min 25 sec) 
Heartbeat CPU 0 instructions: 21000000 cycles: 8183307 heartbeat IPC: 2.62052 cumulative IPC: 2.5662 (Simulation time: 0 hr 10 min 58 sec) 
Heartbeat CPU 0 instructions: 22000000 cycles: 8648969 heartbeat IPC: 2.14748 cumulative IPC: 2.54366 (Simulation time: 0 hr 11 min 26 sec) 
Heartbeat CPU 0 instructions: 23000001 cycles: 8988008 heartbeat IPC: 2.94952 cumulative IPC: 2.55897 (Simulation time: 0 hr 11 min 54 sec) 
Heartbeat CPU 0 instructions: 24000000 cycles: 9338283 heartbeat IPC: 2.8549 cumulative IPC: 2.57007 (Simulation time: 0 hr 12 min 24 sec) 
Heartbeat CPU 0 instructions: 25000000 cycles: 9746431 heartbeat IPC: 2.45009 cumulative IPC: 2.56504 (Simulation time: 0 hr 12 min 52 sec) 
Heartbeat CPU 0 instructions: 26000003 cycles: 10149346 heartbeat IPC: 2.48192 cumulative IPC: 2.56174 (Simulation time: 0 hr 13 min 20 sec) 
Heartbeat CPU 0 instructions: 27000002 cycles: 10488289 heartbeat IPC: 2.95035 cumulative IPC: 2.5743 (Simulation time: 0 hr 13 min 47 sec) 
Heartbeat CPU 0 instructions: 28000000 cycles: 10865251 heartbeat IPC: 2.65278 cumulative IPC: 2.57702 (Simulation time: 0 hr 14 min 20 sec) 
Heartbeat CPU 0 instructions: 29000001 cycles: 11305903 heartbeat IPC: 2.26937 cumulative IPC: 2.56503 (Simulation time: 0 hr 14 min 48 sec) 
Heartbeat CPU 0 instructions: 30000002 cycles: 11644922 heartbeat IPC: 2.94969 cumulative IPC: 2.57623 (Simulation time: 0 hr 15 min 18 sec) 
Heartbeat CPU 0 instructions: 31000003 cycles: 12015455 heartbeat IPC: 2.69882 cumulative IPC: 2.58001 (Simulation time: 0 hr 15 min 49 sec) 
Heartbeat CPU 0 instructions: 32000000 cycles: 12458189 heartbeat IPC: 2.25869 cumulative IPC: 2.56859 (Simulation time: 0 hr 16 min 19 sec) 
Heartbeat CPU 0 instructions: 33000000 cycles: 12797259 heartbeat IPC: 2.94924 cumulative IPC: 2.57868 (Simulation time: 0 hr 16 min 47 sec) 
Heartbeat CPU 0 instructions: 34000001 cycles: 13184864 heartbeat IPC: 2.57995 cumulative IPC: 2.57871 (Simulation time: 0 hr 17 min 24 sec) 
Heartbeat CPU 0 instructions: 35000003 cycles: 13645987 heartbeat IPC: 2.16862 cumulative IPC: 2.56486 (Simulation time: 0 hr 17 min 59 sec) 
Heartbeat CPU 0 instructions: 36000000 cycles: 13984869 heartbeat IPC: 2.95087 cumulative IPC: 2.57421 (Simulation time: 0 hr 18 min 28 sec) 
Heartbeat CPU 0 instructions: 37000003 cycles: 14341452 heartbeat IPC: 2.8044 cumulative IPC: 2.57993 (Simulation time: 0 hr 19 min 0 sec) 
Heartbeat CPU 0 instructions: 38000000 cycles: 14729335 heartbeat IPC: 2.57809 cumulative IPC: 2.57989 (Simulation time: 0 hr 19 min 34 sec) 
Heartbeat CPU 0 instructions: 39000002 cycles: 15172608 heartbeat IPC: 2.25595 cumulative IPC: 2.57042 (Simulation time: 0 hr 20 min 2 sec) 
Heartbeat CPU 0 instructions: 40000000 cycles: 15511633 heartbeat IPC: 2.94963 cumulative IPC: 2.57871 (Simulation time: 0 hr 20 min 31 sec) 
Heartbeat CPU 0 instructions: 41000003 cycles: 15896244 heartbeat IPC: 2.60004 cumulative IPC: 2.57923 (Simulation time: 0 hr 21 min 4 sec) 
Heartbeat CPU 0 instructions: 42000002 cycles: 16350870 heartbeat IPC: 2.19961 cumulative IPC: 2.56867 (Simulation time: 0 hr 21 min 31 sec) 
Heartbeat CPU 0 instructions: 43000001 cycles: 16689845 heartbeat IPC: 2.95007 cumulative IPC: 2.57642 (Simulation time: 0 hr 22 min 0 sec) 
Heartbeat CPU 0 instructions: 44000000 cycles: 17053980 heartbeat IPC: 2.74623 cumulative IPC: 2.58004 (Simulation time: 0 hr 22 min 34 sec) 
Heartbeat CPU 0 instructions: 45000000 cycles: 17467038 heartbeat IPC: 2.42097 cumulative IPC: 2.57628 (Simulation time: 0 hr 23 min 6 sec) 
Heartbeat CPU 0 instructions: 46000002 cycles: 17866589 heartbeat IPC: 2.50281 cumulative IPC: 2.57464 (Simulation time: 0 hr 23 min 34 sec) 
Heartbeat CPU 0 instructions: 47000003 cycles: 18205563 heartbeat IPC: 2.95008 cumulative IPC: 2.58163 (Simulation time: 0 hr 24 min 6 sec) 
Heartbeat CPU 0 instructions: 48000000 cycles: 18582445 heartbeat IPC: 2.65334 cumulative IPC: 2.58308 (Simulation time: 0 hr 24 min 39 sec) 
Heartbeat CPU 0 instructions: 49000002 cycles: 19023531 heartbeat IPC: 2.26714 cumulative IPC: 2.57576 (Simulation time: 0 hr 25 min 10 sec) 
Heartbeat CPU 0 instructions: 50000002 cycles: 19362477 heartbeat IPC: 2.95032 cumulative IPC: 2.58231 (Simulation time: 0 hr 25 min 41 sec) 

Warmup complete CPU 0 instructions: 50000002 cycles: 19362477 (Simulation time: 0 hr 25 min 41 sec) 

Heartbeat CPU 0 instructions: 51000001 cycles: 20732135 heartbeat IPC: 0.730109 cumulative IPC: 0.730109 (Simulation time: 0 hr 26 min 25 sec) 
Heartbeat CPU 0 instructions: 52000000 cycles: 21587001 heartbeat IPC: 1.16977 cumulative IPC: 0.899068 (Simulation time: 0 hr 27 min 4 sec) 
Heartbeat CPU 0 instructions: 53000002 cycles: 22404417 heartbeat IPC: 1.22337 cumulative IPC: 0.986213 (Simulation time: 0 hr 27 min 45 sec) 
Heartbeat CPU 0 instructions: 54000003 cycles: 23696321 heartbeat IPC: 0.774052 cumulative IPC: 0.922968 (Simulation time: 0 hr 28 min 23 sec) 
Heartbeat CPU 0 instructions: 55000001 cycles: 24618115 heartbeat IPC: 1.08484 cumulative IPC: 0.951359 (Simulation time: 0 hr 28 min 55 sec) 
Heartbeat CPU 0 instructions: 56000000 cycles: 25470460 heartbeat IPC: 1.17323 cumulative IPC: 0.982321 (Simulation time: 0 hr 29 min 29 sec) 
Heartbeat CPU 0 instructions: 57000000 cycles: 26470067 heartbeat IPC: 1.00039 cumulative IPC: 0.984862 (Simulation time: 0 hr 30 min 1 sec) 
Heartbeat CPU 0 instructions: 58000000 cycles: 27671915 heartbeat IPC: 0.832052 cumulative IPC: 0.96276 (Simulation time: 0 hr 30 min 33 sec) 
Heartbeat CPU 0 instructions: 59000002 cycles: 28530842 heartbeat IPC: 1.16425 cumulative IPC: 0.981636 (Simulation time: 0 hr 31 min 14 sec) 
Heartbeat CPU 0 instructions: 60000000 cycles: 29324330 heartbeat IPC: 1.26026 cumulative IPC: 1.00383 (Simulation time: 0 hr 31 min 45 sec) 
Heartbeat CPU 0 instructions: 61000000 cycles: 30811693 heartbeat IPC: 0.672331 cumulative IPC: 0.960764 (Simulation time: 0 hr 32 min 18 sec) 
Heartbeat CPU 0 instructions: 62000002 cycles: 31950513 heartbeat IPC: 0.878104 cumulative IPC: 0.953286 (Simulation time: 0 hr 32 min 55 sec) 
Heartbeat CPU 0 instructions: 63000003 cycles: 32796162 heartbeat IPC: 1.18252 cumulative IPC: 0.967717 (Simulation time: 0 hr 33 min 31 sec) 
Heartbeat CPU 0 instructions: 64000000 cycles: 33633037 heartbeat IPC: 1.19492 cumulative IPC: 0.981041 (Simulation time: 0 hr 34 min 2 sec) 
Heartbeat CPU 0 instructions: 65000000 cycles: 34812679 heartbeat IPC: 0.847715 cumulative IPC: 0.970861 (Simulation time: 0 hr 34 min 32 sec) 
Heartbeat CPU 0 instructions: 66000001 cycles: 35834139 heartbeat IPC: 0.978992 cumulative IPC: 0.971365 (Simulation time: 0 hr 35 min 3 sec) 
Heartbeat CPU 0 instructions: 67000000 cycles: 36684712 heartbeat IPC: 1.17568 cumulative IPC: 0.981398 (Simulation time: 0 hr 35 min 34 sec) 
Heartbeat CPU 0 instructions: 68000000 cycles: 37563920 heartbeat IPC: 1.13739 cumulative IPC: 0.988932 (Simulation time: 0 hr 36 min 7 sec) 
Heartbeat CPU 0 instructions: 69000003 cycles: 38853144 heartbeat IPC: 0.775663 cumulative IPC: 0.974826 (Simulation time: 0 hr 36 min 39 sec) 
Heartbeat CPU 0 instructions: 70000003 cycles: 39735910 heartbeat IPC: 1.1328 cumulative IPC: 0.981671 (Simulation time: 0 hr 37 min 11 sec) 
Heartbeat CPU 0 instructions: 71000001 cycles: 40530511 heartbeat IPC: 1.25849 cumulative IPC: 0.992062 (Simulation time: 0 hr 37 min 42 sec) 
Heartbeat CPU 0 instructions: 72000000 cycles: 41924066 heartbeat IPC: 0.717588 cumulative IPC: 0.975109 (Simulation time: 0 hr 38 min 17 sec) 
Heartbeat CPU 0 instructions: 73000001 cycles: 42783000 heartbeat IPC: 1.16423 cumulative IPC: 0.982045 (Simulation time: 0 hr 38 min 49 sec) 
Heartbeat CPU 0 instructions: 74000001 cycles: 43610195 heartbeat IPC: 1.2089 cumulative IPC: 0.989784 (Simulation time: 0 hr 39 min 24 sec) 
Heartbeat CPU 0 instructions: 75000003 cycles: 44839664 heartbeat IPC: 0.813361 cumulative IPC: 0.98127 (Simulation time: 0 hr 39 min 57 sec) 
Heartbeat CPU 0 instructions: 76000000 cycles: 45811631 heartbeat IPC: 1.02884 cumulative IPC: 0.983018 (Simulation time: 0 hr 40 min 29 sec) 
Heartbeat CPU 0 instructions: 77000002 cycles: 46667140 heartbeat IPC: 1.1689 cumulative IPC: 0.988842 (Simulation time: 0 hr 41 min 3 sec) 
Heartbeat CPU 0 instructions: 78000002 cycles: 47606453 heartbeat IPC: 1.06461 cumulative IPC: 0.991362 (Simulation time: 0 hr 41 min 38 sec) 
Heartbeat CPU 0 instructions: 79000001 cycles: 48839642 heartbeat IPC: 0.810905 cumulative IPC: 0.983812 (Simulation time: 0 hr 42 min 9 sec) 
Heartbeat CPU 0 instructions: 80000000 cycles: 49717230 heartbeat IPC: 1.13949 cumulative IPC: 0.988313 (Simulation time: 0 hr 42 min 39 sec) 
Heartbeat CPU 0 instructions: 81000001 cycles: 50511651 heartbeat IPC: 1.25878 cumulative IPC: 0.995211 (Simulation time: 0 hr 43 min 9 sec) 
Heartbeat CPU 0 instructions: 82000000 cycles: 51888347 heartbeat IPC: 0.726376 cumulative IPC: 0.983832 (Simulation time: 0 hr 43 min 41 sec) 
Heartbeat CPU 0 instructions: 83000001 cycles: 52755671 heartbeat IPC: 1.15297 cumulative IPC: 0.988225 (Simulation time: 0 hr 44 min 15 sec) 
Heartbeat CPU 0 instructions: 84000000 cycles: 53570655 heartbeat IPC: 1.22702 cumulative IPC: 0.993914 (Simulation time: 0 hr 44 min 46 sec) 
Heartbeat CPU 0 instructions: 85000002 cycles: 54884877 heartbeat IPC: 0.760908 cumulative IPC: 0.985294 (Simulation time: 0 hr 45 min 23 sec) 
Heartbeat CPU 0 instructions: 86000003 cycles: 55802062 heartbeat IPC: 1.09029 cumulative IPC: 0.987937 (Simulation time: 0 hr 45 min 54 sec) 
Heartbeat CPU 0 instructions: 87000001 cycles: 56650358 heartbeat IPC: 1.17883 cumulative IPC: 0.992279 (Simulation time: 0 hr 46 min 23 sec) 
Heartbeat CPU 0 instructions: 88000000 cycles: 57750915 heartbeat IPC: 0.90863 cumulative IPC: 0.989881 (Simulation time: 0 hr 46 min 54 sec) 
Heartbeat CPU 0 instructions: 89000000 cycles: 58860186 heartbeat IPC: 0.901493 cumulative IPC: 0.987399 (Simulation time: 0 hr 47 min 26 sec) 
Heartbeat CPU 0 instructions: 90000000 cycles: 59719090 heartbeat IPC: 1.16427 cumulative IPC: 0.991163 (Simulation time: 0 hr 47 min 56 sec) 
Heartbeat CPU 0 instructions: 91000000 cycles: 60527737 heartbeat IPC: 1.23663 cumulative IPC: 0.995985 (Simulation time: 0 hr 48 min 25 sec) 
Heartbeat CPU 0 instructions: 92000000 cycles: 61912208 heartbeat IPC: 0.722298 cumulative IPC: 0.98708 (Simulation time: 0 hr 49 min 0 sec) 
Heartbeat CPU 0 instructions: 93000001 cycles: 62788375 heartbeat IPC: 1.14134 cumulative IPC: 0.990193 (Simulation time: 0 hr 49 min 32 sec) 
Heartbeat CPU 0 instructions: 94000000 cycles: 63584553 heartbeat IPC: 1.256 cumulative IPC: 0.994978 (Simulation time: 0 hr 50 min 2 sec) 
Heartbeat CPU 0 instructions: 95000003 cycles: 65004114 heartbeat IPC: 0.704445 cumulative IPC: 0.985942 (Simulation time: 0 hr 50 min 35 sec) 
Heartbeat CPU 0 instructions: 96000000 cycles: 65874220 heartbeat IPC: 1.14928 cumulative IPC: 0.988998 (Simulation time: 0 hr 51 min 4 sec) 
Heartbeat CPU 0 instructions: 97000002 cycles: 66713933 heartbeat IPC: 1.19089 cumulative IPC: 0.992578 (Simulation time: 0 hr 51 min 38 sec) 
Heartbeat CPU 0 instructions: 98000000 cycles: 67902191 heartbeat IPC: 0.841566 cumulative IPC: 0.988881 (Simulation time: 0 hr 52 min 17 sec) 
Heartbeat CPU 0 instructions: 99000003 cycles: 69081841 heartbeat IPC: 0.847712 cumulative IPC: 0.985532 (Simulation time: 0 hr 52 min 48 sec) 
Heartbeat CPU 0 instructions: 100000000 cycles: 69955354 heartbeat IPC: 1.1448 cumulative IPC: 0.988281 (Simulation time: 0 hr 53 min 18 sec) 
Heartbeat CPU 0 instructions: 101000000 cycles: 70766360 heartbeat IPC: 1.23304 cumulative IPC: 0.992143 (Simulation time: 0 hr 53 min 49 sec) 
Heartbeat CPU 0 instructions: 102000001 cycles: 72416385 heartbeat IPC: 0.606052 cumulative IPC: 0.980135 (Simulation time: 0 hr 54 min 27 sec) 
Heartbeat CPU 0 instructions: 103000000 cycles: 73686167 heartbeat IPC: 0.787536 cumulative IPC: 0.975633 (Simulation time: 0 hr 55 min 5 sec) 
Heartbeat CPU 0 instructions: 104000000 cycles: 74629245 heartbeat IPC: 1.06036 cumulative IPC: 0.977079 (Simulation time: 0 hr 55 min 39 sec) 
Heartbeat CPU 0 instructions: 105000003 cycles: 75501698 heartbeat IPC: 1.1462 cumulative IPC: 0.979707 (Simulation time: 0 hr 56 min 13 sec) 
Heartbeat CPU 0 instructions: 106000000 cycles: 76347004 heartbeat IPC: 1.183 cumulative IPC: 0.982723 (Simulation time: 0 hr 56 min 49 sec) 
Heartbeat CPU 0 instructions: 107000001 cycles: 78061141 heartbeat IPC: 0.583385 cumulative IPC: 0.971061 (Simulation time: 0 hr 57 min 32 sec) 
Heartbeat CPU 0 instructions: 108000000 cycles: 78985344 heartbeat IPC: 1.08201 cumulative IPC: 0.972781 (Simulation time: 0 hr 58 min 6 sec) 
Heartbeat CPU 0 instructions: 109000000 cycles: 79842251 heartbeat IPC: 1.16699 cumulative IPC: 0.975533 (Simulation time: 0 hr 58 min 37 sec) 
Heartbeat CPU 0 instructions: 110000003 cycles: 81032383 heartbeat IPC: 0.840245 cumulative IPC: 0.972922 (Simulation time: 0 hr 59 min 11 sec) 
Heartbeat CPU 0 instructions: 111000000 cycles: 82617148 heartbeat IPC: 0.631006 cumulative IPC: 0.964356 (Simulation time: 0 hr 59 min 45 sec) 
Heartbeat CPU 0 instructions: 112000000 cycles: 83581378 heartbeat IPC: 1.0371 cumulative IPC: 0.965448 (Simulation time: 1 hr 0 min 17 sec) 
Heartbeat CPU 0 instructions: 113000002 cycles: 84420337 heartbeat IPC: 1.19196 cumulative IPC: 0.968369 (Simulation time: 1 hr 0 min 53 sec) 
Heartbeat CPU 0 instructions: 114000000 cycles: 85777039 heartbeat IPC: 0.73708 cumulative IPC: 0.963644 (Simulation time: 1 hr 1 min 30 sec) 
Heartbeat CPU 0 instructions: 115000001 cycles: 87342195 heartbeat IPC: 0.638915 cumulative IPC: 0.956168 (Simulation time: 1 hr 2 min 8 sec) 
Heartbeat CPU 0 instructions: 116000000 cycles: 88271180 heartbeat IPC: 1.07644 cumulative IPC: 0.957789 (Simulation time: 1 hr 2 min 38 sec) 
Heartbeat CPU 0 instructions: 117000000 cycles: 89105748 heartbeat IPC: 1.19822 cumulative IPC: 0.960666 (Simulation time: 1 hr 3 min 7 sec) 
Heartbeat CPU 0 instructions: 118000003 cycles: 90556535 heartbeat IPC: 0.689283 cumulative IPC: 0.955136 (Simulation time: 1 hr 3 min 45 sec) 
Heartbeat CPU 0 instructions: 119000003 cycles: 91696446 heartbeat IPC: 0.877261 cumulative IPC: 0.953909 (Simulation time: 1 hr 4 min 15 sec) 
Heartbeat CPU 0 instructions: 120000000 cycles: 92565409 heartbeat IPC: 1.15079 cumulative IPC: 0.956246 (Simulation time: 1 hr 4 min 50 sec) 
Heartbeat CPU 0 instructions: 121000001 cycles: 93439657 heartbeat IPC: 1.14384 cumulative IPC: 0.95846 (Simulation time: 1 hr 5 min 22 sec) 
Heartbeat CPU 0 instructions: 122000002 cycles: 94919123 heartbeat IPC: 0.67592 cumulative IPC: 0.952927 (Simulation time: 1 hr 5 min 54 sec) 
Heartbeat CPU 0 instructions: 123000000 cycles: 95778823 heartbeat IPC: 1.16319 cumulative IPC: 0.955293 (Simulation time: 1 hr 6 min 28 sec) 
Heartbeat CPU 0 instructions: 124000000 cycles: 96609421 heartbeat IPC: 1.20395 cumulative IPC: 0.957967 (Simulation time: 1 hr 7 min 1 sec) 
Heartbeat CPU 0 instructions: 125000002 cycles: 97992917 heartbeat IPC: 0.722808 cumulative IPC: 0.953829 (Simulation time: 1 hr 7 min 36 sec) 
Heartbeat CPU 0 instructions: 126000000 cycles: 98895884 heartbeat IPC: 1.10746 cumulative IPC: 0.955573 (Simulation time: 1 hr 8 min 3 sec) 
Heartbeat CPU 0 instructions: 127000000 cycles: 99752107 heartbeat IPC: 1.16792 cumulative IPC: 0.957835 (Simulation time: 1 hr 8 min 34 sec) 
Heartbeat CPU 0 instructions: 128000000 cycles: 100706067 heartbeat IPC: 1.04826 cumulative IPC: 0.958895 (Simulation time: 1 hr 9 min 8 sec) 
Heartbeat CPU 0 instructions: 129000002 cycles: 101611090 heartbeat IPC: 1.10495 cumulative IPC: 0.960503 (Simulation time: 1 hr 9 min 34 sec) 
Heartbeat CPU 0 instructions: 130000000 cycles: 102453903 heartbeat IPC: 1.1865 cumulative IPC: 0.962795 (Simulation time: 1 hr 10 min 3 sec) 
Heartbeat CPU 0 instructions: 131000000 cycles: 103333705 heartbeat IPC: 1.13662 cumulative IPC: 0.964616 (Simulation time: 1 hr 10 min 32 sec) 
Heartbeat CPU 0 instructions: 132000000 cycles: 104272845 heartbeat IPC: 1.0648 cumulative IPC: 0.965724 (Simulation time: 1 hr 10 min 58 sec) 
Heartbeat CPU 0 instructions: 133000002 cycles: 105123043 heartbeat IPC: 1.1762 cumulative IPC: 0.967811 (Simulation time: 1 hr 11 min 23 sec) 
Heartbeat CPU 0 instructions: 134000000 cycles: 106063432 heartbeat IPC: 1.06339 cumulative IPC: 0.968847 (Simulation time: 1 hr 11 min 48 sec) 
Heartbeat CPU 0 instructions: 135000001 cycles: 107360860 heartbeat IPC: 0.770756 cumulative IPC: 0.965927 (Simulation time: 1 hr 12 min 11 sec) 
Heartbeat CPU 0 instructions: 136000000 cycles: 108250880 heartbeat IPC: 1.12357 cumulative IPC: 0.967505 (Simulation time: 1 hr 12 min 35 sec) 
Heartbeat CPU 0 instructions: 137000001 cycles: 109066044 heartbeat IPC: 1.22675 cumulative IPC: 0.969861 (Simulation time: 1 hr 12 min 57 sec) 
Heartbeat CPU 0 instructions: 138000001 cycles: 110503981 heartbeat IPC: 0.695441 cumulative IPC: 0.965532 (Simulation time: 1 hr 13 min 22 sec) 
Heartbeat CPU 0 instructions: 139000000 cycles: 111375806 heartbeat IPC: 1.14702 cumulative IPC: 0.967251 (Simulation time: 1 hr 13 min 45 sec) 
Heartbeat CPU 0 instructions: 140000000 cycles: 112223931 heartbeat IPC: 1.17907 cumulative IPC: 0.969186 (Simulation time: 1 hr 14 min 7 sec) 
Heartbeat CPU 0 instructions: 141000001 cycles: 113417179 heartbeat IPC: 0.83805 cumulative IPC: 0.967522 (Simulation time: 1 hr 14 min 30 sec) 
Heartbeat CPU 0 instructions: 142000000 cycles: 114458726 heartbeat IPC: 0.960109 cumulative IPC: 0.967441 (Simulation time: 1 hr 14 min 52 sec) 
Heartbeat CPU 0 instructions: 143000000 cycles: 115317083 heartbeat IPC: 1.16502 cumulative IPC: 0.969208 (Simulation time: 1 hr 15 min 14 sec) 
Heartbeat CPU 0 instructions: 144000000 cycles: 116220071 heartbeat IPC: 1.10743 cumulative IPC: 0.970497 (Simulation time: 1 hr 15 min 36 sec) 
Heartbeat CPU 0 instructions: 145000002 cycles: 117508267 heartbeat IPC: 0.776281 cumulative IPC: 0.967948 (Simulation time: 1 hr 15 min 59 sec) 
Heartbeat CPU 0 instructions: 146000000 cycles: 118395037 heartbeat IPC: 1.12769 cumulative IPC: 0.969378 (Simulation time: 1 hr 16 min 21 sec) 
Heartbeat CPU 0 instructions: 147000002 cycles: 119210767 heartbeat IPC: 1.2259 cumulative IPC: 0.971474 (Simulation time: 1 hr 16 min 42 sec) 
Heartbeat CPU 0 instructions: 148000000 cycles: 120652341 heartbeat IPC: 0.693685 cumulative IPC: 0.96752 (Simulation time: 1 hr 17 min 5 sec) 
Heartbeat CPU 0 instructions: 149000000 cycles: 121806974 heartbeat IPC: 0.866076 cumulative IPC: 0.966377 (Simulation time: 1 hr 17 min 27 sec) 
Heartbeat CPU 0 instructions: 150000001 cycles: 122671945 heartbeat IPC: 1.15611 cumulative IPC: 0.967965 (Simulation time: 1 hr 17 min 46 sec) 
Finished CPU 0 instructions: 100000003 cycles: 103309469 cummulative IPC: 0.967965 (Simulation time: 1 hr 17 min 46 sec) 

ChampSim completed all CPUs

Region of Interest Statistics

CPU 0 cummulative IPC: 0.967965 instructions: 100000003 cycles: 103309469
LLC TOTAL     ACCESS:    1600400  HIT:     775678  MISS:     824722
LLC LOAD      ACCESS:     216336  HIT:     102339  MISS:     113997
LLC RFO       ACCESS:     111505  HIT:     106016  MISS:       5489
LLC PREFETCH  ACCESS:    1135583  HIT:     431699  MISS:     703884
LLC WRITEBACK ACCESS:     136976  HIT:     135624  MISS:       1352
OPTgen accesses: 28804
OPTgen hits: 5577
OPTgen hit rate: 19.3619


