
*** ChampSim Multicore Out-of-Order Simulator ***

Warmup Instructions: 50000000
Simulation Instructions: 100000000
Configuration: 2
Number of CPUs: 1
LLC sets: 2048
LLC ways: 16
Off-chip DRAM Channels: 1 Width: 64-bit Data Rate: 1600 MT/s

CPU 0 runs /datasets/cs240c-wi22-a00-public/data/Assignment2-gz/gcc_56B.trace.gz
CPU 0 L1D next line prefetcher
CPU 0 L2C IP-based stride prefetcher
Initialize Hawkeye state
Heartbeat CPU 0 instructions: 1000003 cycles: 954151 heartbeat IPC: 1.04806 cumulative IPC: 1.04806 (Simulation time: 0 hr 0 min 44 sec) 
Heartbeat CPU 0 instructions: 2000001 cycles: 1898349 heartbeat IPC: 1.0591 cumulative IPC: 1.05355 (Simulation time: 0 hr 1 min 25 sec) 
Heartbeat CPU 0 instructions: 3000001 cycles: 2885593 heartbeat IPC: 1.01292 cumulative IPC: 1.03965 (Simulation time: 0 hr 2 min 7 sec) 
Heartbeat CPU 0 instructions: 4000000 cycles: 3848224 heartbeat IPC: 1.03882 cumulative IPC: 1.03944 (Simulation time: 0 hr 2 min 47 sec) 
Heartbeat CPU 0 instructions: 5000002 cycles: 4737704 heartbeat IPC: 1.12425 cumulative IPC: 1.05536 (Simulation time: 0 hr 3 min 31 sec) 
Heartbeat CPU 0 instructions: 6000000 cycles: 5685659 heartbeat IPC: 1.0549 cumulative IPC: 1.05529 (Simulation time: 0 hr 4 min 9 sec) 
Heartbeat CPU 0 instructions: 7000000 cycles: 6649894 heartbeat IPC: 1.03709 cumulative IPC: 1.05265 (Simulation time: 0 hr 4 min 47 sec) 
Heartbeat CPU 0 instructions: 8000000 cycles: 7611119 heartbeat IPC: 1.04034 cumulative IPC: 1.05109 (Simulation time: 0 hr 5 min 24 sec) 
Heartbeat CPU 0 instructions: 9000000 cycles: 8622592 heartbeat IPC: 0.988657 cumulative IPC: 1.04377 (Simulation time: 0 hr 6 min 5 sec) 
Heartbeat CPU 0 instructions: 10000002 cycles: 9583104 heartbeat IPC: 1.04111 cumulative IPC: 1.0435 (Simulation time: 0 hr 6 min 42 sec) 
Heartbeat CPU 0 instructions: 11000002 cycles: 10472403 heartbeat IPC: 1.12448 cumulative IPC: 1.05038 (Simulation time: 0 hr 7 min 20 sec) 
Heartbeat CPU 0 instructions: 12000000 cycles: 11357939 heartbeat IPC: 1.12926 cumulative IPC: 1.05653 (Simulation time: 0 hr 8 min 4 sec) 
Heartbeat CPU 0 instructions: 13000001 cycles: 12297187 heartbeat IPC: 1.06468 cumulative IPC: 1.05715 (Simulation time: 0 hr 8 min 44 sec) 
Heartbeat CPU 0 instructions: 14000000 cycles: 13290663 heartbeat IPC: 1.00657 cumulative IPC: 1.05337 (Simulation time: 0 hr 9 min 22 sec) 
Heartbeat CPU 0 instructions: 15000003 cycles: 14246152 heartbeat IPC: 1.04659 cumulative IPC: 1.05292 (Simulation time: 0 hr 10 min 0 sec) 
Heartbeat CPU 0 instructions: 16000000 cycles: 15246196 heartbeat IPC: 0.999953 cumulative IPC: 1.04944 (Simulation time: 0 hr 10 min 43 sec) 
Heartbeat CPU 0 instructions: 17000001 cycles: 16221184 heartbeat IPC: 1.02565 cumulative IPC: 1.04801 (Simulation time: 0 hr 11 min 22 sec) 
Heartbeat CPU 0 instructions: 18000000 cycles: 17122016 heartbeat IPC: 1.11008 cumulative IPC: 1.05128 (Simulation time: 0 hr 12 min 0 sec) 
Heartbeat CPU 0 instructions: 19000000 cycles: 18045908 heartbeat IPC: 1.08238 cumulative IPC: 1.05287 (Simulation time: 0 hr 12 min 37 sec) 
Heartbeat CPU 0 instructions: 20000000 cycles: 18990419 heartbeat IPC: 1.05875 cumulative IPC: 1.05316 (Simulation time: 0 hr 13 min 15 sec) 
Heartbeat CPU 0 instructions: 21000000 cycles: 19947052 heartbeat IPC: 1.04533 cumulative IPC: 1.05279 (Simulation time: 0 hr 13 min 55 sec) 
Heartbeat CPU 0 instructions: 22000000 cycles: 20939437 heartbeat IPC: 1.00767 cumulative IPC: 1.05065 (Simulation time: 0 hr 14 min 36 sec) 
Heartbeat CPU 0 instructions: 23000000 cycles: 21860090 heartbeat IPC: 1.08619 cumulative IPC: 1.05215 (Simulation time: 0 hr 15 min 14 sec) 
Heartbeat CPU 0 instructions: 24000000 cycles: 22777502 heartbeat IPC: 1.09002 cumulative IPC: 1.05367 (Simulation time: 0 hr 15 min 53 sec) 
Heartbeat CPU 0 instructions: 25000000 cycles: 23713236 heartbeat IPC: 1.06868 cumulative IPC: 1.05426 (Simulation time: 0 hr 16 min 31 sec) 
Heartbeat CPU 0 instructions: 26000002 cycles: 24633730 heartbeat IPC: 1.08638 cumulative IPC: 1.05546 (Simulation time: 0 hr 17 min 13 sec) 
Heartbeat CPU 0 instructions: 27000000 cycles: 25586043 heartbeat IPC: 1.05007 cumulative IPC: 1.05526 (Simulation time: 0 hr 17 min 51 sec) 
Heartbeat CPU 0 instructions: 28000000 cycles: 26583817 heartbeat IPC: 1.00223 cumulative IPC: 1.05327 (Simulation time: 0 hr 18 min 31 sec) 
Heartbeat CPU 0 instructions: 29000000 cycles: 27583228 heartbeat IPC: 1.00059 cumulative IPC: 1.05136 (Simulation time: 0 hr 19 min 17 sec) 
Heartbeat CPU 0 instructions: 30000000 cycles: 28562114 heartbeat IPC: 1.02157 cumulative IPC: 1.05034 (Simulation time: 0 hr 19 min 58 sec) 
Heartbeat CPU 0 instructions: 31000000 cycles: 29476511 heartbeat IPC: 1.09362 cumulative IPC: 1.05168 (Simulation time: 0 hr 20 min 40 sec) 
Heartbeat CPU 0 instructions: 32000000 cycles: 30387218 heartbeat IPC: 1.09805 cumulative IPC: 1.05307 (Simulation time: 0 hr 21 min 16 sec) 
Heartbeat CPU 0 instructions: 33000002 cycles: 31312935 heartbeat IPC: 1.08025 cumulative IPC: 1.05388 (Simulation time: 0 hr 21 min 54 sec) 
Heartbeat CPU 0 instructions: 34000002 cycles: 32279451 heartbeat IPC: 1.03464 cumulative IPC: 1.0533 (Simulation time: 0 hr 22 min 30 sec) 
Heartbeat CPU 0 instructions: 35000002 cycles: 33244116 heartbeat IPC: 1.03663 cumulative IPC: 1.05282 (Simulation time: 0 hr 23 min 7 sec) 
Heartbeat CPU 0 instructions: 36000000 cycles: 34239391 heartbeat IPC: 1.00475 cumulative IPC: 1.05142 (Simulation time: 0 hr 23 min 46 sec) 
Heartbeat CPU 0 instructions: 37000000 cycles: 35205938 heartbeat IPC: 1.03461 cumulative IPC: 1.05096 (Simulation time: 0 hr 24 min 25 sec) 
Heartbeat CPU 0 instructions: 38000002 cycles: 36155231 heartbeat IPC: 1.05342 cumulative IPC: 1.05102 (Simulation time: 0 hr 25 min 5 sec) 
Heartbeat CPU 0 instructions: 39000000 cycles: 37066214 heartbeat IPC: 1.09771 cumulative IPC: 1.05217 (Simulation time: 0 hr 25 min 48 sec) 
Heartbeat CPU 0 instructions: 40000000 cycles: 38010537 heartbeat IPC: 1.05896 cumulative IPC: 1.05234 (Simulation time: 0 hr 26 min 29 sec) 
Heartbeat CPU 0 instructions: 41000001 cycles: 38985371 heartbeat IPC: 1.02582 cumulative IPC: 1.05168 (Simulation time: 0 hr 27 min 9 sec) 
Heartbeat CPU 0 instructions: 42000003 cycles: 39974625 heartbeat IPC: 1.01086 cumulative IPC: 1.05067 (Simulation time: 0 hr 27 min 47 sec) 
Heartbeat CPU 0 instructions: 43000001 cycles: 40938784 heartbeat IPC: 1.03717 cumulative IPC: 1.05035 (Simulation time: 0 hr 28 min 23 sec) 
Heartbeat CPU 0 instructions: 44000000 cycles: 41869550 heartbeat IPC: 1.07438 cumulative IPC: 1.05088 (Simulation time: 0 hr 29 min 5 sec) 
Heartbeat CPU 0 instructions: 45000000 cycles: 42778853 heartbeat IPC: 1.09974 cumulative IPC: 1.05192 (Simulation time: 0 hr 29 min 42 sec) 
Heartbeat CPU 0 instructions: 46000001 cycles: 43731277 heartbeat IPC: 1.04995 cumulative IPC: 1.05188 (Simulation time: 0 hr 30 min 22 sec) 
Heartbeat CPU 0 instructions: 47000001 cycles: 44686161 heartbeat IPC: 1.04725 cumulative IPC: 1.05178 (Simulation time: 0 hr 31 min 0 sec) 
Heartbeat CPU 0 instructions: 48000000 cycles: 45666243 heartbeat IPC: 1.02032 cumulative IPC: 1.0511 (Simulation time: 0 hr 31 min 36 sec) 
Heartbeat CPU 0 instructions: 49000002 cycles: 46667706 heartbeat IPC: 0.998541 cumulative IPC: 1.04998 (Simulation time: 0 hr 32 min 14 sec) 
Heartbeat CPU 0 instructions: 50000000 cycles: 47652672 heartbeat IPC: 1.01526 cumulative IPC: 1.04926 (Simulation time: 0 hr 32 min 55 sec) 

Warmup complete CPU 0 instructions: 50000001 cycles: 47652674 (Simulation time: 0 hr 32 min 55 sec) 

Heartbeat CPU 0 instructions: 51000000 cycles: 49006739 heartbeat IPC: 0.738516 cumulative IPC: 0.738516 (Simulation time: 0 hr 33 min 36 sec) 
Heartbeat CPU 0 instructions: 52000000 cycles: 50398310 heartbeat IPC: 0.718612 cumulative IPC: 0.728428 (Simulation time: 0 hr 34 min 16 sec) 
Heartbeat CPU 0 instructions: 53000001 cycles: 51735950 heartbeat IPC: 0.747586 cumulative IPC: 0.734704 (Simulation time: 0 hr 34 min 56 sec) 
Heartbeat CPU 0 instructions: 54000000 cycles: 53050959 heartbeat IPC: 0.76045 cumulative IPC: 0.740976 (Simulation time: 0 hr 35 min 35 sec) 
Heartbeat CPU 0 instructions: 55000001 cycles: 54357450 heartbeat IPC: 0.76541 cumulative IPC: 0.745737 (Simulation time: 0 hr 36 min 14 sec) 
Heartbeat CPU 0 instructions: 56000000 cycles: 55680772 heartbeat IPC: 0.755673 cumulative IPC: 0.747375 (Simulation time: 0 hr 36 min 54 sec) 
Heartbeat CPU 0 instructions: 57000001 cycles: 57013811 heartbeat IPC: 0.750166 cumulative IPC: 0.747772 (Simulation time: 0 hr 37 min 32 sec) 
Heartbeat CPU 0 instructions: 58000000 cycles: 58389827 heartbeat IPC: 0.726735 cumulative IPC: 0.745076 (Simulation time: 0 hr 38 min 12 sec) 
Heartbeat CPU 0 instructions: 59000000 cycles: 59784393 heartbeat IPC: 0.717069 cumulative IPC: 0.741857 (Simulation time: 0 hr 38 min 56 sec) 
Heartbeat CPU 0 instructions: 60000000 cycles: 61162003 heartbeat IPC: 0.725895 cumulative IPC: 0.740229 (Simulation time: 0 hr 39 min 36 sec) 
Heartbeat CPU 0 instructions: 61000000 cycles: 62492288 heartbeat IPC: 0.751719 cumulative IPC: 0.741259 (Simulation time: 0 hr 40 min 16 sec) 
Heartbeat CPU 0 instructions: 62000002 cycles: 63853324 heartbeat IPC: 0.734736 cumulative IPC: 0.740711 (Simulation time: 0 hr 40 min 55 sec) 
Heartbeat CPU 0 instructions: 63000003 cycles: 65167910 heartbeat IPC: 0.760697 cumulative IPC: 0.742211 (Simulation time: 0 hr 41 min 40 sec) 
Heartbeat CPU 0 instructions: 64000000 cycles: 66487635 heartbeat IPC: 0.757731 cumulative IPC: 0.743299 (Simulation time: 0 hr 42 min 21 sec) 
Heartbeat CPU 0 instructions: 65000000 cycles: 67831979 heartbeat IPC: 0.743857 cumulative IPC: 0.743336 (Simulation time: 0 hr 43 min 0 sec) 
Heartbeat CPU 0 instructions: 66000002 cycles: 69222017 heartbeat IPC: 0.719406 cumulative IPC: 0.741794 (Simulation time: 0 hr 43 min 39 sec) 
Heartbeat CPU 0 instructions: 67000002 cycles: 70609647 heartbeat IPC: 0.720653 cumulative IPC: 0.740516 (Simulation time: 0 hr 44 min 20 sec) 
Heartbeat CPU 0 instructions: 68000000 cycles: 71962270 heartbeat IPC: 0.739303 cumulative IPC: 0.740448 (Simulation time: 0 hr 44 min 57 sec) 
Heartbeat CPU 0 instructions: 69000000 cycles: 73292229 heartbeat IPC: 0.751903 cumulative IPC: 0.741042 (Simulation time: 0 hr 45 min 38 sec) 
Heartbeat CPU 0 instructions: 70000000 cycles: 74619688 heartbeat IPC: 0.753319 cumulative IPC: 0.741647 (Simulation time: 0 hr 46 min 19 sec) 
Heartbeat CPU 0 instructions: 71000003 cycles: 75962927 heartbeat IPC: 0.744471 cumulative IPC: 0.741781 (Simulation time: 0 hr 47 min 1 sec) 
Heartbeat CPU 0 instructions: 72000000 cycles: 77302234 heartbeat IPC: 0.746653 cumulative IPC: 0.742001 (Simulation time: 0 hr 47 min 40 sec) 
Heartbeat CPU 0 instructions: 73000003 cycles: 78669836 heartbeat IPC: 0.731209 cumulative IPC: 0.741525 (Simulation time: 0 hr 48 min 20 sec) 
Heartbeat CPU 0 instructions: 74000001 cycles: 80069949 heartbeat IPC: 0.714227 cumulative IPC: 0.740346 (Simulation time: 0 hr 48 min 59 sec) 
Heartbeat CPU 0 instructions: 75000003 cycles: 81445088 heartbeat IPC: 0.727201 cumulative IPC: 0.739811 (Simulation time: 0 hr 49 min 45 sec) 
Heartbeat CPU 0 instructions: 76000000 cycles: 82786855 heartbeat IPC: 0.745284 cumulative IPC: 0.74002 (Simulation time: 0 hr 50 min 28 sec) 
Heartbeat CPU 0 instructions: 77000003 cycles: 84121515 heartbeat IPC: 0.749257 cumulative IPC: 0.740358 (Simulation time: 0 hr 51 min 8 sec) 
Heartbeat CPU 0 instructions: 78000001 cycles: 85453379 heartbeat IPC: 0.750826 cumulative IPC: 0.740727 (Simulation time: 0 hr 51 min 48 sec) 
Heartbeat CPU 0 instructions: 79000000 cycles: 86809384 heartbeat IPC: 0.73746 cumulative IPC: 0.740614 (Simulation time: 0 hr 52 min 30 sec) 
Heartbeat CPU 0 instructions: 80000000 cycles: 88155861 heartbeat IPC: 0.742679 cumulative IPC: 0.740682 (Simulation time: 0 hr 53 min 16 sec) 
Heartbeat CPU 0 instructions: 81000002 cycles: 89533171 heartbeat IPC: 0.726054 cumulative IPC: 0.740201 (Simulation time: 0 hr 53 min 58 sec) 
Heartbeat CPU 0 instructions: 82000000 cycles: 90907043 heartbeat IPC: 0.727868 cumulative IPC: 0.73981 (Simulation time: 0 hr 54 min 41 sec) 
Heartbeat CPU 0 instructions: 83000003 cycles: 92238570 heartbeat IPC: 0.75102 cumulative IPC: 0.740144 (Simulation time: 0 hr 55 min 27 sec) 
Heartbeat CPU 0 instructions: 84000000 cycles: 93580325 heartbeat IPC: 0.74529 cumulative IPC: 0.740295 (Simulation time: 0 hr 56 min 12 sec) 
Heartbeat CPU 0 instructions: 85000002 cycles: 94894985 heartbeat IPC: 0.760654 cumulative IPC: 0.740861 (Simulation time: 0 hr 56 min 53 sec) 
Heartbeat CPU 0 instructions: 86000003 cycles: 96199336 heartbeat IPC: 0.766666 cumulative IPC: 0.741555 (Simulation time: 0 hr 57 min 39 sec) 
Heartbeat CPU 0 instructions: 87000000 cycles: 97582044 heartbeat IPC: 0.723216 cumulative IPC: 0.741047 (Simulation time: 0 hr 58 min 18 sec) 
Heartbeat CPU 0 instructions: 88000000 cycles: 98934451 heartbeat IPC: 0.739422 cumulative IPC: 0.741004 (Simulation time: 0 hr 59 min 1 sec) 
Heartbeat CPU 0 instructions: 89000000 cycles: 100294347 heartbeat IPC: 0.73535 cumulative IPC: 0.740858 (Simulation time: 0 hr 59 min 41 sec) 
Heartbeat CPU 0 instructions: 90000000 cycles: 101612188 heartbeat IPC: 0.758817 cumulative IPC: 0.741297 (Simulation time: 1 hr 0 min 20 sec) 
Heartbeat CPU 0 instructions: 91000001 cycles: 102922039 heartbeat IPC: 0.763446 cumulative IPC: 0.741821 (Simulation time: 1 hr 1 min 2 sec) 
Heartbeat CPU 0 instructions: 92000000 cycles: 104239899 heartbeat IPC: 0.758805 cumulative IPC: 0.742217 (Simulation time: 1 hr 1 min 39 sec) 
Heartbeat CPU 0 instructions: 93000003 cycles: 105626168 heartbeat IPC: 0.721363 cumulative IPC: 0.741718 (Simulation time: 1 hr 2 min 15 sec) 
Heartbeat CPU 0 instructions: 94000000 cycles: 106970302 heartbeat IPC: 0.743971 cumulative IPC: 0.741769 (Simulation time: 1 hr 2 min 51 sec) 
Heartbeat CPU 0 instructions: 95000000 cycles: 108322973 heartbeat IPC: 0.739278 cumulative IPC: 0.741714 (Simulation time: 1 hr 3 min 31 sec) 
Heartbeat CPU 0 instructions: 96000000 cycles: 109656845 heartbeat IPC: 0.749697 cumulative IPC: 0.741886 (Simulation time: 1 hr 4 min 9 sec) 
Heartbeat CPU 0 instructions: 97000000 cycles: 110968225 heartbeat IPC: 0.762555 cumulative IPC: 0.742314 (Simulation time: 1 hr 4 min 48 sec) 
Heartbeat CPU 0 instructions: 98000003 cycles: 112277940 heartbeat IPC: 0.763527 cumulative IPC: 0.742744 (Simulation time: 1 hr 5 min 25 sec) 
Heartbeat CPU 0 instructions: 99000000 cycles: 113668378 heartbeat IPC: 0.719196 cumulative IPC: 0.742248 (Simulation time: 1 hr 6 min 1 sec) 
Heartbeat CPU 0 instructions: 100000000 cycles: 115010497 heartbeat IPC: 0.74509 cumulative IPC: 0.742304 (Simulation time: 1 hr 6 min 38 sec) 
Heartbeat CPU 0 instructions: 101000000 cycles: 116358598 heartbeat IPC: 0.741784 cumulative IPC: 0.742294 (Simulation time: 1 hr 7 min 14 sec) 
Heartbeat CPU 0 instructions: 102000001 cycles: 117673102 heartbeat IPC: 0.760744 cumulative IPC: 0.74264 (Simulation time: 1 hr 7 min 52 sec) 
Heartbeat CPU 0 instructions: 103000001 cycles: 118976754 heartbeat IPC: 0.767076 cumulative IPC: 0.743087 (Simulation time: 1 hr 8 min 30 sec) 
Heartbeat CPU 0 instructions: 104000000 cycles: 120281287 heartbeat IPC: 0.766557 cumulative IPC: 0.743509 (Simulation time: 1 hr 9 min 12 sec) 
Heartbeat CPU 0 instructions: 105000002 cycles: 121660600 heartbeat IPC: 0.725 cumulative IPC: 0.743164 (Simulation time: 1 hr 9 min 47 sec) 
Heartbeat CPU 0 instructions: 106000000 cycles: 123066205 heartbeat IPC: 0.711436 cumulative IPC: 0.742572 (Simulation time: 1 hr 10 min 19 sec) 
Heartbeat CPU 0 instructions: 107000002 cycles: 124458429 heartbeat IPC: 0.718277 cumulative IPC: 0.742132 (Simulation time: 1 hr 10 min 55 sec) 
Heartbeat CPU 0 instructions: 108000000 cycles: 125814365 heartbeat IPC: 0.737496 cumulative IPC: 0.742051 (Simulation time: 1 hr 11 min 26 sec) 
Heartbeat CPU 0 instructions: 109000000 cycles: 127152291 heartbeat IPC: 0.747425 cumulative IPC: 0.742142 (Simulation time: 1 hr 11 min 56 sec) 
Heartbeat CPU 0 instructions: 110000000 cycles: 128481339 heartbeat IPC: 0.752418 cumulative IPC: 0.742311 (Simulation time: 1 hr 12 min 26 sec) 
Heartbeat CPU 0 instructions: 111000000 cycles: 129817992 heartbeat IPC: 0.748137 cumulative IPC: 0.742406 (Simulation time: 1 hr 12 min 58 sec) 
Heartbeat CPU 0 instructions: 112000000 cycles: 131206811 heartbeat IPC: 0.720036 cumulative IPC: 0.742034 (Simulation time: 1 hr 13 min 28 sec) 
Heartbeat CPU 0 instructions: 113000000 cycles: 132581325 heartbeat IPC: 0.72753 cumulative IPC: 0.741799 (Simulation time: 1 hr 13 min 58 sec) 
Heartbeat CPU 0 instructions: 114000001 cycles: 133909468 heartbeat IPC: 0.752932 cumulative IPC: 0.741971 (Simulation time: 1 hr 14 min 27 sec) 
Heartbeat CPU 0 instructions: 115000000 cycles: 135269152 heartbeat IPC: 0.735464 cumulative IPC: 0.74187 (Simulation time: 1 hr 14 min 56 sec) 
Heartbeat CPU 0 instructions: 116000000 cycles: 136585966 heartbeat IPC: 0.759409 cumulative IPC: 0.742129 (Simulation time: 1 hr 15 min 26 sec) 
Heartbeat CPU 0 instructions: 117000000 cycles: 137894652 heartbeat IPC: 0.764125 cumulative IPC: 0.742448 (Simulation time: 1 hr 15 min 55 sec) 
Heartbeat CPU 0 instructions: 118000002 cycles: 139266263 heartbeat IPC: 0.729071 cumulative IPC: 0.742248 (Simulation time: 1 hr 16 min 24 sec) 
Heartbeat CPU 0 instructions: 119000000 cycles: 140672600 heartbeat IPC: 0.711066 cumulative IPC: 0.741777 (Simulation time: 1 hr 16 min 49 sec) 
Heartbeat CPU 0 instructions: 120000000 cycles: 142103439 heartbeat IPC: 0.698891 cumulative IPC: 0.741127 (Simulation time: 1 hr 17 min 15 sec) 
Heartbeat CPU 0 instructions: 121000000 cycles: 143458227 heartbeat IPC: 0.738123 cumulative IPC: 0.741084 (Simulation time: 1 hr 17 min 41 sec) 
Heartbeat CPU 0 instructions: 122000003 cycles: 144794155 heartbeat IPC: 0.748546 cumulative IPC: 0.741187 (Simulation time: 1 hr 18 min 7 sec) 
Heartbeat CPU 0 instructions: 123000003 cycles: 146121559 heartbeat IPC: 0.75335 cumulative IPC: 0.741351 (Simulation time: 1 hr 18 min 32 sec) 
Heartbeat CPU 0 instructions: 124000000 cycles: 147460948 heartbeat IPC: 0.746607 cumulative IPC: 0.741421 (Simulation time: 1 hr 18 min 56 sec) 
Heartbeat CPU 0 instructions: 125000001 cycles: 148849995 heartbeat IPC: 0.719919 cumulative IPC: 0.741126 (Simulation time: 1 hr 19 min 19 sec) 
Heartbeat CPU 0 instructions: 126000000 cycles: 150181774 heartbeat IPC: 0.750875 cumulative IPC: 0.741253 (Simulation time: 1 hr 19 min 43 sec) 
Heartbeat CPU 0 instructions: 127000003 cycles: 151523281 heartbeat IPC: 0.745433 cumulative IPC: 0.741307 (Simulation time: 1 hr 20 min 5 sec) 
Heartbeat CPU 0 instructions: 128000000 cycles: 152835911 heartbeat IPC: 0.761827 cumulative IPC: 0.741563 (Simulation time: 1 hr 20 min 28 sec) 
Heartbeat CPU 0 instructions: 129000003 cycles: 154138003 heartbeat IPC: 0.767997 cumulative IPC: 0.741886 (Simulation time: 1 hr 20 min 51 sec) 
Heartbeat CPU 0 instructions: 130000000 cycles: 155435160 heartbeat IPC: 0.770914 cumulative IPC: 0.742236 (Simulation time: 1 hr 21 min 12 sec) 
Heartbeat CPU 0 instructions: 131000000 cycles: 156810627 heartbeat IPC: 0.727026 cumulative IPC: 0.742044 (Simulation time: 1 hr 21 min 34 sec) 
Heartbeat CPU 0 instructions: 132000000 cycles: 158211124 heartbeat IPC: 0.714032 cumulative IPC: 0.741689 (Simulation time: 1 hr 21 min 56 sec) 
Heartbeat CPU 0 instructions: 133000003 cycles: 159588383 heartbeat IPC: 0.726082 cumulative IPC: 0.741497 (Simulation time: 1 hr 22 min 18 sec) 
Heartbeat CPU 0 instructions: 134000000 cycles: 160936327 heartbeat IPC: 0.741868 cumulative IPC: 0.741502 (Simulation time: 1 hr 22 min 40 sec) 
Heartbeat CPU 0 instructions: 135000002 cycles: 162255996 heartbeat IPC: 0.757767 cumulative IPC: 0.741689 (Simulation time: 1 hr 23 min 2 sec) 
Heartbeat CPU 0 instructions: 136000000 cycles: 163563591 heartbeat IPC: 0.764761 cumulative IPC: 0.741949 (Simulation time: 1 hr 23 min 23 sec) 
Heartbeat CPU 0 instructions: 137000003 cycles: 164898064 heartbeat IPC: 0.749362 cumulative IPC: 0.742033 (Simulation time: 1 hr 23 min 43 sec) 
Heartbeat CPU 0 instructions: 138000003 cycles: 166249108 heartbeat IPC: 0.740168 cumulative IPC: 0.742012 (Simulation time: 1 hr 24 min 1 sec) 
Heartbeat CPU 0 instructions: 139000000 cycles: 167638904 heartbeat IPC: 0.719528 cumulative IPC: 0.741752 (Simulation time: 1 hr 24 min 18 sec) 
Heartbeat CPU 0 instructions: 140000000 cycles: 168962761 heartbeat IPC: 0.755369 cumulative IPC: 0.7419 (Simulation time: 1 hr 24 min 35 sec) 
Heartbeat CPU 0 instructions: 141000001 cycles: 170284687 heartbeat IPC: 0.756473 cumulative IPC: 0.742057 (Simulation time: 1 hr 24 min 51 sec) 
Heartbeat CPU 0 instructions: 142000000 cycles: 171585986 heartbeat IPC: 0.768462 cumulative IPC: 0.742335 (Simulation time: 1 hr 25 min 7 sec) 
Heartbeat CPU 0 instructions: 143000003 cycles: 172911723 heartbeat IPC: 0.7543 cumulative IPC: 0.742461 (Simulation time: 1 hr 25 min 23 sec) 
Heartbeat CPU 0 instructions: 144000000 cycles: 174258656 heartbeat IPC: 0.742425 cumulative IPC: 0.742461 (Simulation time: 1 hr 25 min 38 sec) 
Heartbeat CPU 0 instructions: 145000001 cycles: 175652242 heartbeat IPC: 0.717574 cumulative IPC: 0.74219 (Simulation time: 1 hr 25 min 52 sec) 
Heartbeat CPU 0 instructions: 146000000 cycles: 177059290 heartbeat IPC: 0.710707 cumulative IPC: 0.741848 (Simulation time: 1 hr 26 min 5 sec) 
Heartbeat CPU 0 instructions: 147000001 cycles: 178416334 heartbeat IPC: 0.736897 cumulative IPC: 0.741796 (Simulation time: 1 hr 26 min 19 sec) 
Heartbeat CPU 0 instructions: 148000000 cycles: 179744069 heartbeat IPC: 0.753162 cumulative IPC: 0.741911 (Simulation time: 1 hr 26 min 32 sec) 
Heartbeat CPU 0 instructions: 149000000 cycles: 181060104 heartbeat IPC: 0.759858 cumulative IPC: 0.742088 (Simulation time: 1 hr 26 min 45 sec) 
Heartbeat CPU 0 instructions: 150000000 cycles: 182382422 heartbeat IPC: 0.756248 cumulative IPC: 0.742227 (Simulation time: 1 hr 26 min 58 sec) 
Finished CPU 0 instructions: 100000000 cycles: 134729757 cummulative IPC: 0.742227 (Simulation time: 1 hr 26 min 58 sec) 

ChampSim completed all CPUs

Region of Interest Statistics

CPU 0 cummulative IPC: 0.742227 instructions: 100000000 cycles: 134729757
LLC TOTAL     ACCESS:   21168194  HIT:   21091818  MISS:      76376
LLC LOAD      ACCESS:     165333  HIT:     128294  MISS:      37039
LLC RFO       ACCESS:   10374956  HIT:   10369299  MISS:       5657
LLC PREFETCH  ACCESS:     183343  HIT:     149983  MISS:      33360
LLC WRITEBACK ACCESS:   10444562  HIT:   10444242  MISS:        320
OPTgen accesses: 995975
OPTgen hits: 963303
OPTgen hit rate: 96.7196


