
*** ChampSim Multicore Out-of-Order Simulator ***

Warmup Instructions: 50000000
Simulation Instructions: 100000000
Configuration: 2
Number of CPUs: 1
LLC sets: 2048
LLC ways: 16
Off-chip DRAM Channels: 1 Width: 64-bit Data Rate: 1600 MT/s

CPU 0 runs /datasets/cs240c-wi22-a00-public/data/Assignment2-gz/gcc_13B.trace.gz
CPU 0 L1D next line prefetcher
CPU 0 L2C IP-based stride prefetcher
Initialize Hawkeye state
Heartbeat CPU 0 instructions: 1000000 cycles: 633324 heartbeat IPC: 1.57897 cumulative IPC: 1.57897 (Simulation time: 0 hr 0 min 41 sec) 
Heartbeat CPU 0 instructions: 2000001 cycles: 1243589 heartbeat IPC: 1.63863 cumulative IPC: 1.60825 (Simulation time: 0 hr 1 min 23 sec) 
Heartbeat CPU 0 instructions: 3000001 cycles: 1717440 heartbeat IPC: 2.11037 cumulative IPC: 1.74679 (Simulation time: 0 hr 2 min 4 sec) 
Heartbeat CPU 0 instructions: 4000000 cycles: 2191005 heartbeat IPC: 2.11164 cumulative IPC: 1.82565 (Simulation time: 0 hr 2 min 45 sec) 
Heartbeat CPU 0 instructions: 5000002 cycles: 2665107 heartbeat IPC: 2.10926 cumulative IPC: 1.8761 (Simulation time: 0 hr 3 min 22 sec) 
Heartbeat CPU 0 instructions: 6000002 cycles: 3138972 heartbeat IPC: 2.11031 cumulative IPC: 1.91145 (Simulation time: 0 hr 3 min 56 sec) 
Heartbeat CPU 0 instructions: 7000001 cycles: 3614348 heartbeat IPC: 2.1036 cumulative IPC: 1.93673 (Simulation time: 0 hr 4 min 30 sec) 
Heartbeat CPU 0 instructions: 8000000 cycles: 4091490 heartbeat IPC: 2.09581 cumulative IPC: 1.95528 (Simulation time: 0 hr 5 min 6 sec) 
Heartbeat CPU 0 instructions: 9000001 cycles: 4832459 heartbeat IPC: 1.34959 cumulative IPC: 1.86241 (Simulation time: 0 hr 5 min 48 sec) 
Heartbeat CPU 0 instructions: 10000001 cycles: 5536787 heartbeat IPC: 1.41979 cumulative IPC: 1.8061 (Simulation time: 0 hr 6 min 27 sec) 
Heartbeat CPU 0 instructions: 11000002 cycles: 6156614 heartbeat IPC: 1.61336 cumulative IPC: 1.7867 (Simulation time: 0 hr 7 min 7 sec) 
Heartbeat CPU 0 instructions: 12000000 cycles: 6769763 heartbeat IPC: 1.63092 cumulative IPC: 1.77259 (Simulation time: 0 hr 7 min 48 sec) 
Heartbeat CPU 0 instructions: 13000000 cycles: 7375060 heartbeat IPC: 1.65208 cumulative IPC: 1.7627 (Simulation time: 0 hr 8 min 30 sec) 
Heartbeat CPU 0 instructions: 14000000 cycles: 8014708 heartbeat IPC: 1.56336 cumulative IPC: 1.74679 (Simulation time: 0 hr 9 min 10 sec) 
Heartbeat CPU 0 instructions: 15000001 cycles: 8614058 heartbeat IPC: 1.66848 cumulative IPC: 1.74134 (Simulation time: 0 hr 9 min 50 sec) 
Heartbeat CPU 0 instructions: 16000000 cycles: 9087437 heartbeat IPC: 2.11247 cumulative IPC: 1.76067 (Simulation time: 0 hr 10 min 35 sec) 
Heartbeat CPU 0 instructions: 17000000 cycles: 9561311 heartbeat IPC: 2.11027 cumulative IPC: 1.778 (Simulation time: 0 hr 11 min 14 sec) 
Heartbeat CPU 0 instructions: 18000000 cycles: 10035120 heartbeat IPC: 2.11056 cumulative IPC: 1.7937 (Simulation time: 0 hr 11 min 52 sec) 
Heartbeat CPU 0 instructions: 19000002 cycles: 10508906 heartbeat IPC: 2.11066 cumulative IPC: 1.80799 (Simulation time: 0 hr 12 min 30 sec) 
Heartbeat CPU 0 instructions: 20000000 cycles: 10984687 heartbeat IPC: 2.1018 cumulative IPC: 1.82072 (Simulation time: 0 hr 13 min 7 sec) 
Heartbeat CPU 0 instructions: 21000001 cycles: 11465925 heartbeat IPC: 2.07798 cumulative IPC: 1.83151 (Simulation time: 0 hr 13 min 45 sec) 
Heartbeat CPU 0 instructions: 22000000 cycles: 12203453 heartbeat IPC: 1.35588 cumulative IPC: 1.80277 (Simulation time: 0 hr 14 min 25 sec) 
Heartbeat CPU 0 instructions: 23000002 cycles: 12901314 heartbeat IPC: 1.43295 cumulative IPC: 1.78276 (Simulation time: 0 hr 15 min 6 sec) 
Heartbeat CPU 0 instructions: 24000000 cycles: 13521778 heartbeat IPC: 1.61169 cumulative IPC: 1.77491 (Simulation time: 0 hr 15 min 43 sec) 
Heartbeat CPU 0 instructions: 25000000 cycles: 14137357 heartbeat IPC: 1.62449 cumulative IPC: 1.76836 (Simulation time: 0 hr 16 min 22 sec) 
Heartbeat CPU 0 instructions: 26000002 cycles: 14744820 heartbeat IPC: 1.64619 cumulative IPC: 1.76333 (Simulation time: 0 hr 17 min 4 sec) 
Heartbeat CPU 0 instructions: 27000001 cycles: 15395699 heartbeat IPC: 1.53638 cumulative IPC: 1.75374 (Simulation time: 0 hr 17 min 43 sec) 
Heartbeat CPU 0 instructions: 28000000 cycles: 15978395 heartbeat IPC: 1.71616 cumulative IPC: 1.75237 (Simulation time: 0 hr 18 min 17 sec) 
Heartbeat CPU 0 instructions: 29000001 cycles: 16452149 heartbeat IPC: 2.1108 cumulative IPC: 1.76269 (Simulation time: 0 hr 18 min 51 sec) 
Heartbeat CPU 0 instructions: 30000000 cycles: 16925866 heartbeat IPC: 2.11096 cumulative IPC: 1.77244 (Simulation time: 0 hr 19 min 27 sec) 
Heartbeat CPU 0 instructions: 31000000 cycles: 17399901 heartbeat IPC: 2.10955 cumulative IPC: 1.78162 (Simulation time: 0 hr 20 min 1 sec) 
Heartbeat CPU 0 instructions: 32000000 cycles: 17873823 heartbeat IPC: 2.11005 cumulative IPC: 1.79033 (Simulation time: 0 hr 20 min 37 sec) 
Heartbeat CPU 0 instructions: 33000002 cycles: 18349532 heartbeat IPC: 2.10213 cumulative IPC: 1.79841 (Simulation time: 0 hr 21 min 12 sec) 
Heartbeat CPU 0 instructions: 34000001 cycles: 18823426 heartbeat IPC: 2.11017 cumulative IPC: 1.80626 (Simulation time: 0 hr 21 min 47 sec) 
Heartbeat CPU 0 instructions: 35000000 cycles: 19468183 heartbeat IPC: 1.55097 cumulative IPC: 1.79781 (Simulation time: 0 hr 22 min 34 sec) 
Heartbeat CPU 0 instructions: 36000000 cycles: 20152516 heartbeat IPC: 1.46128 cumulative IPC: 1.78638 (Simulation time: 0 hr 23 min 9 sec) 
Heartbeat CPU 0 instructions: 37000003 cycles: 20837012 heartbeat IPC: 1.46093 cumulative IPC: 1.77569 (Simulation time: 0 hr 23 min 46 sec) 
Heartbeat CPU 0 instructions: 38000000 cycles: 21522399 heartbeat IPC: 1.45903 cumulative IPC: 1.7656 (Simulation time: 0 hr 24 min 24 sec) 
Heartbeat CPU 0 instructions: 39000002 cycles: 22207351 heartbeat IPC: 1.45996 cumulative IPC: 1.75618 (Simulation time: 0 hr 25 min 1 sec) 
Heartbeat CPU 0 instructions: 40000000 cycles: 22892829 heartbeat IPC: 1.45883 cumulative IPC: 1.74727 (Simulation time: 0 hr 25 min 41 sec) 
Heartbeat CPU 0 instructions: 41000000 cycles: 23578082 heartbeat IPC: 1.45932 cumulative IPC: 1.7389 (Simulation time: 0 hr 26 min 19 sec) 
Heartbeat CPU 0 instructions: 42000000 cycles: 24262743 heartbeat IPC: 1.46058 cumulative IPC: 1.73105 (Simulation time: 0 hr 26 min 56 sec) 
Heartbeat CPU 0 instructions: 43000002 cycles: 24947817 heartbeat IPC: 1.4597 cumulative IPC: 1.7236 (Simulation time: 0 hr 27 min 32 sec) 
Heartbeat CPU 0 instructions: 44000000 cycles: 25632890 heartbeat IPC: 1.4597 cumulative IPC: 1.71654 (Simulation time: 0 hr 28 min 10 sec) 
Heartbeat CPU 0 instructions: 45000000 cycles: 26318642 heartbeat IPC: 1.45825 cumulative IPC: 1.70981 (Simulation time: 0 hr 28 min 44 sec) 
Heartbeat CPU 0 instructions: 46000002 cycles: 27003895 heartbeat IPC: 1.45932 cumulative IPC: 1.70346 (Simulation time: 0 hr 29 min 21 sec) 
Heartbeat CPU 0 instructions: 47000001 cycles: 27688587 heartbeat IPC: 1.46051 cumulative IPC: 1.69745 (Simulation time: 0 hr 29 min 57 sec) 
Heartbeat CPU 0 instructions: 48000000 cycles: 28372877 heartbeat IPC: 1.46137 cumulative IPC: 1.69176 (Simulation time: 0 hr 30 min 33 sec) 
Heartbeat CPU 0 instructions: 49000000 cycles: 29058072 heartbeat IPC: 1.45944 cumulative IPC: 1.68628 (Simulation time: 0 hr 31 min 6 sec) 
Heartbeat CPU 0 instructions: 50000003 cycles: 29742371 heartbeat IPC: 1.46135 cumulative IPC: 1.6811 (Simulation time: 0 hr 31 min 42 sec) 

Warmup complete CPU 0 instructions: 50000003 cycles: 29742371 (Simulation time: 0 hr 31 min 42 sec) 

Heartbeat CPU 0 instructions: 51000001 cycles: 33321927 heartbeat IPC: 0.279364 cumulative IPC: 0.279364 (Simulation time: 0 hr 32 min 20 sec) 
Heartbeat CPU 0 instructions: 52000000 cycles: 36888670 heartbeat IPC: 0.280368 cumulative IPC: 0.279865 (Simulation time: 0 hr 33 min 0 sec) 
Heartbeat CPU 0 instructions: 53000001 cycles: 40468549 heartbeat IPC: 0.279339 cumulative IPC: 0.279689 (Simulation time: 0 hr 33 min 40 sec) 
Heartbeat CPU 0 instructions: 54000000 cycles: 44042279 heartbeat IPC: 0.279819 cumulative IPC: 0.279722 (Simulation time: 0 hr 34 min 18 sec) 
Heartbeat CPU 0 instructions: 55000000 cycles: 47625619 heartbeat IPC: 0.279069 cumulative IPC: 0.279591 (Simulation time: 0 hr 34 min 57 sec) 
Heartbeat CPU 0 instructions: 56000000 cycles: 51197636 heartbeat IPC: 0.279954 cumulative IPC: 0.279651 (Simulation time: 0 hr 35 min 35 sec) 
Heartbeat CPU 0 instructions: 57000002 cycles: 54737265 heartbeat IPC: 0.282516 cumulative IPC: 0.280057 (Simulation time: 0 hr 36 min 14 sec) 
Heartbeat CPU 0 instructions: 58000001 cycles: 58282532 heartbeat IPC: 0.282066 cumulative IPC: 0.280307 (Simulation time: 0 hr 36 min 51 sec) 
Heartbeat CPU 0 instructions: 59000003 cycles: 61800950 heartbeat IPC: 0.284219 cumulative IPC: 0.280736 (Simulation time: 0 hr 37 min 31 sec) 
Heartbeat CPU 0 instructions: 60000000 cycles: 65315725 heartbeat IPC: 0.284512 cumulative IPC: 0.281109 (Simulation time: 0 hr 38 min 11 sec) 
Heartbeat CPU 0 instructions: 61000000 cycles: 68826396 heartbeat IPC: 0.284846 cumulative IPC: 0.281445 (Simulation time: 0 hr 38 min 50 sec) 
Heartbeat CPU 0 instructions: 62000003 cycles: 72333439 heartbeat IPC: 0.285141 cumulative IPC: 0.281749 (Simulation time: 0 hr 39 min 31 sec) 
Heartbeat CPU 0 instructions: 63000001 cycles: 75843278 heartbeat IPC: 0.284913 cumulative IPC: 0.28199 (Simulation time: 0 hr 40 min 11 sec) 
Heartbeat CPU 0 instructions: 64000000 cycles: 79371478 heartbeat IPC: 0.28343 cumulative IPC: 0.282092 (Simulation time: 0 hr 40 min 54 sec) 
Heartbeat CPU 0 instructions: 65000000 cycles: 82938608 heartbeat IPC: 0.280337 cumulative IPC: 0.281975 (Simulation time: 0 hr 41 min 32 sec) 
Heartbeat CPU 0 instructions: 66000000 cycles: 86459697 heartbeat IPC: 0.284003 cumulative IPC: 0.282101 (Simulation time: 0 hr 42 min 13 sec) 
Heartbeat CPU 0 instructions: 67000001 cycles: 89994190 heartbeat IPC: 0.282926 cumulative IPC: 0.282149 (Simulation time: 0 hr 42 min 54 sec) 
Heartbeat CPU 0 instructions: 68000000 cycles: 93703608 heartbeat IPC: 0.269584 cumulative IPC: 0.28142 (Simulation time: 0 hr 43 min 41 sec) 
Heartbeat CPU 0 instructions: 69000003 cycles: 97475297 heartbeat IPC: 0.265134 cumulative IPC: 0.280513 (Simulation time: 0 hr 44 min 23 sec) 
Heartbeat CPU 0 instructions: 70000000 cycles: 101284417 heartbeat IPC: 0.262527 cumulative IPC: 0.279556 (Simulation time: 0 hr 45 min 10 sec) 
Heartbeat CPU 0 instructions: 71000002 cycles: 104861851 heartbeat IPC: 0.279531 cumulative IPC: 0.279555 (Simulation time: 0 hr 45 min 51 sec) 
Heartbeat CPU 0 instructions: 72000000 cycles: 108371522 heartbeat IPC: 0.284926 cumulative IPC: 0.279794 (Simulation time: 0 hr 46 min 31 sec) 
Heartbeat CPU 0 instructions: 73000003 cycles: 111924160 heartbeat IPC: 0.281482 cumulative IPC: 0.279867 (Simulation time: 0 hr 47 min 17 sec) 
Heartbeat CPU 0 instructions: 74000000 cycles: 115528446 heartbeat IPC: 0.277447 cumulative IPC: 0.279766 (Simulation time: 0 hr 48 min 2 sec) 
Heartbeat CPU 0 instructions: 75000000 cycles: 119132695 heartbeat IPC: 0.27745 cumulative IPC: 0.279672 (Simulation time: 0 hr 48 min 44 sec) 
Heartbeat CPU 0 instructions: 76000000 cycles: 122765582 heartbeat IPC: 0.275263 cumulative IPC: 0.2795 (Simulation time: 0 hr 49 min 36 sec) 
Heartbeat CPU 0 instructions: 77000000 cycles: 126368984 heartbeat IPC: 0.277516 cumulative IPC: 0.279426 (Simulation time: 0 hr 50 min 17 sec) 
Heartbeat CPU 0 instructions: 78000003 cycles: 129919539 heartbeat IPC: 0.281647 cumulative IPC: 0.279505 (Simulation time: 0 hr 51 min 4 sec) 
Heartbeat CPU 0 instructions: 79000000 cycles: 133498792 heartbeat IPC: 0.279387 cumulative IPC: 0.279501 (Simulation time: 0 hr 51 min 46 sec) 
Heartbeat CPU 0 instructions: 80000000 cycles: 137048498 heartbeat IPC: 0.281713 cumulative IPC: 0.279574 (Simulation time: 0 hr 52 min 31 sec) 
Heartbeat CPU 0 instructions: 81000001 cycles: 140583351 heartbeat IPC: 0.282897 cumulative IPC: 0.27968 (Simulation time: 0 hr 53 min 11 sec) 
Heartbeat CPU 0 instructions: 82000000 cycles: 144122806 heartbeat IPC: 0.282529 cumulative IPC: 0.279768 (Simulation time: 0 hr 53 min 58 sec) 
Heartbeat CPU 0 instructions: 83000003 cycles: 147681779 heartbeat IPC: 0.280981 cumulative IPC: 0.279805 (Simulation time: 0 hr 54 min 46 sec) 
Heartbeat CPU 0 instructions: 84000000 cycles: 151222527 heartbeat IPC: 0.282425 cumulative IPC: 0.279881 (Simulation time: 0 hr 55 min 30 sec) 
Heartbeat CPU 0 instructions: 85000000 cycles: 154758843 heartbeat IPC: 0.28278 cumulative IPC: 0.279963 (Simulation time: 0 hr 56 min 12 sec) 
Heartbeat CPU 0 instructions: 86000001 cycles: 158304451 heartbeat IPC: 0.282039 cumulative IPC: 0.28002 (Simulation time: 0 hr 57 min 0 sec) 
Heartbeat CPU 0 instructions: 87000001 cycles: 161855030 heartbeat IPC: 0.281644 cumulative IPC: 0.280064 (Simulation time: 0 hr 57 min 45 sec) 
Heartbeat CPU 0 instructions: 88000000 cycles: 165396105 heartbeat IPC: 0.2824 cumulative IPC: 0.280125 (Simulation time: 0 hr 58 min 29 sec) 
Heartbeat CPU 0 instructions: 89000003 cycles: 168935194 heartbeat IPC: 0.282559 cumulative IPC: 0.280187 (Simulation time: 0 hr 59 min 11 sec) 
Heartbeat CPU 0 instructions: 90000000 cycles: 172474343 heartbeat IPC: 0.282553 cumulative IPC: 0.280246 (Simulation time: 0 hr 59 min 57 sec) 
Heartbeat CPU 0 instructions: 91000000 cycles: 176002029 heartbeat IPC: 0.283472 cumulative IPC: 0.280323 (Simulation time: 1 hr 0 min 40 sec) 
Heartbeat CPU 0 instructions: 92000000 cycles: 179513484 heartbeat IPC: 0.284782 cumulative IPC: 0.280428 (Simulation time: 1 hr 1 min 24 sec) 
Heartbeat CPU 0 instructions: 93000001 cycles: 183028846 heartbeat IPC: 0.284466 cumulative IPC: 0.28052 (Simulation time: 1 hr 2 min 11 sec) 
Heartbeat CPU 0 instructions: 94000003 cycles: 186534458 heartbeat IPC: 0.285257 cumulative IPC: 0.280626 (Simulation time: 1 hr 2 min 55 sec) 
Heartbeat CPU 0 instructions: 95000002 cycles: 190047043 heartbeat IPC: 0.28469 cumulative IPC: 0.280715 (Simulation time: 1 hr 3 min 42 sec) 
Heartbeat CPU 0 instructions: 96000000 cycles: 193541133 heartbeat IPC: 0.286197 cumulative IPC: 0.280832 (Simulation time: 1 hr 4 min 26 sec) 
Heartbeat CPU 0 instructions: 97000000 cycles: 197032157 heartbeat IPC: 0.286449 cumulative IPC: 0.28095 (Simulation time: 1 hr 5 min 9 sec) 
Heartbeat CPU 0 instructions: 98000000 cycles: 200516661 heartbeat IPC: 0.286985 cumulative IPC: 0.281073 (Simulation time: 1 hr 5 min 52 sec) 
Heartbeat CPU 0 instructions: 99000000 cycles: 204020915 heartbeat IPC: 0.285367 cumulative IPC: 0.281159 (Simulation time: 1 hr 6 min 38 sec) 
Heartbeat CPU 0 instructions: 100000000 cycles: 207553651 heartbeat IPC: 0.283067 cumulative IPC: 0.281197 (Simulation time: 1 hr 7 min 20 sec) 
Heartbeat CPU 0 instructions: 101000003 cycles: 211060672 heartbeat IPC: 0.285143 cumulative IPC: 0.281273 (Simulation time: 1 hr 8 min 2 sec) 
Heartbeat CPU 0 instructions: 102000000 cycles: 214751119 heartbeat IPC: 0.270969 cumulative IPC: 0.281068 (Simulation time: 1 hr 8 min 43 sec) 
Heartbeat CPU 0 instructions: 103000002 cycles: 218829404 heartbeat IPC: 0.245202 cumulative IPC: 0.280294 (Simulation time: 1 hr 9 min 25 sec) 
Heartbeat CPU 0 instructions: 104000000 cycles: 222921734 heartbeat IPC: 0.244359 cumulative IPC: 0.279533 (Simulation time: 1 hr 10 min 5 sec) 
Heartbeat CPU 0 instructions: 105000000 cycles: 226696979 heartbeat IPC: 0.264883 cumulative IPC: 0.279252 (Simulation time: 1 hr 10 min 45 sec) 
Heartbeat CPU 0 instructions: 106000002 cycles: 230537589 heartbeat IPC: 0.260376 cumulative IPC: 0.278891 (Simulation time: 1 hr 11 min 24 sec) 
Heartbeat CPU 0 instructions: 107000001 cycles: 234436433 heartbeat IPC: 0.256486 cumulative IPC: 0.278464 (Simulation time: 1 hr 11 min 56 sec) 
Heartbeat CPU 0 instructions: 108000000 cycles: 238236285 heartbeat IPC: 0.263168 cumulative IPC: 0.278186 (Simulation time: 1 hr 12 min 29 sec) 
Heartbeat CPU 0 instructions: 109000000 cycles: 241874428 heartbeat IPC: 0.274866 cumulative IPC: 0.278129 (Simulation time: 1 hr 13 min 0 sec) 
Heartbeat CPU 0 instructions: 110000002 cycles: 245572097 heartbeat IPC: 0.270441 cumulative IPC: 0.277997 (Simulation time: 1 hr 13 min 33 sec) 
Heartbeat CPU 0 instructions: 111000000 cycles: 249253609 heartbeat IPC: 0.271627 cumulative IPC: 0.27789 (Simulation time: 1 hr 14 min 5 sec) 
Heartbeat CPU 0 instructions: 112000000 cycles: 252935955 heartbeat IPC: 0.271566 cumulative IPC: 0.277786 (Simulation time: 1 hr 14 min 35 sec) 
Heartbeat CPU 0 instructions: 113000001 cycles: 256634753 heartbeat IPC: 0.270358 cumulative IPC: 0.277665 (Simulation time: 1 hr 15 min 6 sec) 
Heartbeat CPU 0 instructions: 114000000 cycles: 260306327 heartbeat IPC: 0.272362 cumulative IPC: 0.27758 (Simulation time: 1 hr 15 min 37 sec) 
Heartbeat CPU 0 instructions: 115000003 cycles: 263855489 heartbeat IPC: 0.281758 cumulative IPC: 0.277644 (Simulation time: 1 hr 16 min 7 sec) 
Heartbeat CPU 0 instructions: 116000000 cycles: 267382485 heartbeat IPC: 0.283527 cumulative IPC: 0.277731 (Simulation time: 1 hr 16 min 37 sec) 
Heartbeat CPU 0 instructions: 117000001 cycles: 270897406 heartbeat IPC: 0.284502 cumulative IPC: 0.27783 (Simulation time: 1 hr 17 min 6 sec) 
Heartbeat CPU 0 instructions: 118000000 cycles: 274413059 heartbeat IPC: 0.284442 cumulative IPC: 0.277925 (Simulation time: 1 hr 17 min 32 sec) 
Heartbeat CPU 0 instructions: 119000001 cycles: 278113035 heartbeat IPC: 0.270272 cumulative IPC: 0.277811 (Simulation time: 1 hr 17 min 59 sec) 
Heartbeat CPU 0 instructions: 120000000 cycles: 282985915 heartbeat IPC: 0.205217 cumulative IPC: 0.276414 (Simulation time: 1 hr 18 min 30 sec) 
Heartbeat CPU 0 instructions: 121000001 cycles: 288921867 heartbeat IPC: 0.168465 cumulative IPC: 0.273941 (Simulation time: 1 hr 19 min 3 sec) 
Heartbeat CPU 0 instructions: 122000000 cycles: 294535706 heartbeat IPC: 0.178131 cumulative IPC: 0.27191 (Simulation time: 1 hr 19 min 35 sec) 
Heartbeat CPU 0 instructions: 123000001 cycles: 300143782 heartbeat IPC: 0.178314 cumulative IPC: 0.269969 (Simulation time: 1 hr 20 min 7 sec) 
Heartbeat CPU 0 instructions: 124000000 cycles: 305677601 heartbeat IPC: 0.180707 cumulative IPC: 0.268179 (Simulation time: 1 hr 20 min 38 sec) 
Heartbeat CPU 0 instructions: 125000003 cycles: 311110106 heartbeat IPC: 0.184078 cumulative IPC: 0.266555 (Simulation time: 1 hr 21 min 8 sec) 
Heartbeat CPU 0 instructions: 126000000 cycles: 316550762 heartbeat IPC: 0.183801 cumulative IPC: 0.264985 (Simulation time: 1 hr 21 min 38 sec) 
Heartbeat CPU 0 instructions: 127000003 cycles: 321992612 heartbeat IPC: 0.183762 cumulative IPC: 0.263473 (Simulation time: 1 hr 22 min 8 sec) 
Heartbeat CPU 0 instructions: 128000000 cycles: 327332830 heartbeat IPC: 0.187258 cumulative IPC: 0.262105 (Simulation time: 1 hr 22 min 37 sec) 
Heartbeat CPU 0 instructions: 129000002 cycles: 332543750 heartbeat IPC: 0.191905 cumulative IPC: 0.260897 (Simulation time: 1 hr 23 min 6 sec) 
Heartbeat CPU 0 instructions: 130000000 cycles: 337726356 heartbeat IPC: 0.192953 cumulative IPC: 0.259754 (Simulation time: 1 hr 23 min 33 sec) 
Heartbeat CPU 0 instructions: 131000001 cycles: 343095865 heartbeat IPC: 0.186237 cumulative IPC: 0.258494 (Simulation time: 1 hr 23 min 59 sec) 
Heartbeat CPU 0 instructions: 132000000 cycles: 348195794 heartbeat IPC: 0.196081 cumulative IPC: 0.257494 (Simulation time: 1 hr 24 min 21 sec) 
Heartbeat CPU 0 instructions: 133000001 cycles: 353819414 heartbeat IPC: 0.177822 cumulative IPC: 0.256112 (Simulation time: 1 hr 24 min 43 sec) 
Heartbeat CPU 0 instructions: 134000002 cycles: 359014726 heartbeat IPC: 0.192481 cumulative IPC: 0.255108 (Simulation time: 1 hr 25 min 5 sec) 
Heartbeat CPU 0 instructions: 135000000 cycles: 364137821 heartbeat IPC: 0.195194 cumulative IPC: 0.25419 (Simulation time: 1 hr 25 min 26 sec) 
Heartbeat CPU 0 instructions: 136000000 cycles: 369303535 heartbeat IPC: 0.193584 cumulative IPC: 0.253268 (Simulation time: 1 hr 25 min 46 sec) 
Heartbeat CPU 0 instructions: 137000001 cycles: 374365284 heartbeat IPC: 0.19756 cumulative IPC: 0.25245 (Simulation time: 1 hr 26 min 4 sec) 
Heartbeat CPU 0 instructions: 138000002 cycles: 379327812 heartbeat IPC: 0.20151 cumulative IPC: 0.251727 (Simulation time: 1 hr 26 min 20 sec) 
Heartbeat CPU 0 instructions: 139000000 cycles: 384291233 heartbeat IPC: 0.201474 cumulative IPC: 0.251023 (Simulation time: 1 hr 26 min 37 sec) 
Heartbeat CPU 0 instructions: 140000000 cycles: 389249283 heartbeat IPC: 0.201692 cumulative IPC: 0.250343 (Simulation time: 1 hr 26 min 53 sec) 
Heartbeat CPU 0 instructions: 141000000 cycles: 394218908 heartbeat IPC: 0.201222 cumulative IPC: 0.249673 (Simulation time: 1 hr 27 min 8 sec) 
Heartbeat CPU 0 instructions: 142000000 cycles: 399122732 heartbeat IPC: 0.203922 cumulative IPC: 0.249066 (Simulation time: 1 hr 27 min 22 sec) 
Heartbeat CPU 0 instructions: 143000000 cycles: 403994074 heartbeat IPC: 0.205282 cumulative IPC: 0.248496 (Simulation time: 1 hr 27 min 36 sec) 
Heartbeat CPU 0 instructions: 144000000 cycles: 408863128 heartbeat IPC: 0.205379 cumulative IPC: 0.247942 (Simulation time: 1 hr 27 min 49 sec) 
Heartbeat CPU 0 instructions: 145000000 cycles: 413714745 heartbeat IPC: 0.206117 cumulative IPC: 0.247414 (Simulation time: 1 hr 28 min 3 sec) 
Heartbeat CPU 0 instructions: 146000000 cycles: 418643378 heartbeat IPC: 0.202896 cumulative IPC: 0.246849 (Simulation time: 1 hr 28 min 17 sec) 
Heartbeat CPU 0 instructions: 147000000 cycles: 421916189 heartbeat IPC: 0.305548 cumulative IPC: 0.247339 (Simulation time: 1 hr 28 min 32 sec) 
Heartbeat CPU 0 instructions: 148000000 cycles: 426578439 heartbeat IPC: 0.214489 cumulative IPC: 0.246953 (Simulation time: 1 hr 28 min 46 sec) 
Heartbeat CPU 0 instructions: 149000003 cycles: 431451299 heartbeat IPC: 0.205219 cumulative IPC: 0.246447 (Simulation time: 1 hr 28 min 58 sec) 
Heartbeat CPU 0 instructions: 150000001 cycles: 435784356 heartbeat IPC: 0.230783 cumulative IPC: 0.24628 (Simulation time: 1 hr 29 min 9 sec) 
Finished CPU 0 instructions: 100000002 cycles: 406041986 cummulative IPC: 0.24628 (Simulation time: 1 hr 29 min 9 sec) 

ChampSim completed all CPUs

Region of Interest Statistics

CPU 0 cummulative IPC: 0.24628 instructions: 100000002 cycles: 406041986
LLC TOTAL     ACCESS:    1690047  HIT:     184802  MISS:    1505245
LLC LOAD      ACCESS:     565213  HIT:      46794  MISS:     518419
LLC RFO       ACCESS:      88718  HIT:      12785  MISS:      75933
LLC PREFETCH  ACCESS:     720314  HIT:      60578  MISS:     659736
LLC WRITEBACK ACCESS:     315802  HIT:      64645  MISS:     251157
OPTgen accesses: 96865
OPTgen hits: 2890
OPTgen hit rate: 2.98353


