
*** ChampSim Multicore Out-of-Order Simulator ***

Warmup Instructions: 50000000
Simulation Instructions: 100000000
Configuration: 2
Number of CPUs: 1
LLC sets: 2048
LLC ways: 16
Off-chip DRAM Channels: 1 Width: 64-bit Data Rate: 1600 MT/s

CPU 0 runs /datasets/cs240c-wi22-a00-public/data/Assignment2-gz/omnetpp_4B.trace.gz
CPU 0 L1D next line prefetcher
CPU 0 L2C IP-based stride prefetcher
Initialize Hawkeye state
Heartbeat CPU 0 instructions: 1000001 cycles: 566990 heartbeat IPC: 1.7637 cumulative IPC: 1.7637 (Simulation time: 0 hr 0 min 28 sec) 
Heartbeat CPU 0 instructions: 2000001 cycles: 1135686 heartbeat IPC: 1.75841 cumulative IPC: 1.76105 (Simulation time: 0 hr 0 min 57 sec) 
Heartbeat CPU 0 instructions: 3000001 cycles: 1722962 heartbeat IPC: 1.70278 cumulative IPC: 1.74119 (Simulation time: 0 hr 1 min 26 sec) 
Heartbeat CPU 0 instructions: 4000000 cycles: 2292493 heartbeat IPC: 1.75583 cumulative IPC: 1.74483 (Simulation time: 0 hr 1 min 53 sec) 
Heartbeat CPU 0 instructions: 5000000 cycles: 2866927 heartbeat IPC: 1.74084 cumulative IPC: 1.74403 (Simulation time: 0 hr 2 min 17 sec) 
Heartbeat CPU 0 instructions: 6000000 cycles: 3443417 heartbeat IPC: 1.73464 cumulative IPC: 1.74246 (Simulation time: 0 hr 2 min 48 sec) 
Heartbeat CPU 0 instructions: 7000000 cycles: 4013060 heartbeat IPC: 1.75549 cumulative IPC: 1.7443 (Simulation time: 0 hr 3 min 18 sec) 
Heartbeat CPU 0 instructions: 8000000 cycles: 4566920 heartbeat IPC: 1.80551 cumulative IPC: 1.75173 (Simulation time: 0 hr 3 min 47 sec) 
Heartbeat CPU 0 instructions: 9000001 cycles: 5149373 heartbeat IPC: 1.71688 cumulative IPC: 1.74779 (Simulation time: 0 hr 4 min 15 sec) 
Heartbeat CPU 0 instructions: 10000000 cycles: 5703778 heartbeat IPC: 1.80373 cumulative IPC: 1.75322 (Simulation time: 0 hr 4 min 44 sec) 
Heartbeat CPU 0 instructions: 11000000 cycles: 6291287 heartbeat IPC: 1.7021 cumulative IPC: 1.74845 (Simulation time: 0 hr 5 min 10 sec) 
Heartbeat CPU 0 instructions: 12000000 cycles: 6942361 heartbeat IPC: 1.53592 cumulative IPC: 1.72852 (Simulation time: 0 hr 5 min 38 sec) 
Heartbeat CPU 0 instructions: 13000002 cycles: 7589532 heartbeat IPC: 1.54519 cumulative IPC: 1.71289 (Simulation time: 0 hr 6 min 3 sec) 
Heartbeat CPU 0 instructions: 14000000 cycles: 8240026 heartbeat IPC: 1.53729 cumulative IPC: 1.69902 (Simulation time: 0 hr 6 min 27 sec) 
Heartbeat CPU 0 instructions: 15000000 cycles: 8893556 heartbeat IPC: 1.53015 cumulative IPC: 1.68661 (Simulation time: 0 hr 6 min 53 sec) 
Heartbeat CPU 0 instructions: 16000000 cycles: 9464347 heartbeat IPC: 1.75195 cumulative IPC: 1.69056 (Simulation time: 0 hr 7 min 21 sec) 
Heartbeat CPU 0 instructions: 17000000 cycles: 10046725 heartbeat IPC: 1.7171 cumulative IPC: 1.69209 (Simulation time: 0 hr 7 min 48 sec) 
Heartbeat CPU 0 instructions: 18000000 cycles: 10618510 heartbeat IPC: 1.74891 cumulative IPC: 1.69515 (Simulation time: 0 hr 8 min 14 sec) 
Heartbeat CPU 0 instructions: 19000002 cycles: 11187616 heartbeat IPC: 1.75715 cumulative IPC: 1.69831 (Simulation time: 0 hr 8 min 40 sec) 
Heartbeat CPU 0 instructions: 20000000 cycles: 11735766 heartbeat IPC: 1.82431 cumulative IPC: 1.70419 (Simulation time: 0 hr 9 min 7 sec) 
Heartbeat CPU 0 instructions: 21000000 cycles: 12284415 heartbeat IPC: 1.82266 cumulative IPC: 1.70948 (Simulation time: 0 hr 9 min 33 sec) 
Heartbeat CPU 0 instructions: 22000001 cycles: 12837811 heartbeat IPC: 1.80703 cumulative IPC: 1.71369 (Simulation time: 0 hr 10 min 0 sec) 
Heartbeat CPU 0 instructions: 23000000 cycles: 13419806 heartbeat IPC: 1.71823 cumulative IPC: 1.71388 (Simulation time: 0 hr 10 min 30 sec) 
Heartbeat CPU 0 instructions: 24000000 cycles: 13989896 heartbeat IPC: 1.75411 cumulative IPC: 1.71552 (Simulation time: 0 hr 10 min 54 sec) 
Heartbeat CPU 0 instructions: 25000000 cycles: 14553047 heartbeat IPC: 1.77572 cumulative IPC: 1.71785 (Simulation time: 0 hr 11 min 17 sec) 
Heartbeat CPU 0 instructions: 26000001 cycles: 15122958 heartbeat IPC: 1.75466 cumulative IPC: 1.71924 (Simulation time: 0 hr 11 min 49 sec) 
Heartbeat CPU 0 instructions: 27000001 cycles: 15689952 heartbeat IPC: 1.76369 cumulative IPC: 1.72085 (Simulation time: 0 hr 12 min 15 sec) 
Heartbeat CPU 0 instructions: 28000000 cycles: 16259508 heartbeat IPC: 1.75575 cumulative IPC: 1.72207 (Simulation time: 0 hr 12 min 42 sec) 
Heartbeat CPU 0 instructions: 29000000 cycles: 16846271 heartbeat IPC: 1.70427 cumulative IPC: 1.72145 (Simulation time: 0 hr 13 min 8 sec) 
Heartbeat CPU 0 instructions: 30000000 cycles: 17417394 heartbeat IPC: 1.75094 cumulative IPC: 1.72242 (Simulation time: 0 hr 13 min 37 sec) 
Heartbeat CPU 0 instructions: 31000000 cycles: 17993309 heartbeat IPC: 1.73637 cumulative IPC: 1.72286 (Simulation time: 0 hr 14 min 5 sec) 
Heartbeat CPU 0 instructions: 32000000 cycles: 18563426 heartbeat IPC: 1.75403 cumulative IPC: 1.72382 (Simulation time: 0 hr 14 min 33 sec) 
Heartbeat CPU 0 instructions: 33000000 cycles: 19122462 heartbeat IPC: 1.78879 cumulative IPC: 1.72572 (Simulation time: 0 hr 15 min 0 sec) 
Heartbeat CPU 0 instructions: 34000001 cycles: 19675518 heartbeat IPC: 1.80814 cumulative IPC: 1.72804 (Simulation time: 0 hr 15 min 26 sec) 
Heartbeat CPU 0 instructions: 35000001 cycles: 20256957 heartbeat IPC: 1.71987 cumulative IPC: 1.7278 (Simulation time: 0 hr 15 min 54 sec) 
Heartbeat CPU 0 instructions: 36000000 cycles: 20813089 heartbeat IPC: 1.79813 cumulative IPC: 1.72968 (Simulation time: 0 hr 16 min 21 sec) 
Heartbeat CPU 0 instructions: 37000001 cycles: 21385653 heartbeat IPC: 1.74653 cumulative IPC: 1.73013 (Simulation time: 0 hr 16 min 50 sec) 
Heartbeat CPU 0 instructions: 38000001 cycles: 21946596 heartbeat IPC: 1.78271 cumulative IPC: 1.73148 (Simulation time: 0 hr 17 min 21 sec) 
Heartbeat CPU 0 instructions: 39000001 cycles: 22559729 heartbeat IPC: 1.63097 cumulative IPC: 1.72874 (Simulation time: 0 hr 17 min 51 sec) 
Heartbeat CPU 0 instructions: 40000000 cycles: 23208731 heartbeat IPC: 1.54083 cumulative IPC: 1.72349 (Simulation time: 0 hr 18 min 19 sec) 
Heartbeat CPU 0 instructions: 41000001 cycles: 23857682 heartbeat IPC: 1.54095 cumulative IPC: 1.71852 (Simulation time: 0 hr 18 min 43 sec) 
Heartbeat CPU 0 instructions: 42000001 cycles: 24504594 heartbeat IPC: 1.54581 cumulative IPC: 1.71396 (Simulation time: 0 hr 19 min 5 sec) 
Heartbeat CPU 0 instructions: 43000000 cycles: 25173240 heartbeat IPC: 1.49556 cumulative IPC: 1.70816 (Simulation time: 0 hr 19 min 30 sec) 
Heartbeat CPU 0 instructions: 44000000 cycles: 25737398 heartbeat IPC: 1.77255 cumulative IPC: 1.70957 (Simulation time: 0 hr 19 min 56 sec) 
Heartbeat CPU 0 instructions: 45000000 cycles: 26301487 heartbeat IPC: 1.77277 cumulative IPC: 1.71093 (Simulation time: 0 hr 20 min 22 sec) 
Heartbeat CPU 0 instructions: 46000000 cycles: 26848117 heartbeat IPC: 1.82939 cumulative IPC: 1.71334 (Simulation time: 0 hr 20 min 51 sec) 
Heartbeat CPU 0 instructions: 47000000 cycles: 27394802 heartbeat IPC: 1.82921 cumulative IPC: 1.71565 (Simulation time: 0 hr 21 min 21 sec) 
Heartbeat CPU 0 instructions: 48000000 cycles: 27946755 heartbeat IPC: 1.81175 cumulative IPC: 1.71755 (Simulation time: 0 hr 21 min 49 sec) 
Heartbeat CPU 0 instructions: 49000002 cycles: 28528110 heartbeat IPC: 1.72012 cumulative IPC: 1.7176 (Simulation time: 0 hr 22 min 18 sec) 
Heartbeat CPU 0 instructions: 50000000 cycles: 29098378 heartbeat IPC: 1.75356 cumulative IPC: 1.71831 (Simulation time: 0 hr 22 min 47 sec) 

Warmup complete CPU 0 instructions: 50000002 cycles: 29098379 (Simulation time: 0 hr 22 min 47 sec) 

Heartbeat CPU 0 instructions: 51000003 cycles: 32139571 heartbeat IPC: 0.328819 cumulative IPC: 0.328819 (Simulation time: 0 hr 23 min 20 sec) 
Heartbeat CPU 0 instructions: 52000000 cycles: 35183758 heartbeat IPC: 0.328494 cumulative IPC: 0.328656 (Simulation time: 0 hr 23 min 54 sec) 
Heartbeat CPU 0 instructions: 53000003 cycles: 38241050 heartbeat IPC: 0.327088 cumulative IPC: 0.328132 (Simulation time: 0 hr 24 min 28 sec) 
Heartbeat CPU 0 instructions: 54000001 cycles: 41273810 heartbeat IPC: 0.329732 cumulative IPC: 0.32853 (Simulation time: 0 hr 25 min 5 sec) 
Heartbeat CPU 0 instructions: 55000001 cycles: 44446275 heartbeat IPC: 0.315212 cumulative IPC: 0.325778 (Simulation time: 0 hr 25 min 38 sec) 
Heartbeat CPU 0 instructions: 56000000 cycles: 47480800 heartbeat IPC: 0.329541 cumulative IPC: 0.326399 (Simulation time: 0 hr 26 min 10 sec) 
Heartbeat CPU 0 instructions: 57000003 cycles: 50499165 heartbeat IPC: 0.331306 cumulative IPC: 0.327091 (Simulation time: 0 hr 26 min 45 sec) 
Heartbeat CPU 0 instructions: 58000001 cycles: 53772604 heartbeat IPC: 0.305488 cumulative IPC: 0.324225 (Simulation time: 0 hr 27 min 20 sec) 
Heartbeat CPU 0 instructions: 59000001 cycles: 57385574 heartbeat IPC: 0.276781 cumulative IPC: 0.318165 (Simulation time: 0 hr 27 min 54 sec) 
Heartbeat CPU 0 instructions: 60000000 cycles: 60646839 heartbeat IPC: 0.306629 cumulative IPC: 0.316973 (Simulation time: 0 hr 28 min 27 sec) 
Heartbeat CPU 0 instructions: 61000001 cycles: 63961892 heartbeat IPC: 0.301655 cumulative IPC: 0.315516 (Simulation time: 0 hr 29 min 0 sec) 
Heartbeat CPU 0 instructions: 62000000 cycles: 67625415 heartbeat IPC: 0.272961 cumulative IPC: 0.31147 (Simulation time: 0 hr 29 min 37 sec) 
Heartbeat CPU 0 instructions: 63000001 cycles: 70706951 heartbeat IPC: 0.324514 cumulative IPC: 0.312436 (Simulation time: 0 hr 30 min 14 sec) 
Heartbeat CPU 0 instructions: 64000000 cycles: 73767044 heartbeat IPC: 0.326787 cumulative IPC: 0.313419 (Simulation time: 0 hr 30 min 47 sec) 
Heartbeat CPU 0 instructions: 65000001 cycles: 76815426 heartbeat IPC: 0.328043 cumulative IPC: 0.314353 (Simulation time: 0 hr 31 min 19 sec) 
Heartbeat CPU 0 instructions: 66000002 cycles: 81408793 heartbeat IPC: 0.217705 cumulative IPC: 0.305866 (Simulation time: 0 hr 31 min 59 sec) 
Heartbeat CPU 0 instructions: 67000001 cycles: 83083201 heartbeat IPC: 0.597225 cumulative IPC: 0.314903 (Simulation time: 0 hr 32 min 23 sec) 
Heartbeat CPU 0 instructions: 68000000 cycles: 84206594 heartbeat IPC: 0.89016 cumulative IPC: 0.32663 (Simulation time: 0 hr 32 min 45 sec) 
Heartbeat CPU 0 instructions: 69000003 cycles: 85348608 heartbeat IPC: 0.875649 cumulative IPC: 0.337776 (Simulation time: 0 hr 33 min 7 sec) 
Heartbeat CPU 0 instructions: 70000000 cycles: 86468861 heartbeat IPC: 0.892653 cumulative IPC: 0.348611 (Simulation time: 0 hr 33 min 30 sec) 
Heartbeat CPU 0 instructions: 71000001 cycles: 87639936 heartbeat IPC: 0.853917 cumulative IPC: 0.35872 (Simulation time: 0 hr 33 min 52 sec) 
Heartbeat CPU 0 instructions: 72000000 cycles: 91280992 heartbeat IPC: 0.274645 cumulative IPC: 0.353797 (Simulation time: 0 hr 34 min 24 sec) 
Heartbeat CPU 0 instructions: 73000000 cycles: 95019926 heartbeat IPC: 0.267456 cumulative IPC: 0.3489 (Simulation time: 0 hr 35 min 1 sec) 
Heartbeat CPU 0 instructions: 74000001 cycles: 98701036 heartbeat IPC: 0.271657 cumulative IPC: 0.344814 (Simulation time: 0 hr 35 min 35 sec) 
Heartbeat CPU 0 instructions: 75000001 cycles: 101826856 heartbeat IPC: 0.319916 cumulative IPC: 0.343744 (Simulation time: 0 hr 36 min 5 sec) 
Heartbeat CPU 0 instructions: 76000000 cycles: 104866651 heartbeat IPC: 0.328969 cumulative IPC: 0.343152 (Simulation time: 0 hr 36 min 36 sec) 
Heartbeat CPU 0 instructions: 77000000 cycles: 107939256 heartbeat IPC: 0.325457 cumulative IPC: 0.342462 (Simulation time: 0 hr 37 min 6 sec) 
Heartbeat CPU 0 instructions: 78000001 cycles: 111015375 heartbeat IPC: 0.325085 cumulative IPC: 0.341809 (Simulation time: 0 hr 37 min 41 sec) 
Heartbeat CPU 0 instructions: 79000001 cycles: 114092846 heartbeat IPC: 0.324942 cumulative IPC: 0.341199 (Simulation time: 0 hr 38 min 12 sec) 
Heartbeat CPU 0 instructions: 80000000 cycles: 117142929 heartbeat IPC: 0.32786 cumulative IPC: 0.340737 (Simulation time: 0 hr 38 min 41 sec) 
Heartbeat CPU 0 instructions: 81000002 cycles: 120239640 heartbeat IPC: 0.322924 cumulative IPC: 0.340131 (Simulation time: 0 hr 39 min 12 sec) 
Heartbeat CPU 0 instructions: 82000001 cycles: 123286193 heartbeat IPC: 0.32824 cumulative IPC: 0.339747 (Simulation time: 0 hr 39 min 43 sec) 
Heartbeat CPU 0 instructions: 83000002 cycles: 126386563 heartbeat IPC: 0.322542 cumulative IPC: 0.339198 (Simulation time: 0 hr 40 min 12 sec) 
Heartbeat CPU 0 instructions: 84000000 cycles: 129512041 heartbeat IPC: 0.31995 cumulative IPC: 0.338599 (Simulation time: 0 hr 40 min 43 sec) 
Heartbeat CPU 0 instructions: 85000002 cycles: 133188371 heartbeat IPC: 0.272011 cumulative IPC: 0.336248 (Simulation time: 0 hr 41 min 22 sec) 
Heartbeat CPU 0 instructions: 86000002 cycles: 136847692 heartbeat IPC: 0.273275 cumulative IPC: 0.334109 (Simulation time: 0 hr 41 min 56 sec) 
Heartbeat CPU 0 instructions: 87000000 cycles: 140127529 heartbeat IPC: 0.304893 cumulative IPC: 0.333246 (Simulation time: 0 hr 42 min 28 sec) 
Heartbeat CPU 0 instructions: 88000000 cycles: 143417364 heartbeat IPC: 0.303967 cumulative IPC: 0.332403 (Simulation time: 0 hr 42 min 58 sec) 
Heartbeat CPU 0 instructions: 89000002 cycles: 146797566 heartbeat IPC: 0.295841 cumulative IPC: 0.331353 (Simulation time: 0 hr 43 min 28 sec) 
Heartbeat CPU 0 instructions: 90000001 cycles: 149854206 heartbeat IPC: 0.327156 cumulative IPC: 0.331247 (Simulation time: 0 hr 43 min 59 sec) 
Heartbeat CPU 0 instructions: 91000001 cycles: 152943829 heartbeat IPC: 0.323664 cumulative IPC: 0.331058 (Simulation time: 0 hr 44 min 34 sec) 
Heartbeat CPU 0 instructions: 92000000 cycles: 156089179 heartbeat IPC: 0.317929 cumulative IPC: 0.330733 (Simulation time: 0 hr 45 min 8 sec) 
Heartbeat CPU 0 instructions: 93000000 cycles: 159172322 heartbeat IPC: 0.324344 cumulative IPC: 0.330581 (Simulation time: 0 hr 45 min 42 sec) 
Heartbeat CPU 0 instructions: 94000000 cycles: 164234290 heartbeat IPC: 0.197552 cumulative IPC: 0.325598 (Simulation time: 0 hr 46 min 22 sec) 
Heartbeat CPU 0 instructions: 95000000 cycles: 165409082 heartbeat IPC: 0.851215 cumulative IPC: 0.330128 (Simulation time: 0 hr 46 min 47 sec) 
Heartbeat CPU 0 instructions: 96000000 cycles: 166552085 heartbeat IPC: 0.874888 cumulative IPC: 0.334658 (Simulation time: 0 hr 47 min 12 sec) 
Heartbeat CPU 0 instructions: 97000002 cycles: 167670784 heartbeat IPC: 0.893897 cumulative IPC: 0.339173 (Simulation time: 0 hr 47 min 34 sec) 
Heartbeat CPU 0 instructions: 98000001 cycles: 168812729 heartbeat IPC: 0.875698 cumulative IPC: 0.343558 (Simulation time: 0 hr 47 min 57 sec) 
Heartbeat CPU 0 instructions: 99000002 cycles: 170801832 heartbeat IPC: 0.50274 cumulative IPC: 0.345793 (Simulation time: 0 hr 48 min 26 sec) 
Heartbeat CPU 0 instructions: 100000000 cycles: 174555216 heartbeat IPC: 0.266426 cumulative IPC: 0.343745 (Simulation time: 0 hr 49 min 3 sec) 
Heartbeat CPU 0 instructions: 101000002 cycles: 177895110 heartbeat IPC: 0.299411 cumulative IPC: 0.342749 (Simulation time: 0 hr 49 min 35 sec) 
Heartbeat CPU 0 instructions: 102000001 cycles: 181166984 heartbeat IPC: 0.305635 cumulative IPC: 0.341951 (Simulation time: 0 hr 50 min 5 sec) 
Heartbeat CPU 0 instructions: 103000000 cycles: 184232326 heartbeat IPC: 0.326228 cumulative IPC: 0.34164 (Simulation time: 0 hr 50 min 35 sec) 
Heartbeat CPU 0 instructions: 104000000 cycles: 187326801 heartbeat IPC: 0.323157 cumulative IPC: 0.341279 (Simulation time: 0 hr 51 min 5 sec) 
Heartbeat CPU 0 instructions: 105000001 cycles: 190403605 heartbeat IPC: 0.325013 cumulative IPC: 0.340968 (Simulation time: 0 hr 51 min 38 sec) 
Heartbeat CPU 0 instructions: 106000000 cycles: 193553790 heartbeat IPC: 0.317441 cumulative IPC: 0.340518 (Simulation time: 0 hr 52 min 8 sec) 
Heartbeat CPU 0 instructions: 107000002 cycles: 196619362 heartbeat IPC: 0.326204 cumulative IPC: 0.340256 (Simulation time: 0 hr 52 min 41 sec) 
Heartbeat CPU 0 instructions: 108000000 cycles: 199688871 heartbeat IPC: 0.325784 cumulative IPC: 0.339996 (Simulation time: 0 hr 53 min 9 sec) 
Heartbeat CPU 0 instructions: 109000002 cycles: 202754584 heartbeat IPC: 0.326189 cumulative IPC: 0.339752 (Simulation time: 0 hr 53 min 37 sec) 
Heartbeat CPU 0 instructions: 110000001 cycles: 205862789 heartbeat IPC: 0.321729 cumulative IPC: 0.339435 (Simulation time: 0 hr 54 min 6 sec) 
Heartbeat CPU 0 instructions: 111000001 cycles: 209145091 heartbeat IPC: 0.304664 cumulative IPC: 0.338801 (Simulation time: 0 hr 54 min 38 sec) 
Heartbeat CPU 0 instructions: 112000000 cycles: 212847789 heartbeat IPC: 0.270073 cumulative IPC: 0.337416 (Simulation time: 0 hr 55 min 12 sec) 
Heartbeat CPU 0 instructions: 113000002 cycles: 216159027 heartbeat IPC: 0.302002 cumulative IPC: 0.336789 (Simulation time: 0 hr 55 min 46 sec) 
Heartbeat CPU 0 instructions: 114000001 cycles: 219824679 heartbeat IPC: 0.272803 cumulative IPC: 0.335559 (Simulation time: 0 hr 56 min 21 sec) 
Heartbeat CPU 0 instructions: 115000001 cycles: 223220077 heartbeat IPC: 0.294516 cumulative IPC: 0.334841 (Simulation time: 0 hr 56 min 55 sec) 
Heartbeat CPU 0 instructions: 116000000 cycles: 226360503 heartbeat IPC: 0.318428 cumulative IPC: 0.33458 (Simulation time: 0 hr 57 min 27 sec) 
Heartbeat CPU 0 instructions: 117000001 cycles: 229442553 heartbeat IPC: 0.32446 cumulative IPC: 0.334424 (Simulation time: 0 hr 58 min 0 sec) 
Heartbeat CPU 0 instructions: 118000000 cycles: 232608209 heartbeat IPC: 0.31589 cumulative IPC: 0.334136 (Simulation time: 0 hr 58 min 35 sec) 
Heartbeat CPU 0 instructions: 119000001 cycles: 235710945 heartbeat IPC: 0.322297 cumulative IPC: 0.333958 (Simulation time: 0 hr 59 min 8 sec) 
Heartbeat CPU 0 instructions: 120000000 cycles: 238804960 heartbeat IPC: 0.323204 cumulative IPC: 0.3338 (Simulation time: 0 hr 59 min 39 sec) 
Heartbeat CPU 0 instructions: 121000003 cycles: 241914538 heartbeat IPC: 0.321588 cumulative IPC: 0.333621 (Simulation time: 1 hr 0 min 12 sec) 
Heartbeat CPU 0 instructions: 122000000 cycles: 247011744 heartbeat IPC: 0.196185 cumulative IPC: 0.330407 (Simulation time: 1 hr 0 min 57 sec) 
Heartbeat CPU 0 instructions: 123000001 cycles: 248172763 heartbeat IPC: 0.861313 cumulative IPC: 0.33322 (Simulation time: 1 hr 1 min 20 sec) 
Heartbeat CPU 0 instructions: 124000000 cycles: 249294736 heartbeat IPC: 0.891286 cumulative IPC: 0.336064 (Simulation time: 1 hr 1 min 44 sec) 
Heartbeat CPU 0 instructions: 125000000 cycles: 250436375 heartbeat IPC: 0.875934 cumulative IPC: 0.338848 (Simulation time: 1 hr 2 min 8 sec) 
Heartbeat CPU 0 instructions: 126000001 cycles: 251634182 heartbeat IPC: 0.83486 cumulative IPC: 0.341518 (Simulation time: 1 hr 2 min 33 sec) 
Heartbeat CPU 0 instructions: 127000000 cycles: 253776480 heartbeat IPC: 0.466788 cumulative IPC: 0.342713 (Simulation time: 1 hr 3 min 1 sec) 
Heartbeat CPU 0 instructions: 128000000 cycles: 257533581 heartbeat IPC: 0.266163 cumulative IPC: 0.341453 (Simulation time: 1 hr 3 min 36 sec) 
Heartbeat CPU 0 instructions: 129000001 cycles: 260936555 heartbeat IPC: 0.293861 cumulative IPC: 0.340755 (Simulation time: 1 hr 4 min 8 sec) 
Heartbeat CPU 0 instructions: 130000000 cycles: 264014026 heartbeat IPC: 0.324942 cumulative IPC: 0.340548 (Simulation time: 1 hr 4 min 40 sec) 
Heartbeat CPU 0 instructions: 131000001 cycles: 267121480 heartbeat IPC: 0.321807 cumulative IPC: 0.340303 (Simulation time: 1 hr 5 min 8 sec) 
Heartbeat CPU 0 instructions: 132000000 cycles: 270256541 heartbeat IPC: 0.318973 cumulative IPC: 0.340026 (Simulation time: 1 hr 5 min 39 sec) 
Heartbeat CPU 0 instructions: 133000000 cycles: 273398569 heartbeat IPC: 0.318266 cumulative IPC: 0.339746 (Simulation time: 1 hr 6 min 12 sec) 
Heartbeat CPU 0 instructions: 134000000 cycles: 276498708 heartbeat IPC: 0.322566 cumulative IPC: 0.339531 (Simulation time: 1 hr 6 min 42 sec) 
Heartbeat CPU 0 instructions: 135000000 cycles: 279588752 heartbeat IPC: 0.32362 cumulative IPC: 0.339334 (Simulation time: 1 hr 7 min 14 sec) 
Heartbeat CPU 0 instructions: 136000000 cycles: 282672851 heartbeat IPC: 0.324244 cumulative IPC: 0.339151 (Simulation time: 1 hr 7 min 42 sec) 
Heartbeat CPU 0 instructions: 137000000 cycles: 285751306 heartbeat IPC: 0.324838 cumulative IPC: 0.338979 (Simulation time: 1 hr 8 min 10 sec) 
Heartbeat CPU 0 instructions: 138000001 cycles: 289340290 heartbeat IPC: 0.278631 cumulative IPC: 0.338147 (Simulation time: 1 hr 8 min 41 sec) 
Heartbeat CPU 0 instructions: 139000000 cycles: 292261165 heartbeat IPC: 0.342363 cumulative IPC: 0.338194 (Simulation time: 1 hr 9 min 11 sec) 
Heartbeat CPU 0 instructions: 140000000 cycles: 295969399 heartbeat IPC: 0.26967 cumulative IPC: 0.337242 (Simulation time: 1 hr 9 min 42 sec) 
Heartbeat CPU 0 instructions: 141000002 cycles: 299674263 heartbeat IPC: 0.269916 cumulative IPC: 0.33632 (Simulation time: 1 hr 10 min 11 sec) 
Heartbeat CPU 0 instructions: 142000001 cycles: 303266742 heartbeat IPC: 0.278359 cumulative IPC: 0.33556 (Simulation time: 1 hr 10 min 39 sec) 
Heartbeat CPU 0 instructions: 143000001 cycles: 306424075 heartbeat IPC: 0.316723 cumulative IPC: 0.335346 (Simulation time: 1 hr 11 min 7 sec) 
Heartbeat CPU 0 instructions: 144000000 cycles: 309581510 heartbeat IPC: 0.316712 cumulative IPC: 0.335136 (Simulation time: 1 hr 11 min 37 sec) 
Heartbeat CPU 0 instructions: 145000001 cycles: 312687669 heartbeat IPC: 0.321941 cumulative IPC: 0.334991 (Simulation time: 1 hr 12 min 1 sec) 
Heartbeat CPU 0 instructions: 146000000 cycles: 315820234 heartbeat IPC: 0.319227 cumulative IPC: 0.334819 (Simulation time: 1 hr 12 min 26 sec) 
Heartbeat CPU 0 instructions: 147000001 cycles: 318950560 heartbeat IPC: 0.319456 cumulative IPC: 0.334653 (Simulation time: 1 hr 12 min 49 sec) 
Heartbeat CPU 0 instructions: 148000000 cycles: 322071551 heartbeat IPC: 0.320411 cumulative IPC: 0.334502 (Simulation time: 1 hr 13 min 13 sec) 
Heartbeat CPU 0 instructions: 149000002 cycles: 325167353 heartbeat IPC: 0.323019 cumulative IPC: 0.334382 (Simulation time: 1 hr 13 min 37 sec) 
Heartbeat CPU 0 instructions: 150000001 cycles: 330291466 heartbeat IPC: 0.195156 cumulative IPC: 0.332013 (Simulation time: 1 hr 14 min 7 sec) 
Finished CPU 0 instructions: 100000000 cycles: 301193090 cummulative IPC: 0.332013 (Simulation time: 1 hr 14 min 7 sec) 

ChampSim completed all CPUs

Region of Interest Statistics

CPU 0 cummulative IPC: 0.332013 instructions: 100000000 cycles: 301193090
LLC TOTAL     ACCESS:    4947477  HIT:     857804  MISS:    4089673
LLC LOAD      ACCESS:    2351532  HIT:     290448  MISS:    2061084
LLC RFO       ACCESS:      24996  HIT:      14469  MISS:      10527
LLC PREFETCH  ACCESS:    2489647  HIT:     478671  MISS:    2010976
LLC WRITEBACK ACCESS:      81302  HIT:      74216  MISS:       7086
OPTgen accesses: 220608
OPTgen hits: 2486
OPTgen hit rate: 1.12689


