
*** ChampSim Multicore Out-of-Order Simulator ***

Warmup Instructions: 50000000
Simulation Instructions: 100000000
Configuration: 2
Number of CPUs: 1
LLC sets: 2048
LLC ways: 16
Off-chip DRAM Channels: 1 Width: 64-bit Data Rate: 1600 MT/s

CPU 0 runs /datasets/cs240c-wi22-a00-public/data/Assignment2-gz/soplex_66B.trace.gz
CPU 0 L1D next line prefetcher
CPU 0 L2C IP-based stride prefetcher
Initialize Hawkeye state
Heartbeat CPU 0 instructions: 1000003 cycles: 415054 heartbeat IPC: 2.40933 cumulative IPC: 2.40933 (Simulation time: 0 hr 0 min 32 sec) 
Heartbeat CPU 0 instructions: 2000003 cycles: 837360 heartbeat IPC: 2.36795 cumulative IPC: 2.38846 (Simulation time: 0 hr 1 min 8 sec) 
Heartbeat CPU 0 instructions: 3000003 cycles: 1242529 heartbeat IPC: 2.46811 cumulative IPC: 2.41443 (Simulation time: 0 hr 1 min 45 sec) 
Heartbeat CPU 0 instructions: 4000000 cycles: 1626641 heartbeat IPC: 2.6034 cumulative IPC: 2.45906 (Simulation time: 0 hr 2 min 13 sec) 
Heartbeat CPU 0 instructions: 5000000 cycles: 2039258 heartbeat IPC: 2.42355 cumulative IPC: 2.45187 (Simulation time: 0 hr 2 min 42 sec) 
Heartbeat CPU 0 instructions: 6000000 cycles: 2511398 heartbeat IPC: 2.11802 cumulative IPC: 2.38911 (Simulation time: 0 hr 3 min 13 sec) 
Heartbeat CPU 0 instructions: 7000002 cycles: 2883832 heartbeat IPC: 2.68504 cumulative IPC: 2.42733 (Simulation time: 0 hr 3 min 45 sec) 
Heartbeat CPU 0 instructions: 8000000 cycles: 3309365 heartbeat IPC: 2.34999 cumulative IPC: 2.41738 (Simulation time: 0 hr 4 min 23 sec) 
Heartbeat CPU 0 instructions: 9000001 cycles: 3747843 heartbeat IPC: 2.28062 cumulative IPC: 2.40138 (Simulation time: 0 hr 4 min 52 sec) 
Heartbeat CPU 0 instructions: 10000002 cycles: 4159995 heartbeat IPC: 2.42629 cumulative IPC: 2.40385 (Simulation time: 0 hr 5 min 26 sec) 
Heartbeat CPU 0 instructions: 11000001 cycles: 4571640 heartbeat IPC: 2.42928 cumulative IPC: 2.40614 (Simulation time: 0 hr 6 min 0 sec) 
Heartbeat CPU 0 instructions: 12000000 cycles: 4955574 heartbeat IPC: 2.60461 cumulative IPC: 2.42152 (Simulation time: 0 hr 6 min 30 sec) 
Heartbeat CPU 0 instructions: 13000003 cycles: 5354229 heartbeat IPC: 2.50844 cumulative IPC: 2.42799 (Simulation time: 0 hr 7 min 0 sec) 
Heartbeat CPU 0 instructions: 14000002 cycles: 5843939 heartbeat IPC: 2.04202 cumulative IPC: 2.39564 (Simulation time: 0 hr 7 min 32 sec) 
Heartbeat CPU 0 instructions: 15000003 cycles: 6218637 heartbeat IPC: 2.66882 cumulative IPC: 2.4121 (Simulation time: 0 hr 8 min 3 sec) 
Heartbeat CPU 0 instructions: 16000000 cycles: 6626815 heartbeat IPC: 2.4499 cumulative IPC: 2.41443 (Simulation time: 0 hr 8 min 37 sec) 
Heartbeat CPU 0 instructions: 17000001 cycles: 7081022 heartbeat IPC: 2.20164 cumulative IPC: 2.40078 (Simulation time: 0 hr 9 min 9 sec) 
Heartbeat CPU 0 instructions: 18000003 cycles: 7490146 heartbeat IPC: 2.44425 cumulative IPC: 2.40316 (Simulation time: 0 hr 9 min 44 sec) 
Heartbeat CPU 0 instructions: 19000002 cycles: 7908541 heartbeat IPC: 2.39008 cumulative IPC: 2.40247 (Simulation time: 0 hr 10 min 17 sec) 
Heartbeat CPU 0 instructions: 20000000 cycles: 8292510 heartbeat IPC: 2.60437 cumulative IPC: 2.41181 (Simulation time: 0 hr 10 min 48 sec) 
Heartbeat CPU 0 instructions: 21000000 cycles: 8686408 heartbeat IPC: 2.53873 cumulative IPC: 2.41757 (Simulation time: 0 hr 11 min 18 sec) 
Heartbeat CPU 0 instructions: 22000000 cycles: 9180838 heartbeat IPC: 2.02253 cumulative IPC: 2.3963 (Simulation time: 0 hr 11 min 53 sec) 
Heartbeat CPU 0 instructions: 23000002 cycles: 9554176 heartbeat IPC: 2.67854 cumulative IPC: 2.40732 (Simulation time: 0 hr 12 min 29 sec) 
Heartbeat CPU 0 instructions: 24000000 cycles: 9945498 heartbeat IPC: 2.55544 cumulative IPC: 2.41315 (Simulation time: 0 hr 13 min 1 sec) 
Heartbeat CPU 0 instructions: 25000003 cycles: 10424087 heartbeat IPC: 2.08948 cumulative IPC: 2.39829 (Simulation time: 0 hr 13 min 34 sec) 
Heartbeat CPU 0 instructions: 26000001 cycles: 10822890 heartbeat IPC: 2.5075 cumulative IPC: 2.40232 (Simulation time: 0 hr 14 min 7 sec) 
Heartbeat CPU 0 instructions: 27000002 cycles: 11241441 heartbeat IPC: 2.3892 cumulative IPC: 2.40183 (Simulation time: 0 hr 14 min 47 sec) 
Heartbeat CPU 0 instructions: 28000000 cycles: 11625632 heartbeat IPC: 2.60287 cumulative IPC: 2.40847 (Simulation time: 0 hr 15 min 18 sec) 
Heartbeat CPU 0 instructions: 29000000 cycles: 12015152 heartbeat IPC: 2.56726 cumulative IPC: 2.41362 (Simulation time: 0 hr 15 min 49 sec) 
Heartbeat CPU 0 instructions: 30000003 cycles: 12515225 heartbeat IPC: 1.99971 cumulative IPC: 2.39708 (Simulation time: 0 hr 16 min 19 sec) 
Heartbeat CPU 0 instructions: 31000001 cycles: 12887544 heartbeat IPC: 2.68586 cumulative IPC: 2.40542 (Simulation time: 0 hr 16 min 54 sec) 
Heartbeat CPU 0 instructions: 32000000 cycles: 13267478 heartbeat IPC: 2.63203 cumulative IPC: 2.41191 (Simulation time: 0 hr 17 min 26 sec) 
Heartbeat CPU 0 instructions: 33000002 cycles: 13690713 heartbeat IPC: 2.36276 cumulative IPC: 2.41039 (Simulation time: 0 hr 18 min 1 sec) 
Heartbeat CPU 0 instructions: 34000003 cycles: 14102274 heartbeat IPC: 2.42978 cumulative IPC: 2.41096 (Simulation time: 0 hr 18 min 29 sec) 
Heartbeat CPU 0 instructions: 35000003 cycles: 14513334 heartbeat IPC: 2.43273 cumulative IPC: 2.41158 (Simulation time: 0 hr 19 min 6 sec) 
Heartbeat CPU 0 instructions: 36000000 cycles: 14897086 heartbeat IPC: 2.60584 cumulative IPC: 2.41658 (Simulation time: 0 hr 19 min 37 sec) 
Heartbeat CPU 0 instructions: 37000000 cycles: 15295086 heartbeat IPC: 2.51256 cumulative IPC: 2.41908 (Simulation time: 0 hr 20 min 8 sec) 
Heartbeat CPU 0 instructions: 38000000 cycles: 15782433 heartbeat IPC: 2.05193 cumulative IPC: 2.40774 (Simulation time: 0 hr 20 min 39 sec) 
Heartbeat CPU 0 instructions: 39000002 cycles: 16153953 heartbeat IPC: 2.69165 cumulative IPC: 2.41427 (Simulation time: 0 hr 21 min 13 sec) 
Heartbeat CPU 0 instructions: 40000000 cycles: 16563232 heartbeat IPC: 2.44332 cumulative IPC: 2.41499 (Simulation time: 0 hr 21 min 46 sec) 
Heartbeat CPU 0 instructions: 41000001 cycles: 17017854 heartbeat IPC: 2.19963 cumulative IPC: 2.40923 (Simulation time: 0 hr 22 min 18 sec) 
Heartbeat CPU 0 instructions: 42000001 cycles: 17426951 heartbeat IPC: 2.44441 cumulative IPC: 2.41006 (Simulation time: 0 hr 22 min 49 sec) 
Heartbeat CPU 0 instructions: 43000000 cycles: 17845818 heartbeat IPC: 2.38739 cumulative IPC: 2.40953 (Simulation time: 0 hr 23 min 29 sec) 
Heartbeat CPU 0 instructions: 44000000 cycles: 18229533 heartbeat IPC: 2.6061 cumulative IPC: 2.41367 (Simulation time: 0 hr 24 min 2 sec) 
Heartbeat CPU 0 instructions: 45000003 cycles: 18622999 heartbeat IPC: 2.54152 cumulative IPC: 2.41637 (Simulation time: 0 hr 24 min 29 sec) 
Heartbeat CPU 0 instructions: 46000001 cycles: 19119169 heartbeat IPC: 2.01543 cumulative IPC: 2.40596 (Simulation time: 0 hr 24 min 59 sec) 
Heartbeat CPU 0 instructions: 47000001 cycles: 19493617 heartbeat IPC: 2.6706 cumulative IPC: 2.41105 (Simulation time: 0 hr 25 min 36 sec) 
Heartbeat CPU 0 instructions: 48000000 cycles: 19883669 heartbeat IPC: 2.56376 cumulative IPC: 2.41404 (Simulation time: 0 hr 26 min 10 sec) 
Heartbeat CPU 0 instructions: 49000000 cycles: 20539901 heartbeat IPC: 1.52385 cumulative IPC: 2.3856 (Simulation time: 0 hr 26 min 48 sec) 
Heartbeat CPU 0 instructions: 50000003 cycles: 21064954 heartbeat IPC: 1.90458 cumulative IPC: 2.37361 (Simulation time: 0 hr 27 min 26 sec) 

Warmup complete CPU 0 instructions: 50000003 cycles: 21064954 (Simulation time: 0 hr 27 min 26 sec) 

Heartbeat CPU 0 instructions: 51000002 cycles: 23501571 heartbeat IPC: 0.410405 cumulative IPC: 0.410405 (Simulation time: 0 hr 28 min 15 sec) 
Heartbeat CPU 0 instructions: 52000000 cycles: 27388809 heartbeat IPC: 0.257252 cumulative IPC: 0.316262 (Simulation time: 0 hr 29 min 0 sec) 
Heartbeat CPU 0 instructions: 53000003 cycles: 30091284 heartbeat IPC: 0.370032 cumulative IPC: 0.332361 (Simulation time: 0 hr 29 min 44 sec) 
Heartbeat CPU 0 instructions: 54000000 cycles: 32552990 heartbeat IPC: 0.406221 cumulative IPC: 0.348188 (Simulation time: 0 hr 30 min 32 sec) 
Heartbeat CPU 0 instructions: 55000002 cycles: 36042233 heartbeat IPC: 0.286596 cumulative IPC: 0.333839 (Simulation time: 0 hr 31 min 21 sec) 
Heartbeat CPU 0 instructions: 56000000 cycles: 39313191 heartbeat IPC: 0.30572 cumulative IPC: 0.328799 (Simulation time: 0 hr 32 min 2 sec) 
Heartbeat CPU 0 instructions: 57000003 cycles: 41896943 heartbeat IPC: 0.387035 cumulative IPC: 0.336022 (Simulation time: 0 hr 32 min 40 sec) 
Heartbeat CPU 0 instructions: 58000002 cycles: 44111948 heartbeat IPC: 0.451466 cumulative IPC: 0.347117 (Simulation time: 0 hr 33 min 21 sec) 
Heartbeat CPU 0 instructions: 59000002 cycles: 45679949 heartbeat IPC: 0.637755 cumulative IPC: 0.365631 (Simulation time: 0 hr 34 min 1 sec) 
Heartbeat CPU 0 instructions: 60000000 cycles: 47105869 heartbeat IPC: 0.7013 cumulative IPC: 0.384011 (Simulation time: 0 hr 34 min 37 sec) 
Heartbeat CPU 0 instructions: 61000002 cycles: 49835647 heartbeat IPC: 0.366331 cumulative IPC: 0.382333 (Simulation time: 0 hr 35 min 19 sec) 
Heartbeat CPU 0 instructions: 62000002 cycles: 52439284 heartbeat IPC: 0.384078 cumulative IPC: 0.382478 (Simulation time: 0 hr 36 min 13 sec) 
Heartbeat CPU 0 instructions: 63000002 cycles: 54450328 heartbeat IPC: 0.497254 cumulative IPC: 0.389392 (Simulation time: 0 hr 36 min 56 sec) 
Heartbeat CPU 0 instructions: 64000000 cycles: 56935419 heartbeat IPC: 0.402399 cumulative IPC: 0.390293 (Simulation time: 0 hr 37 min 31 sec) 
Heartbeat CPU 0 instructions: 65000000 cycles: 60403280 heartbeat IPC: 0.288362 cumulative IPC: 0.381307 (Simulation time: 0 hr 38 min 18 sec) 
Heartbeat CPU 0 instructions: 66000001 cycles: 61693006 heartbeat IPC: 0.775359 cumulative IPC: 0.393817 (Simulation time: 0 hr 38 min 46 sec) 
Heartbeat CPU 0 instructions: 67000000 cycles: 62952733 heartbeat IPC: 0.793822 cumulative IPC: 0.405846 (Simulation time: 0 hr 39 min 17 sec) 
Heartbeat CPU 0 instructions: 68000000 cycles: 66419467 heartbeat IPC: 0.288456 cumulative IPC: 0.396873 (Simulation time: 0 hr 40 min 6 sec) 
Heartbeat CPU 0 instructions: 69000000 cycles: 69125612 heartbeat IPC: 0.369529 cumulative IPC: 0.395334 (Simulation time: 0 hr 40 min 41 sec) 
Heartbeat CPU 0 instructions: 70000003 cycles: 71644831 heartbeat IPC: 0.39695 cumulative IPC: 0.395414 (Simulation time: 0 hr 41 min 15 sec) 
Heartbeat CPU 0 instructions: 71000000 cycles: 74179161 heartbeat IPC: 0.39458 cumulative IPC: 0.395374 (Simulation time: 0 hr 42 min 3 sec) 
Heartbeat CPU 0 instructions: 72000000 cycles: 77041990 heartbeat IPC: 0.349305 cumulative IPC: 0.393018 (Simulation time: 0 hr 42 min 49 sec) 
Heartbeat CPU 0 instructions: 73000001 cycles: 79831031 heartbeat IPC: 0.358547 cumulative IPC: 0.391382 (Simulation time: 0 hr 43 min 31 sec) 
Heartbeat CPU 0 instructions: 74000000 cycles: 81755227 heartbeat IPC: 0.519697 cumulative IPC: 0.39545 (Simulation time: 0 hr 44 min 2 sec) 
Heartbeat CPU 0 instructions: 75000002 cycles: 83006907 heartbeat IPC: 0.798928 cumulative IPC: 0.403604 (Simulation time: 0 hr 44 min 33 sec) 
Heartbeat CPU 0 instructions: 76000000 cycles: 86304532 heartbeat IPC: 0.303248 cumulative IPC: 0.398531 (Simulation time: 0 hr 45 min 14 sec) 
Heartbeat CPU 0 instructions: 77000000 cycles: 88773423 heartbeat IPC: 0.40504 cumulative IPC: 0.398768 (Simulation time: 0 hr 45 min 50 sec) 
Heartbeat CPU 0 instructions: 78000003 cycles: 91332509 heartbeat IPC: 0.390766 cumulative IPC: 0.398477 (Simulation time: 0 hr 46 min 23 sec) 
Heartbeat CPU 0 instructions: 79000001 cycles: 94578878 heartbeat IPC: 0.308036 cumulative IPC: 0.394483 (Simulation time: 0 hr 47 min 10 sec) 
Heartbeat CPU 0 instructions: 80000000 cycles: 97425304 heartbeat IPC: 0.351317 cumulative IPC: 0.392874 (Simulation time: 0 hr 47 min 50 sec) 
Heartbeat CPU 0 instructions: 81000003 cycles: 100600742 heartbeat IPC: 0.314918 cumulative IPC: 0.389762 (Simulation time: 0 hr 48 min 37 sec) 
Heartbeat CPU 0 instructions: 82000000 cycles: 102283625 heartbeat IPC: 0.594217 cumulative IPC: 0.393998 (Simulation time: 0 hr 49 min 5 sec) 
Heartbeat CPU 0 instructions: 83000001 cycles: 103538229 heartbeat IPC: 0.797065 cumulative IPC: 0.40013 (Simulation time: 0 hr 49 min 31 sec) 
Heartbeat CPU 0 instructions: 84000000 cycles: 106893369 heartbeat IPC: 0.29805 cumulative IPC: 0.396139 (Simulation time: 0 hr 50 min 10 sec) 
Heartbeat CPU 0 instructions: 85000000 cycles: 109357431 heartbeat IPC: 0.405834 cumulative IPC: 0.39641 (Simulation time: 0 hr 50 min 41 sec) 
Heartbeat CPU 0 instructions: 86000000 cycles: 112007951 heartbeat IPC: 0.377284 cumulative IPC: 0.395852 (Simulation time: 0 hr 51 min 12 sec) 
Heartbeat CPU 0 instructions: 87000001 cycles: 115231080 heartbeat IPC: 0.310258 cumulative IPC: 0.392923 (Simulation time: 0 hr 52 min 6 sec) 
Heartbeat CPU 0 instructions: 88000000 cycles: 117518223 heartbeat IPC: 0.437226 cumulative IPC: 0.393973 (Simulation time: 0 hr 52 min 43 sec) 
Heartbeat CPU 0 instructions: 89000001 cycles: 120740897 heartbeat IPC: 0.310302 cumulative IPC: 0.391268 (Simulation time: 0 hr 53 min 32 sec) 
Heartbeat CPU 0 instructions: 90000002 cycles: 122007547 heartbeat IPC: 0.789485 cumulative IPC: 0.396265 (Simulation time: 0 hr 54 min 1 sec) 
Heartbeat CPU 0 instructions: 91000000 cycles: 123351835 heartbeat IPC: 0.743887 cumulative IPC: 0.400833 (Simulation time: 0 hr 54 min 29 sec) 
Heartbeat CPU 0 instructions: 92000000 cycles: 126664489 heartbeat IPC: 0.301873 cumulative IPC: 0.397729 (Simulation time: 0 hr 55 min 12 sec) 
Heartbeat CPU 0 instructions: 93000000 cycles: 129336941 heartbeat IPC: 0.374188 cumulative IPC: 0.397148 (Simulation time: 0 hr 55 min 49 sec) 
Heartbeat CPU 0 instructions: 94000001 cycles: 131836648 heartbeat IPC: 0.400047 cumulative IPC: 0.397213 (Simulation time: 0 hr 56 min 21 sec) 
Heartbeat CPU 0 instructions: 95000003 cycles: 135414243 heartbeat IPC: 0.279518 cumulative IPC: 0.393531 (Simulation time: 0 hr 57 min 9 sec) 
Heartbeat CPU 0 instructions: 96000000 cycles: 137339037 heartbeat IPC: 0.519535 cumulative IPC: 0.395617 (Simulation time: 0 hr 57 min 48 sec) 
Heartbeat CPU 0 instructions: 97000003 cycles: 140747939 heartbeat IPC: 0.29335 cumulative IPC: 0.392704 (Simulation time: 0 hr 58 min 35 sec) 
Heartbeat CPU 0 instructions: 98000003 cycles: 142019023 heartbeat IPC: 0.78673 cumulative IPC: 0.396845 (Simulation time: 0 hr 59 min 2 sec) 
Heartbeat CPU 0 instructions: 99000000 cycles: 144421479 heartbeat IPC: 0.416239 cumulative IPC: 0.397223 (Simulation time: 0 hr 59 min 34 sec) 
Heartbeat CPU 0 instructions: 100000000 cycles: 147217758 heartbeat IPC: 0.357618 cumulative IPC: 0.396345 (Simulation time: 1 hr 0 min 14 sec) 
Heartbeat CPU 0 instructions: 101000001 cycles: 149847756 heartbeat IPC: 0.380229 cumulative IPC: 0.396016 (Simulation time: 1 hr 0 min 48 sec) 
Heartbeat CPU 0 instructions: 102000000 cycles: 152554323 heartbeat IPC: 0.369471 cumulative IPC: 0.395469 (Simulation time: 1 hr 1 min 28 sec) 
Heartbeat CPU 0 instructions: 103000002 cycles: 155884495 heartbeat IPC: 0.300285 cumulative IPC: 0.393118 (Simulation time: 1 hr 2 min 19 sec) 
Heartbeat CPU 0 instructions: 104000000 cycles: 157987516 heartbeat IPC: 0.475505 cumulative IPC: 0.394383 (Simulation time: 1 hr 3 min 0 sec) 
Heartbeat CPU 0 instructions: 105000000 cycles: 160351341 heartbeat IPC: 0.423043 cumulative IPC: 0.39487 (Simulation time: 1 hr 3 min 35 sec) 
Heartbeat CPU 0 instructions: 106000001 cycles: 161571459 heartbeat IPC: 0.819594 cumulative IPC: 0.398558 (Simulation time: 1 hr 4 min 1 sec) 
Heartbeat CPU 0 instructions: 107000001 cycles: 164652304 heartbeat IPC: 0.324586 cumulative IPC: 0.396971 (Simulation time: 1 hr 4 min 42 sec) 
Heartbeat CPU 0 instructions: 108000000 cycles: 166931837 heartbeat IPC: 0.438686 cumulative IPC: 0.397623 (Simulation time: 1 hr 5 min 18 sec) 
Heartbeat CPU 0 instructions: 109000003 cycles: 169557781 heartbeat IPC: 0.380817 cumulative IPC: 0.397326 (Simulation time: 1 hr 5 min 49 sec) 
Heartbeat CPU 0 instructions: 110000003 cycles: 172776506 heartbeat IPC: 0.310682 cumulative IPC: 0.395487 (Simulation time: 1 hr 6 min 34 sec) 
Heartbeat CPU 0 instructions: 111000001 cycles: 175025231 heartbeat IPC: 0.444696 cumulative IPC: 0.396206 (Simulation time: 1 hr 7 min 10 sec) 
Heartbeat CPU 0 instructions: 112000000 cycles: 177192669 heartbeat IPC: 0.461374 cumulative IPC: 0.397111 (Simulation time: 1 hr 7 min 50 sec) 
Heartbeat CPU 0 instructions: 113000000 cycles: 180058287 heartbeat IPC: 0.348965 cumulative IPC: 0.396243 (Simulation time: 1 hr 8 min 23 sec) 
Heartbeat CPU 0 instructions: 114000000 cycles: 181342265 heartbeat IPC: 0.77883 cumulative IPC: 0.399308 (Simulation time: 1 hr 8 min 48 sec) 
Heartbeat CPU 0 instructions: 115000003 cycles: 184295968 heartbeat IPC: 0.338559 cumulative IPC: 0.398209 (Simulation time: 1 hr 9 min 28 sec) 
Heartbeat CPU 0 instructions: 116000000 cycles: 186708648 heartbeat IPC: 0.414476 cumulative IPC: 0.398446 (Simulation time: 1 hr 10 min 0 sec) 
Heartbeat CPU 0 instructions: 117000000 cycles: 189405179 heartbeat IPC: 0.370847 cumulative IPC: 0.398003 (Simulation time: 1 hr 10 min 28 sec) 
Heartbeat CPU 0 instructions: 118000003 cycles: 192618598 heartbeat IPC: 0.311196 cumulative IPC: 0.396377 (Simulation time: 1 hr 11 min 8 sec) 
Heartbeat CPU 0 instructions: 119000002 cycles: 194758631 heartbeat IPC: 0.467282 cumulative IPC: 0.397251 (Simulation time: 1 hr 11 min 38 sec) 
Heartbeat CPU 0 instructions: 120000000 cycles: 196675743 heartbeat IPC: 0.521617 cumulative IPC: 0.398609 (Simulation time: 1 hr 12 min 7 sec) 
Heartbeat CPU 0 instructions: 121000000 cycles: 199468470 heartbeat IPC: 0.358073 cumulative IPC: 0.397974 (Simulation time: 1 hr 12 min 38 sec) 
Heartbeat CPU 0 instructions: 122000000 cycles: 200697565 heartbeat IPC: 0.813607 cumulative IPC: 0.400818 (Simulation time: 1 hr 12 min 57 sec) 
Heartbeat CPU 0 instructions: 123000000 cycles: 203390632 heartbeat IPC: 0.371324 cumulative IPC: 0.400382 (Simulation time: 1 hr 13 min 23 sec) 
Heartbeat CPU 0 instructions: 124000000 cycles: 205959171 heartbeat IPC: 0.389326 cumulative IPC: 0.400229 (Simulation time: 1 hr 13 min 50 sec) 
Heartbeat CPU 0 instructions: 125000001 cycles: 208516567 heartbeat IPC: 0.391023 cumulative IPC: 0.400103 (Simulation time: 1 hr 14 min 12 sec) 
Heartbeat CPU 0 instructions: 126000000 cycles: 211305944 heartbeat IPC: 0.358503 cumulative IPC: 0.399493 (Simulation time: 1 hr 14 min 38 sec) 
Heartbeat CPU 0 instructions: 127000002 cycles: 214629363 heartbeat IPC: 0.300896 cumulative IPC: 0.3978 (Simulation time: 1 hr 15 min 10 sec) 
Heartbeat CPU 0 instructions: 128000000 cycles: 217247807 heartbeat IPC: 0.381905 cumulative IPC: 0.397588 (Simulation time: 1 hr 15 min 40 sec) 
Heartbeat CPU 0 instructions: 129000000 cycles: 219459132 heartbeat IPC: 0.452218 cumulative IPC: 0.398197 (Simulation time: 1 hr 16 min 2 sec) 
Heartbeat CPU 0 instructions: 130000000 cycles: 220702086 heartbeat IPC: 0.804535 cumulative IPC: 0.400727 (Simulation time: 1 hr 16 min 23 sec) 
Heartbeat CPU 0 instructions: 131000003 cycles: 224005474 heartbeat IPC: 0.30272 cumulative IPC: 0.399132 (Simulation time: 1 hr 16 min 51 sec) 
Heartbeat CPU 0 instructions: 132000000 cycles: 226421997 heartbeat IPC: 0.413816 cumulative IPC: 0.399305 (Simulation time: 1 hr 17 min 13 sec) 
Heartbeat CPU 0 instructions: 133000000 cycles: 229043953 heartbeat IPC: 0.381395 cumulative IPC: 0.399079 (Simulation time: 1 hr 17 min 34 sec) 
Heartbeat CPU 0 instructions: 134000001 cycles: 232274582 heartbeat IPC: 0.309538 cumulative IPC: 0.397709 (Simulation time: 1 hr 18 min 3 sec) 
Heartbeat CPU 0 instructions: 135000003 cycles: 234481500 heartbeat IPC: 0.453122 cumulative IPC: 0.398282 (Simulation time: 1 hr 18 min 24 sec) 
Heartbeat CPU 0 instructions: 136000000 cycles: 236438357 heartbeat IPC: 0.511022 cumulative IPC: 0.399306 (Simulation time: 1 hr 18 min 47 sec) 
Heartbeat CPU 0 instructions: 137000000 cycles: 239152597 heartbeat IPC: 0.368427 cumulative IPC: 0.398922 (Simulation time: 1 hr 19 min 9 sec) 
Heartbeat CPU 0 instructions: 138000000 cycles: 240388987 heartbeat IPC: 0.808806 cumulative IPC: 0.401233 (Simulation time: 1 hr 19 min 24 sec) 
Heartbeat CPU 0 instructions: 139000001 cycles: 243291468 heartbeat IPC: 0.344533 cumulative IPC: 0.400492 (Simulation time: 1 hr 19 min 46 sec) 
Heartbeat CPU 0 instructions: 140000000 cycles: 245710909 heartbeat IPC: 0.413318 cumulative IPC: 0.40063 (Simulation time: 1 hr 20 min 6 sec) 
Heartbeat CPU 0 instructions: 141000003 cycles: 248349701 heartbeat IPC: 0.378962 cumulative IPC: 0.400379 (Simulation time: 1 hr 20 min 25 sec) 
Heartbeat CPU 0 instructions: 142000001 cycles: 251445752 heartbeat IPC: 0.322991 cumulative IPC: 0.399339 (Simulation time: 1 hr 20 min 48 sec) 
Heartbeat CPU 0 instructions: 143000001 cycles: 256057263 heartbeat IPC: 0.216849 cumulative IPC: 0.395758 (Simulation time: 1 hr 21 min 15 sec) 
Heartbeat CPU 0 instructions: 144000000 cycles: 259728974 heartbeat IPC: 0.272352 cumulative IPC: 0.393859 (Simulation time: 1 hr 21 min 44 sec) 
Heartbeat CPU 0 instructions: 145000002 cycles: 262710877 heartbeat IPC: 0.335357 cumulative IPC: 0.393137 (Simulation time: 1 hr 22 min 8 sec) 
Heartbeat CPU 0 instructions: 146000000 cycles: 266573500 heartbeat IPC: 0.258891 cumulative IPC: 0.391025 (Simulation time: 1 hr 22 min 32 sec) 
Heartbeat CPU 0 instructions: 147000000 cycles: 269054938 heartbeat IPC: 0.402992 cumulative IPC: 0.391145 (Simulation time: 1 hr 22 min 55 sec) 
Heartbeat CPU 0 instructions: 148000000 cycles: 272193060 heartbeat IPC: 0.318662 cumulative IPC: 0.390239 (Simulation time: 1 hr 23 min 20 sec) 
Heartbeat CPU 0 instructions: 149000000 cycles: 275427914 heartbeat IPC: 0.309133 cumulative IPC: 0.389208 (Simulation time: 1 hr 23 min 39 sec) 
Heartbeat CPU 0 instructions: 150000001 cycles: 278500574 heartbeat IPC: 0.325451 cumulative IPC: 0.388447 (Simulation time: 1 hr 23 min 58 sec) 
Finished CPU 0 instructions: 100000001 cycles: 257435624 cummulative IPC: 0.388447 (Simulation time: 1 hr 23 min 58 sec) 

ChampSim completed all CPUs

Region of Interest Statistics

CPU 0 cummulative IPC: 0.388447 instructions: 100000001 cycles: 257435624
LLC TOTAL     ACCESS:    6720817  HIT:    3110752  MISS:    3610065
LLC LOAD      ACCESS:    1685788  HIT:     657382  MISS:    1028406
LLC RFO       ACCESS:     736893  HIT:     192339  MISS:     544554
LLC PREFETCH  ACCESS:    2657989  HIT:    1124566  MISS:    1533423
LLC WRITEBACK ACCESS:    1640147  HIT:    1136465  MISS:     503682
OPTgen accesses: 208089
OPTgen hits: 68007
OPTgen hit rate: 32.6817


