
*** ChampSim Multicore Out-of-Order Simulator ***

Warmup Instructions: 50000000
Simulation Instructions: 100000000
Configuration: 2
Number of CPUs: 1
LLC sets: 2048
LLC ways: 16
Off-chip DRAM Channels: 1 Width: 64-bit Data Rate: 1600 MT/s

CPU 0 runs /datasets/cs240c-wi22-a00-public/data/Assignment2-gz/leslie3d_1116B.trace.gz
CPU 0 L1D next line prefetcher
CPU 0 L2C IP-based stride prefetcher
Initialize Hawkeye state
Heartbeat CPU 0 instructions: 1000003 cycles: 535311 heartbeat IPC: 1.86808 cumulative IPC: 1.86808 (Simulation time: 0 hr 0 min 34 sec) 
Heartbeat CPU 0 instructions: 2000003 cycles: 1071193 heartbeat IPC: 1.86608 cumulative IPC: 1.86708 (Simulation time: 0 hr 1 min 4 sec) 
Heartbeat CPU 0 instructions: 3000003 cycles: 1607887 heartbeat IPC: 1.86326 cumulative IPC: 1.8658 (Simulation time: 0 hr 1 min 33 sec) 
Heartbeat CPU 0 instructions: 4000000 cycles: 2143303 heartbeat IPC: 1.8677 cumulative IPC: 1.86628 (Simulation time: 0 hr 2 min 4 sec) 
Heartbeat CPU 0 instructions: 5000001 cycles: 2678428 heartbeat IPC: 1.86872 cumulative IPC: 1.86677 (Simulation time: 0 hr 2 min 35 sec) 
Heartbeat CPU 0 instructions: 6000001 cycles: 3213940 heartbeat IPC: 1.86737 cumulative IPC: 1.86687 (Simulation time: 0 hr 3 min 8 sec) 
Heartbeat CPU 0 instructions: 7000001 cycles: 3749928 heartbeat IPC: 1.86571 cumulative IPC: 1.8667 (Simulation time: 0 hr 3 min 38 sec) 
Heartbeat CPU 0 instructions: 8000000 cycles: 4285972 heartbeat IPC: 1.86552 cumulative IPC: 1.86655 (Simulation time: 0 hr 4 min 9 sec) 
Heartbeat CPU 0 instructions: 9000003 cycles: 4821133 heartbeat IPC: 1.8686 cumulative IPC: 1.86678 (Simulation time: 0 hr 4 min 39 sec) 
Heartbeat CPU 0 instructions: 10000002 cycles: 5356207 heartbeat IPC: 1.8689 cumulative IPC: 1.86699 (Simulation time: 0 hr 5 min 7 sec) 
Heartbeat CPU 0 instructions: 11000001 cycles: 5891974 heartbeat IPC: 1.86648 cumulative IPC: 1.86695 (Simulation time: 0 hr 5 min 37 sec) 
Heartbeat CPU 0 instructions: 12000000 cycles: 6428427 heartbeat IPC: 1.86409 cumulative IPC: 1.86671 (Simulation time: 0 hr 6 min 11 sec) 
Heartbeat CPU 0 instructions: 13000002 cycles: 6963779 heartbeat IPC: 1.86793 cumulative IPC: 1.8668 (Simulation time: 0 hr 6 min 41 sec) 
Heartbeat CPU 0 instructions: 14000003 cycles: 7498557 heartbeat IPC: 1.86994 cumulative IPC: 1.86703 (Simulation time: 0 hr 7 min 13 sec) 
Heartbeat CPU 0 instructions: 15000002 cycles: 8034087 heartbeat IPC: 1.86731 cumulative IPC: 1.86705 (Simulation time: 0 hr 7 min 43 sec) 
Heartbeat CPU 0 instructions: 16000000 cycles: 8570204 heartbeat IPC: 1.86526 cumulative IPC: 1.86693 (Simulation time: 0 hr 8 min 12 sec) 
Heartbeat CPU 0 instructions: 17000003 cycles: 9106674 heartbeat IPC: 1.86404 cumulative IPC: 1.86676 (Simulation time: 0 hr 8 min 41 sec) 
Heartbeat CPU 0 instructions: 18000001 cycles: 9641738 heartbeat IPC: 1.86893 cumulative IPC: 1.86688 (Simulation time: 0 hr 9 min 10 sec) 
Heartbeat CPU 0 instructions: 19000001 cycles: 10177268 heartbeat IPC: 1.86731 cumulative IPC: 1.86691 (Simulation time: 0 hr 9 min 40 sec) 
Heartbeat CPU 0 instructions: 20000000 cycles: 10712735 heartbeat IPC: 1.86753 cumulative IPC: 1.86694 (Simulation time: 0 hr 10 min 14 sec) 
Heartbeat CPU 0 instructions: 21000000 cycles: 11249334 heartbeat IPC: 1.86359 cumulative IPC: 1.86678 (Simulation time: 0 hr 10 min 44 sec) 
Heartbeat CPU 0 instructions: 22000000 cycles: 11784521 heartbeat IPC: 1.86851 cumulative IPC: 1.86686 (Simulation time: 0 hr 11 min 13 sec) 
Heartbeat CPU 0 instructions: 23000003 cycles: 12319844 heartbeat IPC: 1.86804 cumulative IPC: 1.86691 (Simulation time: 0 hr 11 min 47 sec) 
Heartbeat CPU 0 instructions: 24000000 cycles: 12855008 heartbeat IPC: 1.86858 cumulative IPC: 1.86698 (Simulation time: 0 hr 12 min 22 sec) 
Heartbeat CPU 0 instructions: 25000001 cycles: 13391087 heartbeat IPC: 1.8654 cumulative IPC: 1.86691 (Simulation time: 0 hr 12 min 54 sec) 
Heartbeat CPU 0 instructions: 26000002 cycles: 13927521 heartbeat IPC: 1.86416 cumulative IPC: 1.86681 (Simulation time: 0 hr 13 min 25 sec) 
Heartbeat CPU 0 instructions: 27000003 cycles: 14462479 heartbeat IPC: 1.86931 cumulative IPC: 1.8669 (Simulation time: 0 hr 13 min 58 sec) 
Heartbeat CPU 0 instructions: 28000000 cycles: 14997683 heartbeat IPC: 1.86844 cumulative IPC: 1.86696 (Simulation time: 0 hr 14 min 28 sec) 
Heartbeat CPU 0 instructions: 29000000 cycles: 15533267 heartbeat IPC: 1.86712 cumulative IPC: 1.86696 (Simulation time: 0 hr 14 min 59 sec) 
Heartbeat CPU 0 instructions: 30000002 cycles: 16070205 heartbeat IPC: 1.86242 cumulative IPC: 1.86681 (Simulation time: 0 hr 15 min 31 sec) 
Heartbeat CPU 0 instructions: 31000001 cycles: 16605558 heartbeat IPC: 1.86792 cumulative IPC: 1.86684 (Simulation time: 0 hr 16 min 2 sec) 
Heartbeat CPU 0 instructions: 32000000 cycles: 17141130 heartbeat IPC: 1.86716 cumulative IPC: 1.86685 (Simulation time: 0 hr 16 min 31 sec) 
Heartbeat CPU 0 instructions: 33000001 cycles: 17676465 heartbeat IPC: 1.86799 cumulative IPC: 1.86689 (Simulation time: 0 hr 17 min 3 sec) 
Heartbeat CPU 0 instructions: 34000000 cycles: 18212279 heartbeat IPC: 1.86632 cumulative IPC: 1.86687 (Simulation time: 0 hr 17 min 31 sec) 
Heartbeat CPU 0 instructions: 35000000 cycles: 18748421 heartbeat IPC: 1.86518 cumulative IPC: 1.86682 (Simulation time: 0 hr 17 min 58 sec) 
Heartbeat CPU 0 instructions: 36000000 cycles: 19283104 heartbeat IPC: 1.87027 cumulative IPC: 1.86692 (Simulation time: 0 hr 18 min 26 sec) 
Heartbeat CPU 0 instructions: 37000003 cycles: 19865456 heartbeat IPC: 1.71718 cumulative IPC: 1.86253 (Simulation time: 0 hr 18 min 54 sec) 
Heartbeat CPU 0 instructions: 38000003 cycles: 20283708 heartbeat IPC: 2.3909 cumulative IPC: 1.87342 (Simulation time: 0 hr 19 min 22 sec) 
Heartbeat CPU 0 instructions: 39000003 cycles: 20701870 heartbeat IPC: 2.39142 cumulative IPC: 1.88389 (Simulation time: 0 hr 19 min 51 sec) 
Heartbeat CPU 0 instructions: 40000000 cycles: 21120249 heartbeat IPC: 2.39017 cumulative IPC: 1.89392 (Simulation time: 0 hr 20 min 17 sec) 
Heartbeat CPU 0 instructions: 41000002 cycles: 21538412 heartbeat IPC: 2.39142 cumulative IPC: 1.90358 (Simulation time: 0 hr 20 min 43 sec) 
Heartbeat CPU 0 instructions: 42000001 cycles: 21956264 heartbeat IPC: 2.39319 cumulative IPC: 1.91289 (Simulation time: 0 hr 21 min 8 sec) 
Heartbeat CPU 0 instructions: 43000003 cycles: 22374292 heartbeat IPC: 2.39219 cumulative IPC: 1.92185 (Simulation time: 0 hr 21 min 33 sec) 
Heartbeat CPU 0 instructions: 44000000 cycles: 22792204 heartbeat IPC: 2.39284 cumulative IPC: 1.93048 (Simulation time: 0 hr 22 min 1 sec) 
Heartbeat CPU 0 instructions: 45000002 cycles: 23210333 heartbeat IPC: 2.39161 cumulative IPC: 1.93879 (Simulation time: 0 hr 22 min 28 sec) 
Heartbeat CPU 0 instructions: 46000002 cycles: 23628241 heartbeat IPC: 2.39287 cumulative IPC: 1.94682 (Simulation time: 0 hr 22 min 55 sec) 
Heartbeat CPU 0 instructions: 47000001 cycles: 24045920 heartbeat IPC: 2.39418 cumulative IPC: 1.95459 (Simulation time: 0 hr 23 min 20 sec) 
Heartbeat CPU 0 instructions: 48000000 cycles: 24463900 heartbeat IPC: 2.39246 cumulative IPC: 1.96207 (Simulation time: 0 hr 23 min 47 sec) 
Heartbeat CPU 0 instructions: 49000000 cycles: 24921131 heartbeat IPC: 2.18708 cumulative IPC: 1.9662 (Simulation time: 0 hr 24 min 20 sec) 
Heartbeat CPU 0 instructions: 50000000 cycles: 25408402 heartbeat IPC: 2.05225 cumulative IPC: 1.96785 (Simulation time: 0 hr 24 min 48 sec) 

Warmup complete CPU 0 instructions: 50000004 cycles: 25408404 (Simulation time: 0 hr 24 min 48 sec) 

Heartbeat CPU 0 instructions: 51000002 cycles: 27743343 heartbeat IPC: 0.428277 cumulative IPC: 0.428276 (Simulation time: 0 hr 25 min 25 sec) 
Heartbeat CPU 0 instructions: 52000000 cycles: 30214648 heartbeat IPC: 0.404644 cumulative IPC: 0.416125 (Simulation time: 0 hr 26 min 12 sec) 
Heartbeat CPU 0 instructions: 53000003 cycles: 32635760 heartbeat IPC: 0.413035 cumulative IPC: 0.415089 (Simulation time: 0 hr 26 min 50 sec) 
Heartbeat CPU 0 instructions: 54000000 cycles: 34991367 heartbeat IPC: 0.424518 cumulative IPC: 0.417407 (Simulation time: 0 hr 27 min 35 sec) 
Heartbeat CPU 0 instructions: 55000002 cycles: 37340211 heartbeat IPC: 0.425742 cumulative IPC: 0.419048 (Simulation time: 0 hr 28 min 21 sec) 
Heartbeat CPU 0 instructions: 56000000 cycles: 39717520 heartbeat IPC: 0.420643 cumulative IPC: 0.419313 (Simulation time: 0 hr 29 min 4 sec) 
Heartbeat CPU 0 instructions: 57000001 cycles: 42061986 heartbeat IPC: 0.426537 cumulative IPC: 0.42033 (Simulation time: 0 hr 29 min 47 sec) 
Heartbeat CPU 0 instructions: 58000001 cycles: 44316943 heartbeat IPC: 0.443467 cumulative IPC: 0.423089 (Simulation time: 0 hr 30 min 29 sec) 
Heartbeat CPU 0 instructions: 59000000 cycles: 45584427 heartbeat IPC: 0.788964 cumulative IPC: 0.446074 (Simulation time: 0 hr 31 min 4 sec) 
Heartbeat CPU 0 instructions: 60000000 cycles: 46857242 heartbeat IPC: 0.78566 cumulative IPC: 0.466226 (Simulation time: 0 hr 31 min 40 sec) 
Heartbeat CPU 0 instructions: 61000000 cycles: 48234079 heartbeat IPC: 0.726302 cumulative IPC: 0.481913 (Simulation time: 0 hr 32 min 16 sec) 
Heartbeat CPU 0 instructions: 62000002 cycles: 49557172 heartbeat IPC: 0.755806 cumulative IPC: 0.49692 (Simulation time: 0 hr 32 min 51 sec) 
Heartbeat CPU 0 instructions: 63000003 cycles: 50743260 heartbeat IPC: 0.843109 cumulative IPC: 0.513127 (Simulation time: 0 hr 33 min 27 sec) 
Heartbeat CPU 0 instructions: 64000000 cycles: 51986200 heartbeat IPC: 0.804542 cumulative IPC: 0.526755 (Simulation time: 0 hr 34 min 5 sec) 
Heartbeat CPU 0 instructions: 65000001 cycles: 53414718 heartbeat IPC: 0.700027 cumulative IPC: 0.535593 (Simulation time: 0 hr 34 min 38 sec) 
Heartbeat CPU 0 instructions: 66000000 cycles: 54618245 heartbeat IPC: 0.83089 cumulative IPC: 0.54776 (Simulation time: 0 hr 35 min 11 sec) 
Heartbeat CPU 0 instructions: 67000001 cycles: 55843799 heartbeat IPC: 0.815958 cumulative IPC: 0.55856 (Simulation time: 0 hr 35 min 47 sec) 
Heartbeat CPU 0 instructions: 68000000 cycles: 57216796 heartbeat IPC: 0.728333 cumulative IPC: 0.565888 (Simulation time: 0 hr 36 min 22 sec) 
Heartbeat CPU 0 instructions: 69000002 cycles: 58502622 heartbeat IPC: 0.777712 cumulative IPC: 0.574118 (Simulation time: 0 hr 36 min 59 sec) 
Heartbeat CPU 0 instructions: 70000000 cycles: 59702684 heartbeat IPC: 0.833289 cumulative IPC: 0.583188 (Simulation time: 0 hr 37 min 34 sec) 
Heartbeat CPU 0 instructions: 71000002 cycles: 60928143 heartbeat IPC: 0.816022 cumulative IPC: 0.59122 (Simulation time: 0 hr 38 min 8 sec) 
Heartbeat CPU 0 instructions: 72000000 cycles: 62348973 heartbeat IPC: 0.703813 cumulative IPC: 0.595551 (Simulation time: 0 hr 38 min 41 sec) 
Heartbeat CPU 0 instructions: 73000000 cycles: 63567682 heartbeat IPC: 0.82054 cumulative IPC: 0.602737 (Simulation time: 0 hr 39 min 17 sec) 
Heartbeat CPU 0 instructions: 74000000 cycles: 64782589 heartbeat IPC: 0.823108 cumulative IPC: 0.609536 (Simulation time: 0 hr 39 min 51 sec) 
Heartbeat CPU 0 instructions: 75000002 cycles: 66217674 heartbeat IPC: 0.696824 cumulative IPC: 0.612606 (Simulation time: 0 hr 40 min 22 sec) 
Heartbeat CPU 0 instructions: 76000000 cycles: 67438563 heartbeat IPC: 0.819074 cumulative IPC: 0.618603 (Simulation time: 0 hr 40 min 59 sec) 
Heartbeat CPU 0 instructions: 77000001 cycles: 68642619 heartbeat IPC: 0.830527 cumulative IPC: 0.624505 (Simulation time: 0 hr 41 min 37 sec) 
Heartbeat CPU 0 instructions: 78000000 cycles: 69939707 heartbeat IPC: 0.770957 cumulative IPC: 0.628771 (Simulation time: 0 hr 42 min 13 sec) 
Heartbeat CPU 0 instructions: 79000001 cycles: 71283823 heartbeat IPC: 0.743984 cumulative IPC: 0.632147 (Simulation time: 0 hr 42 min 47 sec) 
Heartbeat CPU 0 instructions: 80000000 cycles: 72497425 heartbeat IPC: 0.823993 cumulative IPC: 0.637091 (Simulation time: 0 hr 43 min 24 sec) 
Heartbeat CPU 0 instructions: 81000003 cycles: 73708841 heartbeat IPC: 0.825483 cumulative IPC: 0.641816 (Simulation time: 0 hr 43 min 59 sec) 
Heartbeat CPU 0 instructions: 82000000 cycles: 75136687 heartbeat IPC: 0.700354 cumulative IPC: 0.643497 (Simulation time: 0 hr 44 min 31 sec) 
Heartbeat CPU 0 instructions: 83000001 cycles: 76343369 heartbeat IPC: 0.82872 cumulative IPC: 0.647885 (Simulation time: 0 hr 45 min 4 sec) 
Heartbeat CPU 0 instructions: 84000000 cycles: 77564927 heartbeat IPC: 0.818626 cumulative IPC: 0.651884 (Simulation time: 0 hr 45 min 39 sec) 
Heartbeat CPU 0 instructions: 85000003 cycles: 78964369 heartbeat IPC: 0.714573 cumulative IPC: 0.653522 (Simulation time: 0 hr 46 min 12 sec) 
Heartbeat CPU 0 instructions: 86000002 cycles: 80208205 heartbeat IPC: 0.803964 cumulative IPC: 0.656937 (Simulation time: 0 hr 46 min 49 sec) 
Heartbeat CPU 0 instructions: 87000001 cycles: 81421078 heartbeat IPC: 0.824488 cumulative IPC: 0.660565 (Simulation time: 0 hr 47 min 23 sec) 
Heartbeat CPU 0 instructions: 88000000 cycles: 82650080 heartbeat IPC: 0.813668 cumulative IPC: 0.663852 (Simulation time: 0 hr 47 min 59 sec) 
Heartbeat CPU 0 instructions: 89000001 cycles: 84068372 heartbeat IPC: 0.705074 cumulative IPC: 0.664849 (Simulation time: 0 hr 48 min 34 sec) 
Heartbeat CPU 0 instructions: 90000003 cycles: 85267799 heartbeat IPC: 0.833733 cumulative IPC: 0.668233 (Simulation time: 0 hr 49 min 7 sec) 
Heartbeat CPU 0 instructions: 91000000 cycles: 86480062 heartbeat IPC: 0.824901 cumulative IPC: 0.671342 (Simulation time: 0 hr 49 min 39 sec) 
Heartbeat CPU 0 instructions: 92000000 cycles: 87906608 heartbeat IPC: 0.700994 cumulative IPC: 0.672019 (Simulation time: 0 hr 50 min 10 sec) 
Heartbeat CPU 0 instructions: 93000002 cycles: 89111101 heartbeat IPC: 0.830226 cumulative IPC: 0.675011 (Simulation time: 0 hr 50 min 43 sec) 
Heartbeat CPU 0 instructions: 94000000 cycles: 90312950 heartbeat IPC: 0.83205 cumulative IPC: 0.677919 (Simulation time: 0 hr 51 min 17 sec) 
Heartbeat CPU 0 instructions: 95000003 cycles: 91631765 heartbeat IPC: 0.758259 cumulative IPC: 0.679519 (Simulation time: 0 hr 51 min 51 sec) 
Heartbeat CPU 0 instructions: 96000000 cycles: 92964226 heartbeat IPC: 0.750489 cumulative IPC: 0.680918 (Simulation time: 0 hr 52 min 27 sec) 
Heartbeat CPU 0 instructions: 97000000 cycles: 94154511 heartbeat IPC: 0.840135 cumulative IPC: 0.683675 (Simulation time: 0 hr 53 min 6 sec) 
Heartbeat CPU 0 instructions: 98000000 cycles: 95362561 heartbeat IPC: 0.82778 cumulative IPC: 0.686164 (Simulation time: 0 hr 53 min 39 sec) 
Heartbeat CPU 0 instructions: 99000003 cycles: 96789195 heartbeat IPC: 0.700953 cumulative IPC: 0.686459 (Simulation time: 0 hr 54 min 11 sec) 
Heartbeat CPU 0 instructions: 100000000 cycles: 98003124 heartbeat IPC: 0.823769 cumulative IPC: 0.688755 (Simulation time: 0 hr 54 min 45 sec) 
Heartbeat CPU 0 instructions: 101000001 cycles: 99216572 heartbeat IPC: 0.824099 cumulative IPC: 0.69098 (Simulation time: 0 hr 55 min 21 sec) 
Heartbeat CPU 0 instructions: 102000003 cycles: 100637231 heartbeat IPC: 0.7039 cumulative IPC: 0.691224 (Simulation time: 0 hr 55 min 59 sec) 
Heartbeat CPU 0 instructions: 103000000 cycles: 101874165 heartbeat IPC: 0.808448 cumulative IPC: 0.693121 (Simulation time: 0 hr 56 min 39 sec) 
Heartbeat CPU 0 instructions: 104000000 cycles: 103092348 heartbeat IPC: 0.820895 cumulative IPC: 0.695124 (Simulation time: 0 hr 57 min 13 sec) 
Heartbeat CPU 0 instructions: 105000000 cycles: 104335064 heartbeat IPC: 0.804689 cumulative IPC: 0.696849 (Simulation time: 0 hr 57 min 46 sec) 
Heartbeat CPU 0 instructions: 106000003 cycles: 106109440 heartbeat IPC: 0.56358 cumulative IPC: 0.693919 (Simulation time: 0 hr 58 min 25 sec) 
Heartbeat CPU 0 instructions: 107000002 cycles: 107691616 heartbeat IPC: 0.63204 cumulative IPC: 0.692729 (Simulation time: 0 hr 59 min 0 sec) 
Heartbeat CPU 0 instructions: 108000000 cycles: 109353353 heartbeat IPC: 0.601779 cumulative IPC: 0.690929 (Simulation time: 0 hr 59 min 36 sec) 
Heartbeat CPU 0 instructions: 109000003 cycles: 110935622 heartbeat IPC: 0.632006 cumulative IPC: 0.689839 (Simulation time: 1 hr 0 min 9 sec) 
Heartbeat CPU 0 instructions: 110000003 cycles: 112613253 heartbeat IPC: 0.596079 cumulative IPC: 0.688035 (Simulation time: 1 hr 0 min 42 sec) 
Heartbeat CPU 0 instructions: 111000003 cycles: 114189121 heartbeat IPC: 0.634571 cumulative IPC: 0.687086 (Simulation time: 1 hr 1 min 18 sec) 
Heartbeat CPU 0 instructions: 112000000 cycles: 115833267 heartbeat IPC: 0.608217 cumulative IPC: 0.685652 (Simulation time: 1 hr 1 min 52 sec) 
Heartbeat CPU 0 instructions: 113000000 cycles: 117401805 heartbeat IPC: 0.637536 cumulative IPC: 0.684832 (Simulation time: 1 hr 2 min 23 sec) 
Heartbeat CPU 0 instructions: 114000000 cycles: 119074733 heartbeat IPC: 0.597754 cumulative IPC: 0.683276 (Simulation time: 1 hr 2 min 58 sec) 
Heartbeat CPU 0 instructions: 115000000 cycles: 120649657 heartbeat IPC: 0.634951 cumulative IPC: 0.682477 (Simulation time: 1 hr 3 min 35 sec) 
Heartbeat CPU 0 instructions: 116000000 cycles: 123006459 heartbeat IPC: 0.424304 cumulative IPC: 0.676243 (Simulation time: 1 hr 4 min 11 sec) 
Heartbeat CPU 0 instructions: 117000003 cycles: 125248308 heartbeat IPC: 0.446062 cumulative IPC: 0.671074 (Simulation time: 1 hr 4 min 49 sec) 
Heartbeat CPU 0 instructions: 118000002 cycles: 127513385 heartbeat IPC: 0.441486 cumulative IPC: 0.665981 (Simulation time: 1 hr 5 min 26 sec) 
Heartbeat CPU 0 instructions: 119000001 cycles: 129948189 heartbeat IPC: 0.41071 cumulative IPC: 0.660036 (Simulation time: 1 hr 6 min 4 sec) 
Heartbeat CPU 0 instructions: 120000000 cycles: 132334836 heartbeat IPC: 0.418997 cumulative IPC: 0.654656 (Simulation time: 1 hr 6 min 46 sec) 
Heartbeat CPU 0 instructions: 121000001 cycles: 134675466 heartbeat IPC: 0.427236 cumulative IPC: 0.649784 (Simulation time: 1 hr 7 min 25 sec) 
Heartbeat CPU 0 instructions: 122000002 cycles: 137015989 heartbeat IPC: 0.427255 cumulative IPC: 0.645117 (Simulation time: 1 hr 8 min 7 sec) 
Heartbeat CPU 0 instructions: 123000001 cycles: 139380878 heartbeat IPC: 0.422852 cumulative IPC: 0.640505 (Simulation time: 1 hr 8 min 45 sec) 
Heartbeat CPU 0 instructions: 124000000 cycles: 140752298 heartbeat IPC: 0.729171 cumulative IPC: 0.64156 (Simulation time: 1 hr 9 min 17 sec) 
Heartbeat CPU 0 instructions: 125000000 cycles: 142048851 heartbeat IPC: 0.771276 cumulative IPC: 0.643002 (Simulation time: 1 hr 9 min 51 sec) 
Heartbeat CPU 0 instructions: 126000000 cycles: 143303098 heartbeat IPC: 0.797291 cumulative IPC: 0.644643 (Simulation time: 1 hr 10 min 20 sec) 
Heartbeat CPU 0 instructions: 127000003 cycles: 144541466 heartbeat IPC: 0.807517 cumulative IPC: 0.646336 (Simulation time: 1 hr 10 min 51 sec) 
Heartbeat CPU 0 instructions: 128000000 cycles: 145819267 heartbeat IPC: 0.782592 cumulative IPC: 0.647782 (Simulation time: 1 hr 11 min 22 sec) 
Heartbeat CPU 0 instructions: 129000000 cycles: 147065856 heartbeat IPC: 0.802189 cumulative IPC: 0.649364 (Simulation time: 1 hr 11 min 52 sec) 
Heartbeat CPU 0 instructions: 130000000 cycles: 148360749 heartbeat IPC: 0.772265 cumulative IPC: 0.650659 (Simulation time: 1 hr 12 min 25 sec) 
Heartbeat CPU 0 instructions: 131000000 cycles: 149589078 heartbeat IPC: 0.814114 cumulative IPC: 0.652275 (Simulation time: 1 hr 12 min 56 sec) 
Heartbeat CPU 0 instructions: 132000000 cycles: 150852219 heartbeat IPC: 0.791677 cumulative IPC: 0.653679 (Simulation time: 1 hr 13 min 26 sec) 
Heartbeat CPU 0 instructions: 133000001 cycles: 152121758 heartbeat IPC: 0.787688 cumulative IPC: 0.655022 (Simulation time: 1 hr 13 min 54 sec) 
Heartbeat CPU 0 instructions: 134000000 cycles: 153371855 heartbeat IPC: 0.799937 cumulative IPC: 0.656437 (Simulation time: 1 hr 14 min 23 sec) 
Heartbeat CPU 0 instructions: 135000001 cycles: 154664394 heartbeat IPC: 0.773672 cumulative IPC: 0.65761 (Simulation time: 1 hr 14 min 51 sec) 
Heartbeat CPU 0 instructions: 136000000 cycles: 155914117 heartbeat IPC: 0.800177 cumulative IPC: 0.658975 (Simulation time: 1 hr 15 min 18 sec) 
Heartbeat CPU 0 instructions: 137000003 cycles: 157214852 heartbeat IPC: 0.768798 cumulative IPC: 0.660059 (Simulation time: 1 hr 15 min 46 sec) 
Heartbeat CPU 0 instructions: 138000002 cycles: 158451831 heartbeat IPC: 0.80842 cumulative IPC: 0.661438 (Simulation time: 1 hr 16 min 15 sec) 
Heartbeat CPU 0 instructions: 139000000 cycles: 159721802 heartbeat IPC: 0.787418 cumulative IPC: 0.662629 (Simulation time: 1 hr 16 min 42 sec) 
Heartbeat CPU 0 instructions: 140000000 cycles: 161016884 heartbeat IPC: 0.772152 cumulative IPC: 0.663675 (Simulation time: 1 hr 17 min 8 sec) 
Heartbeat CPU 0 instructions: 141000001 cycles: 162273521 heartbeat IPC: 0.795776 cumulative IPC: 0.664888 (Simulation time: 1 hr 17 min 36 sec) 
Heartbeat CPU 0 instructions: 142000003 cycles: 163590828 heartbeat IPC: 0.759126 cumulative IPC: 0.665787 (Simulation time: 1 hr 18 min 1 sec) 
Heartbeat CPU 0 instructions: 143000003 cycles: 164845781 heartbeat IPC: 0.796843 cumulative IPC: 0.666966 (Simulation time: 1 hr 18 min 26 sec) 
Heartbeat CPU 0 instructions: 144000000 cycles: 166154289 heartbeat IPC: 0.764227 cumulative IPC: 0.66787 (Simulation time: 1 hr 18 min 50 sec) 
Heartbeat CPU 0 instructions: 145000003 cycles: 167427997 heartbeat IPC: 0.785112 cumulative IPC: 0.668922 (Simulation time: 1 hr 19 min 13 sec) 
Heartbeat CPU 0 instructions: 146000003 cycles: 168706409 heartbeat IPC: 0.78222 cumulative IPC: 0.669933 (Simulation time: 1 hr 19 min 39 sec) 
Heartbeat CPU 0 instructions: 147000003 cycles: 169998324 heartbeat IPC: 0.774045 cumulative IPC: 0.670863 (Simulation time: 1 hr 20 min 2 sec) 
Heartbeat CPU 0 instructions: 148000000 cycles: 171245975 heartbeat IPC: 0.801504 cumulative IPC: 0.67198 (Simulation time: 1 hr 20 min 25 sec) 
Heartbeat CPU 0 instructions: 149000000 cycles: 172534486 heartbeat IPC: 0.77609 cumulative IPC: 0.672892 (Simulation time: 1 hr 20 min 47 sec) 
Heartbeat CPU 0 instructions: 150000001 cycles: 173791205 heartbeat IPC: 0.795724 cumulative IPC: 0.673933 (Simulation time: 1 hr 21 min 10 sec) 
Finished CPU 0 instructions: 100000001 cycles: 148382802 cummulative IPC: 0.673933 (Simulation time: 1 hr 21 min 10 sec) 

ChampSim completed all CPUs

Region of Interest Statistics

CPU 0 cummulative IPC: 0.673933 instructions: 100000001 cycles: 148382802
LLC TOTAL     ACCESS:    4212052  HIT:    1226785  MISS:    2985267
LLC LOAD      ACCESS:     416190  HIT:     136739  MISS:     279451
LLC RFO       ACCESS:     595320  HIT:     152029  MISS:     443291
LLC PREFETCH  ACCESS:    2365161  HIT:     566385  MISS:    1798776
LLC WRITEBACK ACCESS:     835381  HIT:     371632  MISS:     463749
OPTgen accesses: 84714
OPTgen hits: 22911
OPTgen hit rate: 27.0451


