
*** ChampSim Multicore Out-of-Order Simulator ***

Warmup Instructions: 50000000
Simulation Instructions: 100000000
Configuration: 2
Number of CPUs: 1
LLC sets: 2048
LLC ways: 16
Off-chip DRAM Channels: 1 Width: 64-bit Data Rate: 1600 MT/s

CPU 0 runs /datasets/cs240c-wi22-a00-public/data/Assignment2-gz/wrf_1212B.trace.gz
CPU 0 L1D next line prefetcher
CPU 0 L2C IP-based stride prefetcher
Initialize Hawkeye state
Heartbeat CPU 0 instructions: 1000001 cycles: 598660 heartbeat IPC: 1.6704 cumulative IPC: 1.6704 (Simulation time: 0 hr 0 min 41 sec) 
Heartbeat CPU 0 instructions: 2000000 cycles: 1197118 heartbeat IPC: 1.67096 cumulative IPC: 1.67068 (Simulation time: 0 hr 1 min 16 sec) 
Heartbeat CPU 0 instructions: 3000001 cycles: 1795976 heartbeat IPC: 1.66985 cumulative IPC: 1.6704 (Simulation time: 0 hr 1 min 50 sec) 
Heartbeat CPU 0 instructions: 4000000 cycles: 2394087 heartbeat IPC: 1.67193 cumulative IPC: 1.67078 (Simulation time: 0 hr 2 min 29 sec) 
Heartbeat CPU 0 instructions: 5000000 cycles: 2993053 heartbeat IPC: 1.66954 cumulative IPC: 1.67054 (Simulation time: 0 hr 3 min 3 sec) 
Heartbeat CPU 0 instructions: 6000001 cycles: 3592667 heartbeat IPC: 1.66774 cumulative IPC: 1.67007 (Simulation time: 0 hr 3 min 45 sec) 
Heartbeat CPU 0 instructions: 7000001 cycles: 4190665 heartbeat IPC: 1.67225 cumulative IPC: 1.67038 (Simulation time: 0 hr 4 min 21 sec) 
Heartbeat CPU 0 instructions: 8000000 cycles: 4788873 heartbeat IPC: 1.67166 cumulative IPC: 1.67054 (Simulation time: 0 hr 5 min 1 sec) 
Heartbeat CPU 0 instructions: 9000002 cycles: 5387792 heartbeat IPC: 1.66968 cumulative IPC: 1.67044 (Simulation time: 0 hr 5 min 39 sec) 
Heartbeat CPU 0 instructions: 10000001 cycles: 5987357 heartbeat IPC: 1.66787 cumulative IPC: 1.67019 (Simulation time: 0 hr 6 min 18 sec) 
Heartbeat CPU 0 instructions: 11000003 cycles: 6585304 heartbeat IPC: 1.67239 cumulative IPC: 1.67039 (Simulation time: 0 hr 6 min 56 sec) 
Heartbeat CPU 0 instructions: 12000000 cycles: 7184891 heartbeat IPC: 1.66781 cumulative IPC: 1.67017 (Simulation time: 0 hr 7 min 35 sec) 
Heartbeat CPU 0 instructions: 13000000 cycles: 7782944 heartbeat IPC: 1.67209 cumulative IPC: 1.67032 (Simulation time: 0 hr 8 min 12 sec) 
Heartbeat CPU 0 instructions: 14000002 cycles: 8381675 heartbeat IPC: 1.6702 cumulative IPC: 1.67031 (Simulation time: 0 hr 8 min 51 sec) 
Heartbeat CPU 0 instructions: 15000003 cycles: 8981003 heartbeat IPC: 1.66854 cumulative IPC: 1.67019 (Simulation time: 0 hr 9 min 29 sec) 
Heartbeat CPU 0 instructions: 16000000 cycles: 9579443 heartbeat IPC: 1.67101 cumulative IPC: 1.67024 (Simulation time: 0 hr 10 min 15 sec) 
Heartbeat CPU 0 instructions: 17000000 cycles: 10177930 heartbeat IPC: 1.67088 cumulative IPC: 1.67028 (Simulation time: 0 hr 10 min 52 sec) 
Heartbeat CPU 0 instructions: 18000000 cycles: 10777771 heartbeat IPC: 1.66711 cumulative IPC: 1.6701 (Simulation time: 0 hr 11 min 33 sec) 
Heartbeat CPU 0 instructions: 19000003 cycles: 11376778 heartbeat IPC: 1.66943 cumulative IPC: 1.67007 (Simulation time: 0 hr 12 min 14 sec) 
Heartbeat CPU 0 instructions: 20000000 cycles: 11974273 heartbeat IPC: 1.67365 cumulative IPC: 1.67025 (Simulation time: 0 hr 12 min 58 sec) 
Heartbeat CPU 0 instructions: 21000001 cycles: 12573597 heartbeat IPC: 1.66855 cumulative IPC: 1.67017 (Simulation time: 0 hr 13 min 35 sec) 
Heartbeat CPU 0 instructions: 22000001 cycles: 13172417 heartbeat IPC: 1.66995 cumulative IPC: 1.67016 (Simulation time: 0 hr 14 min 11 sec) 
Heartbeat CPU 0 instructions: 23000000 cycles: 13770961 heartbeat IPC: 1.67072 cumulative IPC: 1.67018 (Simulation time: 0 hr 14 min 49 sec) 
Heartbeat CPU 0 instructions: 24000000 cycles: 14370486 heartbeat IPC: 1.66799 cumulative IPC: 1.67009 (Simulation time: 0 hr 15 min 27 sec) 
Heartbeat CPU 0 instructions: 25000002 cycles: 14968207 heartbeat IPC: 1.67302 cumulative IPC: 1.67021 (Simulation time: 0 hr 16 min 3 sec) 
Heartbeat CPU 0 instructions: 26000000 cycles: 15566336 heartbeat IPC: 1.67188 cumulative IPC: 1.67027 (Simulation time: 0 hr 16 min 42 sec) 
Heartbeat CPU 0 instructions: 27000000 cycles: 16165864 heartbeat IPC: 1.66798 cumulative IPC: 1.67019 (Simulation time: 0 hr 17 min 19 sec) 
Heartbeat CPU 0 instructions: 28000000 cycles: 16764717 heartbeat IPC: 1.66986 cumulative IPC: 1.67017 (Simulation time: 0 hr 18 min 0 sec) 
Heartbeat CPU 0 instructions: 29000000 cycles: 17361460 heartbeat IPC: 1.67576 cumulative IPC: 1.67037 (Simulation time: 0 hr 18 min 39 sec) 
Heartbeat CPU 0 instructions: 30000003 cycles: 17961441 heartbeat IPC: 1.66672 cumulative IPC: 1.67024 (Simulation time: 0 hr 19 min 17 sec) 
Heartbeat CPU 0 instructions: 31000000 cycles: 18559292 heartbeat IPC: 1.67265 cumulative IPC: 1.67032 (Simulation time: 0 hr 19 min 58 sec) 
Heartbeat CPU 0 instructions: 32000000 cycles: 19157615 heartbeat IPC: 1.67134 cumulative IPC: 1.67035 (Simulation time: 0 hr 20 min 36 sec) 
Heartbeat CPU 0 instructions: 33000003 cycles: 19755964 heartbeat IPC: 1.67127 cumulative IPC: 1.67038 (Simulation time: 0 hr 21 min 16 sec) 
Heartbeat CPU 0 instructions: 34000000 cycles: 20353987 heartbeat IPC: 1.67217 cumulative IPC: 1.67043 (Simulation time: 0 hr 21 min 57 sec) 
Heartbeat CPU 0 instructions: 35000002 cycles: 20953782 heartbeat IPC: 1.66724 cumulative IPC: 1.67034 (Simulation time: 0 hr 22 min 38 sec) 
Heartbeat CPU 0 instructions: 36000000 cycles: 21552561 heartbeat IPC: 1.67006 cumulative IPC: 1.67034 (Simulation time: 0 hr 23 min 19 sec) 
Heartbeat CPU 0 instructions: 37000003 cycles: 22150479 heartbeat IPC: 1.67248 cumulative IPC: 1.67039 (Simulation time: 0 hr 23 min 59 sec) 
Heartbeat CPU 0 instructions: 38000003 cycles: 22749135 heartbeat IPC: 1.67041 cumulative IPC: 1.67039 (Simulation time: 0 hr 24 min 42 sec) 
Heartbeat CPU 0 instructions: 39000001 cycles: 23347349 heartbeat IPC: 1.67164 cumulative IPC: 1.67043 (Simulation time: 0 hr 25 min 22 sec) 
Heartbeat CPU 0 instructions: 40000000 cycles: 23945329 heartbeat IPC: 1.6723 cumulative IPC: 1.67047 (Simulation time: 0 hr 26 min 2 sec) 
Heartbeat CPU 0 instructions: 41000001 cycles: 24544120 heartbeat IPC: 1.67003 cumulative IPC: 1.67046 (Simulation time: 0 hr 26 min 40 sec) 
Heartbeat CPU 0 instructions: 42000002 cycles: 25143014 heartbeat IPC: 1.66975 cumulative IPC: 1.67044 (Simulation time: 0 hr 27 min 14 sec) 
Heartbeat CPU 0 instructions: 43000001 cycles: 25739482 heartbeat IPC: 1.67653 cumulative IPC: 1.67059 (Simulation time: 0 hr 27 min 50 sec) 
Heartbeat CPU 0 instructions: 44000000 cycles: 26338466 heartbeat IPC: 1.66949 cumulative IPC: 1.67056 (Simulation time: 0 hr 28 min 25 sec) 
Heartbeat CPU 0 instructions: 45000000 cycles: 26936930 heartbeat IPC: 1.67094 cumulative IPC: 1.67057 (Simulation time: 0 hr 29 min 1 sec) 
Heartbeat CPU 0 instructions: 46000000 cycles: 27536413 heartbeat IPC: 1.6681 cumulative IPC: 1.67052 (Simulation time: 0 hr 29 min 41 sec) 
Heartbeat CPU 0 instructions: 47000000 cycles: 28133475 heartbeat IPC: 1.67487 cumulative IPC: 1.67061 (Simulation time: 0 hr 30 min 15 sec) 
Heartbeat CPU 0 instructions: 48000000 cycles: 28732151 heartbeat IPC: 1.67035 cumulative IPC: 1.6706 (Simulation time: 0 hr 30 min 49 sec) 
Heartbeat CPU 0 instructions: 49000002 cycles: 29331647 heartbeat IPC: 1.66807 cumulative IPC: 1.67055 (Simulation time: 0 hr 31 min 22 sec) 
Heartbeat CPU 0 instructions: 50000002 cycles: 29930506 heartbeat IPC: 1.66984 cumulative IPC: 1.67054 (Simulation time: 0 hr 31 min 56 sec) 

Warmup complete CPU 0 instructions: 50000002 cycles: 29930506 (Simulation time: 0 hr 31 min 56 sec) 

Heartbeat CPU 0 instructions: 51000002 cycles: 31732058 heartbeat IPC: 0.555077 cumulative IPC: 0.555077 (Simulation time: 0 hr 32 min 43 sec) 
Heartbeat CPU 0 instructions: 52000000 cycles: 33454804 heartbeat IPC: 0.580467 cumulative IPC: 0.567488 (Simulation time: 0 hr 33 min 26 sec) 
Heartbeat CPU 0 instructions: 53000002 cycles: 35221592 heartbeat IPC: 0.566 cumulative IPC: 0.566991 (Simulation time: 0 hr 34 min 9 sec) 
Heartbeat CPU 0 instructions: 54000001 cycles: 37002571 heartbeat IPC: 0.561488 cumulative IPC: 0.565606 (Simulation time: 0 hr 34 min 58 sec) 
Heartbeat CPU 0 instructions: 55000000 cycles: 38782972 heartbeat IPC: 0.561671 cumulative IPC: 0.564814 (Simulation time: 0 hr 35 min 41 sec) 
Heartbeat CPU 0 instructions: 56000000 cycles: 40555603 heartbeat IPC: 0.564133 cumulative IPC: 0.564701 (Simulation time: 0 hr 36 min 31 sec) 
Heartbeat CPU 0 instructions: 57000001 cycles: 42281179 heartbeat IPC: 0.579517 cumulative IPC: 0.566771 (Simulation time: 0 hr 37 min 15 sec) 
Heartbeat CPU 0 instructions: 58000001 cycles: 44062013 heartbeat IPC: 0.561535 cumulative IPC: 0.566111 (Simulation time: 0 hr 38 min 0 sec) 
Heartbeat CPU 0 instructions: 59000000 cycles: 45844210 heartbeat IPC: 0.561105 cumulative IPC: 0.56555 (Simulation time: 0 hr 38 min 41 sec) 
Heartbeat CPU 0 instructions: 60000000 cycles: 47628064 heartbeat IPC: 0.560584 cumulative IPC: 0.56505 (Simulation time: 0 hr 39 min 25 sec) 
Heartbeat CPU 0 instructions: 61000001 cycles: 49367852 heartbeat IPC: 0.574783 cumulative IPC: 0.565921 (Simulation time: 0 hr 40 min 8 sec) 
Heartbeat CPU 0 instructions: 62000001 cycles: 51110859 heartbeat IPC: 0.573721 cumulative IPC: 0.566563 (Simulation time: 0 hr 40 min 54 sec) 
Heartbeat CPU 0 instructions: 63000002 cycles: 52895872 heartbeat IPC: 0.560221 cumulative IPC: 0.56607 (Simulation time: 0 hr 41 min 43 sec) 
Heartbeat CPU 0 instructions: 64000000 cycles: 54678327 heartbeat IPC: 0.561023 cumulative IPC: 0.565706 (Simulation time: 0 hr 42 min 25 sec) 
Heartbeat CPU 0 instructions: 65000000 cycles: 56464911 heartbeat IPC: 0.559727 cumulative IPC: 0.565304 (Simulation time: 0 hr 43 min 8 sec) 
Heartbeat CPU 0 instructions: 66000001 cycles: 58178545 heartbeat IPC: 0.583556 cumulative IPC: 0.566411 (Simulation time: 0 hr 43 min 52 sec) 
Heartbeat CPU 0 instructions: 67000002 cycles: 59934758 heartbeat IPC: 0.569408 cumulative IPC: 0.566586 (Simulation time: 0 hr 44 min 36 sec) 
Heartbeat CPU 0 instructions: 68000000 cycles: 61719744 heartbeat IPC: 0.560227 cumulative IPC: 0.566229 (Simulation time: 0 hr 45 min 26 sec) 
Heartbeat CPU 0 instructions: 69000001 cycles: 63501943 heartbeat IPC: 0.561105 cumulative IPC: 0.565957 (Simulation time: 0 hr 46 min 8 sec) 
Heartbeat CPU 0 instructions: 70000000 cycles: 65272123 heartbeat IPC: 0.564914 cumulative IPC: 0.565905 (Simulation time: 0 hr 46 min 50 sec) 
Heartbeat CPU 0 instructions: 71000001 cycles: 66987263 heartbeat IPC: 0.583043 cumulative IPC: 0.566698 (Simulation time: 0 hr 47 min 36 sec) 
Heartbeat CPU 0 instructions: 72000000 cycles: 68764455 heartbeat IPC: 0.562685 cumulative IPC: 0.566515 (Simulation time: 0 hr 48 min 24 sec) 
Heartbeat CPU 0 instructions: 73000001 cycles: 70560098 heartbeat IPC: 0.556904 cumulative IPC: 0.56609 (Simulation time: 0 hr 49 min 11 sec) 
Heartbeat CPU 0 instructions: 74000000 cycles: 72340132 heartbeat IPC: 0.561786 cumulative IPC: 0.565909 (Simulation time: 0 hr 49 min 54 sec) 
Heartbeat CPU 0 instructions: 75000002 cycles: 74095646 heartbeat IPC: 0.569635 cumulative IPC: 0.566057 (Simulation time: 0 hr 50 min 36 sec) 
Heartbeat CPU 0 instructions: 76000000 cycles: 75829671 heartbeat IPC: 0.576692 cumulative IPC: 0.566459 (Simulation time: 0 hr 51 min 20 sec) 
Heartbeat CPU 0 instructions: 77000003 cycles: 77607220 heartbeat IPC: 0.562574 cumulative IPC: 0.566314 (Simulation time: 0 hr 52 min 6 sec) 
Heartbeat CPU 0 instructions: 78000000 cycles: 79388927 heartbeat IPC: 0.561258 cumulative IPC: 0.566132 (Simulation time: 0 hr 52 min 50 sec) 
Heartbeat CPU 0 instructions: 79000000 cycles: 81185569 heartbeat IPC: 0.556594 cumulative IPC: 0.565798 (Simulation time: 0 hr 53 min 32 sec) 
Heartbeat CPU 0 instructions: 80000000 cycles: 82904225 heartbeat IPC: 0.58185 cumulative IPC: 0.566319 (Simulation time: 0 hr 54 min 12 sec) 
Heartbeat CPU 0 instructions: 81000003 cycles: 84669540 heartbeat IPC: 0.566473 cumulative IPC: 0.566324 (Simulation time: 0 hr 54 min 57 sec) 
Heartbeat CPU 0 instructions: 82000002 cycles: 86459484 heartbeat IPC: 0.558676 cumulative IPC: 0.566081 (Simulation time: 0 hr 55 min 44 sec) 
Heartbeat CPU 0 instructions: 83000001 cycles: 88244921 heartbeat IPC: 0.560086 cumulative IPC: 0.565898 (Simulation time: 0 hr 56 min 31 sec) 
Heartbeat CPU 0 instructions: 84000000 cycles: 90021005 heartbeat IPC: 0.563036 cumulative IPC: 0.565813 (Simulation time: 0 hr 57 min 17 sec) 
Heartbeat CPU 0 instructions: 85000000 cycles: 91738354 heartbeat IPC: 0.582293 cumulative IPC: 0.566271 (Simulation time: 0 hr 58 min 0 sec) 
Heartbeat CPU 0 instructions: 86000001 cycles: 93523818 heartbeat IPC: 0.560079 cumulative IPC: 0.566097 (Simulation time: 0 hr 58 min 46 sec) 
Heartbeat CPU 0 instructions: 87000000 cycles: 95305873 heartbeat IPC: 0.561149 cumulative IPC: 0.565962 (Simulation time: 0 hr 59 min 29 sec) 
Heartbeat CPU 0 instructions: 88000000 cycles: 97082608 heartbeat IPC: 0.56283 cumulative IPC: 0.56588 (Simulation time: 1 hr 0 min 13 sec) 
Heartbeat CPU 0 instructions: 89000000 cycles: 98833057 heartbeat IPC: 0.571282 cumulative IPC: 0.566017 (Simulation time: 1 hr 1 min 2 sec) 
Heartbeat CPU 0 instructions: 90000000 cycles: 100588567 heartbeat IPC: 0.569635 cumulative IPC: 0.566107 (Simulation time: 1 hr 1 min 51 sec) 
Heartbeat CPU 0 instructions: 91000001 cycles: 102368130 heartbeat IPC: 0.561936 cumulative IPC: 0.566004 (Simulation time: 1 hr 2 min 32 sec) 
Heartbeat CPU 0 instructions: 92000000 cycles: 104150428 heartbeat IPC: 0.561073 cumulative IPC: 0.565886 (Simulation time: 1 hr 3 min 17 sec) 
Heartbeat CPU 0 instructions: 93000003 cycles: 105933478 heartbeat IPC: 0.560838 cumulative IPC: 0.565767 (Simulation time: 1 hr 4 min 0 sec) 
Heartbeat CPU 0 instructions: 94000001 cycles: 107660169 heartbeat IPC: 0.579141 cumulative IPC: 0.566064 (Simulation time: 1 hr 4 min 44 sec) 
Heartbeat CPU 0 instructions: 95000001 cycles: 109440651 heartbeat IPC: 0.561646 cumulative IPC: 0.565965 (Simulation time: 1 hr 5 min 27 sec) 
Heartbeat CPU 0 instructions: 96000000 cycles: 111220186 heartbeat IPC: 0.561944 cumulative IPC: 0.565877 (Simulation time: 1 hr 6 min 13 sec) 
Heartbeat CPU 0 instructions: 97000000 cycles: 112999158 heartbeat IPC: 0.562122 cumulative IPC: 0.565797 (Simulation time: 1 hr 7 min 0 sec) 
Heartbeat CPU 0 instructions: 98000000 cycles: 114760006 heartbeat IPC: 0.567908 cumulative IPC: 0.565841 (Simulation time: 1 hr 7 min 43 sec) 
Heartbeat CPU 0 instructions: 99000000 cycles: 116513806 heartbeat IPC: 0.57019 cumulative IPC: 0.565929 (Simulation time: 1 hr 8 min 27 sec) 
Heartbeat CPU 0 instructions: 100000000 cycles: 118292286 heartbeat IPC: 0.562278 cumulative IPC: 0.565856 (Simulation time: 1 hr 9 min 9 sec) 
Heartbeat CPU 0 instructions: 101000000 cycles: 120070330 heartbeat IPC: 0.562416 cumulative IPC: 0.565788 (Simulation time: 1 hr 9 min 48 sec) 
Heartbeat CPU 0 instructions: 102000003 cycles: 121859425 heartbeat IPC: 0.558944 cumulative IPC: 0.565654 (Simulation time: 1 hr 10 min 23 sec) 
Heartbeat CPU 0 instructions: 103000001 cycles: 123590893 heartbeat IPC: 0.577543 cumulative IPC: 0.565874 (Simulation time: 1 hr 10 min 59 sec) 
Heartbeat CPU 0 instructions: 104000000 cycles: 125375377 heartbeat IPC: 0.560386 cumulative IPC: 0.565772 (Simulation time: 1 hr 11 min 35 sec) 
Heartbeat CPU 0 instructions: 105000002 cycles: 127155361 heartbeat IPC: 0.561804 cumulative IPC: 0.565699 (Simulation time: 1 hr 12 min 8 sec) 
Heartbeat CPU 0 instructions: 106000001 cycles: 128932773 heartbeat IPC: 0.562615 cumulative IPC: 0.565644 (Simulation time: 1 hr 12 min 43 sec) 
Heartbeat CPU 0 instructions: 107000003 cycles: 130693354 heartbeat IPC: 0.567995 cumulative IPC: 0.565685 (Simulation time: 1 hr 13 min 15 sec) 
Heartbeat CPU 0 instructions: 108000000 cycles: 132458465 heartbeat IPC: 0.566535 cumulative IPC: 0.565699 (Simulation time: 1 hr 13 min 46 sec) 
Heartbeat CPU 0 instructions: 109000002 cycles: 134242778 heartbeat IPC: 0.560441 cumulative IPC: 0.565609 (Simulation time: 1 hr 14 min 17 sec) 
Heartbeat CPU 0 instructions: 110000003 cycles: 136021564 heartbeat IPC: 0.562182 cumulative IPC: 0.565552 (Simulation time: 1 hr 14 min 49 sec) 
Heartbeat CPU 0 instructions: 111000000 cycles: 137809334 heartbeat IPC: 0.559354 cumulative IPC: 0.565449 (Simulation time: 1 hr 15 min 20 sec) 
Heartbeat CPU 0 instructions: 112000000 cycles: 139550716 heartbeat IPC: 0.574257 cumulative IPC: 0.565589 (Simulation time: 1 hr 15 min 53 sec) 
Heartbeat CPU 0 instructions: 113000000 cycles: 141329821 heartbeat IPC: 0.56208 cumulative IPC: 0.565533 (Simulation time: 1 hr 16 min 24 sec) 
Heartbeat CPU 0 instructions: 114000000 cycles: 143109055 heartbeat IPC: 0.56204 cumulative IPC: 0.565478 (Simulation time: 1 hr 16 min 54 sec) 
Heartbeat CPU 0 instructions: 115000003 cycles: 144889501 heartbeat IPC: 0.561659 cumulative IPC: 0.565419 (Simulation time: 1 hr 17 min 22 sec) 
Heartbeat CPU 0 instructions: 116000000 cycles: 146646342 heartbeat IPC: 0.569202 cumulative IPC: 0.565476 (Simulation time: 1 hr 17 min 49 sec) 
Heartbeat CPU 0 instructions: 117000000 cycles: 148422246 heartbeat IPC: 0.563093 cumulative IPC: 0.56544 (Simulation time: 1 hr 18 min 16 sec) 
Heartbeat CPU 0 instructions: 118000002 cycles: 150201731 heartbeat IPC: 0.561961 cumulative IPC: 0.565389 (Simulation time: 1 hr 18 min 42 sec) 
Heartbeat CPU 0 instructions: 119000002 cycles: 151985198 heartbeat IPC: 0.560706 cumulative IPC: 0.56532 (Simulation time: 1 hr 19 min 9 sec) 
Heartbeat CPU 0 instructions: 120000000 cycles: 153761132 heartbeat IPC: 0.563083 cumulative IPC: 0.565288 (Simulation time: 1 hr 19 min 35 sec) 
Heartbeat CPU 0 instructions: 121000003 cycles: 155516679 heartbeat IPC: 0.569625 cumulative IPC: 0.565349 (Simulation time: 1 hr 20 min 2 sec) 
Heartbeat CPU 0 instructions: 122000000 cycles: 157296287 heartbeat IPC: 0.56192 cumulative IPC: 0.565301 (Simulation time: 1 hr 20 min 26 sec) 
Heartbeat CPU 0 instructions: 123000000 cycles: 159076919 heartbeat IPC: 0.561598 cumulative IPC: 0.56525 (Simulation time: 1 hr 20 min 52 sec) 
Heartbeat CPU 0 instructions: 124000000 cycles: 160856097 heartbeat IPC: 0.562057 cumulative IPC: 0.565207 (Simulation time: 1 hr 21 min 16 sec) 
Heartbeat CPU 0 instructions: 125000000 cycles: 162619448 heartbeat IPC: 0.567102 cumulative IPC: 0.565232 (Simulation time: 1 hr 21 min 39 sec) 
Heartbeat CPU 0 instructions: 126000003 cycles: 164400153 heartbeat IPC: 0.561577 cumulative IPC: 0.565183 (Simulation time: 1 hr 22 min 2 sec) 
Heartbeat CPU 0 instructions: 127000000 cycles: 166182370 heartbeat IPC: 0.561097 cumulative IPC: 0.56513 (Simulation time: 1 hr 22 min 25 sec) 
Heartbeat CPU 0 instructions: 128000000 cycles: 167960808 heartbeat IPC: 0.562291 cumulative IPC: 0.565093 (Simulation time: 1 hr 22 min 49 sec) 
Heartbeat CPU 0 instructions: 129000002 cycles: 169729235 heartbeat IPC: 0.565475 cumulative IPC: 0.565098 (Simulation time: 1 hr 23 min 12 sec) 
Heartbeat CPU 0 instructions: 130000000 cycles: 171503561 heartbeat IPC: 0.563593 cumulative IPC: 0.565079 (Simulation time: 1 hr 23 min 33 sec) 
Heartbeat CPU 0 instructions: 131000002 cycles: 173281480 heartbeat IPC: 0.562456 cumulative IPC: 0.565047 (Simulation time: 1 hr 23 min 54 sec) 
Heartbeat CPU 0 instructions: 132000000 cycles: 175065422 heartbeat IPC: 0.560555 cumulative IPC: 0.564992 (Simulation time: 1 hr 24 min 13 sec) 
Heartbeat CPU 0 instructions: 133000000 cycles: 176847986 heartbeat IPC: 0.56099 cumulative IPC: 0.564943 (Simulation time: 1 hr 24 min 30 sec) 
Heartbeat CPU 0 instructions: 134000000 cycles: 178609721 heartbeat IPC: 0.567622 cumulative IPC: 0.564975 (Simulation time: 1 hr 24 min 47 sec) 
Heartbeat CPU 0 instructions: 135000000 cycles: 180391496 heartbeat IPC: 0.561238 cumulative IPC: 0.56493 (Simulation time: 1 hr 25 min 5 sec) 
Heartbeat CPU 0 instructions: 136000000 cycles: 182171808 heartbeat IPC: 0.561699 cumulative IPC: 0.564893 (Simulation time: 1 hr 25 min 22 sec) 
Heartbeat CPU 0 instructions: 137000000 cycles: 183954723 heartbeat IPC: 0.560879 cumulative IPC: 0.564846 (Simulation time: 1 hr 25 min 39 sec) 
Heartbeat CPU 0 instructions: 138000000 cycles: 185727960 heartbeat IPC: 0.56394 cumulative IPC: 0.564836 (Simulation time: 1 hr 25 min 54 sec) 
Heartbeat CPU 0 instructions: 139000001 cycles: 187507690 heartbeat IPC: 0.561884 cumulative IPC: 0.564803 (Simulation time: 1 hr 26 min 8 sec) 
Heartbeat CPU 0 instructions: 140000000 cycles: 189285268 heartbeat IPC: 0.562563 cumulative IPC: 0.564778 (Simulation time: 1 hr 26 min 23 sec) 
Heartbeat CPU 0 instructions: 141000001 cycles: 191063401 heartbeat IPC: 0.562388 cumulative IPC: 0.564751 (Simulation time: 1 hr 26 min 38 sec) 
Heartbeat CPU 0 instructions: 142000000 cycles: 192842139 heartbeat IPC: 0.562196 cumulative IPC: 0.564723 (Simulation time: 1 hr 26 min 52 sec) 
Heartbeat CPU 0 instructions: 143000001 cycles: 194622638 heartbeat IPC: 0.561641 cumulative IPC: 0.56469 (Simulation time: 1 hr 27 min 5 sec) 
Heartbeat CPU 0 instructions: 144000000 cycles: 196402726 heartbeat IPC: 0.561769 cumulative IPC: 0.564659 (Simulation time: 1 hr 27 min 19 sec) 
Heartbeat CPU 0 instructions: 145000000 cycles: 198183521 heartbeat IPC: 0.561547 cumulative IPC: 0.564626 (Simulation time: 1 hr 27 min 31 sec) 
Heartbeat CPU 0 instructions: 146000000 cycles: 199975208 heartbeat IPC: 0.558133 cumulative IPC: 0.564557 (Simulation time: 1 hr 27 min 44 sec) 
Heartbeat CPU 0 instructions: 147000003 cycles: 201750135 heartbeat IPC: 0.563405 cumulative IPC: 0.564546 (Simulation time: 1 hr 27 min 57 sec) 
Heartbeat CPU 0 instructions: 148000000 cycles: 203531965 heartbeat IPC: 0.561219 cumulative IPC: 0.564511 (Simulation time: 1 hr 28 min 10 sec) 
Heartbeat CPU 0 instructions: 149000002 cycles: 205309843 heartbeat IPC: 0.562469 cumulative IPC: 0.564491 (Simulation time: 1 hr 28 min 23 sec) 
Heartbeat CPU 0 instructions: 150000002 cycles: 207107370 heartbeat IPC: 0.55632 cumulative IPC: 0.564408 (Simulation time: 1 hr 28 min 35 sec) 
Finished CPU 0 instructions: 100000000 cycles: 177176864 cummulative IPC: 0.564408 (Simulation time: 1 hr 28 min 35 sec) 

ChampSim completed all CPUs

Region of Interest Statistics

CPU 0 cummulative IPC: 0.564408 instructions: 100000000 cycles: 177176864
LLC TOTAL     ACCESS:     134370  HIT:      43969  MISS:      90401
LLC LOAD      ACCESS:      14861  HIT:       3556  MISS:      11305
LLC RFO       ACCESS:       1060  HIT:        150  MISS:        910
LLC PREFETCH  ACCESS:      79220  HIT:       7815  MISS:      71405
LLC WRITEBACK ACCESS:      39229  HIT:      32448  MISS:       6781
OPTgen accesses: 1507
OPTgen hits: 1061
OPTgen hit rate: 70.4048


