
*** ChampSim Multicore Out-of-Order Simulator ***

Warmup Instructions: 50000000
Simulation Instructions: 100000000
Configuration: 2
Number of CPUs: 1
LLC sets: 2048
LLC ways: 16
Off-chip DRAM Channels: 1 Width: 64-bit Data Rate: 1600 MT/s

CPU 0 runs /datasets/cs240c-wi22-a00-public/data/Assignment2-gz/GemsFDTD_712B.trace.gz
CPU 0 L1D next line prefetcher
CPU 0 L2C IP-based stride prefetcher
Initialize Hawkeye state
Heartbeat CPU 0 instructions: 1000003 cycles: 634340 heartbeat IPC: 1.57645 cumulative IPC: 1.57645 (Simulation time: 0 hr 0 min 45 sec) 
Heartbeat CPU 0 instructions: 2000000 cycles: 1268296 heartbeat IPC: 1.57739 cumulative IPC: 1.57692 (Simulation time: 0 hr 1 min 33 sec) 
Heartbeat CPU 0 instructions: 3000000 cycles: 1902422 heartbeat IPC: 1.57697 cumulative IPC: 1.57694 (Simulation time: 0 hr 2 min 10 sec) 
Heartbeat CPU 0 instructions: 4000000 cycles: 2536288 heartbeat IPC: 1.57762 cumulative IPC: 1.57711 (Simulation time: 0 hr 2 min 54 sec) 
Heartbeat CPU 0 instructions: 5000003 cycles: 3170607 heartbeat IPC: 1.5765 cumulative IPC: 1.57699 (Simulation time: 0 hr 3 min 36 sec) 
Heartbeat CPU 0 instructions: 6000002 cycles: 3804694 heartbeat IPC: 1.57707 cumulative IPC: 1.577 (Simulation time: 0 hr 4 min 18 sec) 
Heartbeat CPU 0 instructions: 7000001 cycles: 4439036 heartbeat IPC: 1.57644 cumulative IPC: 1.57692 (Simulation time: 0 hr 5 min 1 sec) 
Heartbeat CPU 0 instructions: 8000000 cycles: 5073025 heartbeat IPC: 1.57731 cumulative IPC: 1.57697 (Simulation time: 0 hr 5 min 49 sec) 
Heartbeat CPU 0 instructions: 9000001 cycles: 5707305 heartbeat IPC: 1.57659 cumulative IPC: 1.57693 (Simulation time: 0 hr 6 min 29 sec) 
Heartbeat CPU 0 instructions: 10000002 cycles: 6341281 heartbeat IPC: 1.57735 cumulative IPC: 1.57697 (Simulation time: 0 hr 7 min 10 sec) 
Heartbeat CPU 0 instructions: 11000002 cycles: 6975277 heartbeat IPC: 1.5773 cumulative IPC: 1.577 (Simulation time: 0 hr 8 min 3 sec) 
Heartbeat CPU 0 instructions: 12000000 cycles: 7609361 heartbeat IPC: 1.57708 cumulative IPC: 1.577 (Simulation time: 0 hr 8 min 48 sec) 
Heartbeat CPU 0 instructions: 13000000 cycles: 8243592 heartbeat IPC: 1.57671 cumulative IPC: 1.57698 (Simulation time: 0 hr 9 min 30 sec) 
Heartbeat CPU 0 instructions: 14000001 cycles: 8877943 heartbeat IPC: 1.57642 cumulative IPC: 1.57694 (Simulation time: 0 hr 10 min 8 sec) 
Heartbeat CPU 0 instructions: 15000001 cycles: 9512256 heartbeat IPC: 1.57651 cumulative IPC: 1.57691 (Simulation time: 0 hr 10 min 51 sec) 
Heartbeat CPU 0 instructions: 16000000 cycles: 10146267 heartbeat IPC: 1.57726 cumulative IPC: 1.57693 (Simulation time: 0 hr 11 min 32 sec) 
Heartbeat CPU 0 instructions: 17000000 cycles: 10780445 heartbeat IPC: 1.57684 cumulative IPC: 1.57693 (Simulation time: 0 hr 12 min 10 sec) 
Heartbeat CPU 0 instructions: 18000003 cycles: 11414468 heartbeat IPC: 1.57723 cumulative IPC: 1.57695 (Simulation time: 0 hr 12 min 52 sec) 
Heartbeat CPU 0 instructions: 19000000 cycles: 12048651 heartbeat IPC: 1.57683 cumulative IPC: 1.57694 (Simulation time: 0 hr 13 min 33 sec) 
Heartbeat CPU 0 instructions: 20000000 cycles: 12682884 heartbeat IPC: 1.57671 cumulative IPC: 1.57693 (Simulation time: 0 hr 14 min 13 sec) 
Heartbeat CPU 0 instructions: 21000002 cycles: 13317224 heartbeat IPC: 1.57644 cumulative IPC: 1.57691 (Simulation time: 0 hr 14 min 57 sec) 
Heartbeat CPU 0 instructions: 22000000 cycles: 13951253 heartbeat IPC: 1.57721 cumulative IPC: 1.57692 (Simulation time: 0 hr 15 min 39 sec) 
Heartbeat CPU 0 instructions: 23000002 cycles: 14585374 heartbeat IPC: 1.57699 cumulative IPC: 1.57692 (Simulation time: 0 hr 16 min 21 sec) 
Heartbeat CPU 0 instructions: 24000000 cycles: 15219441 heartbeat IPC: 1.57712 cumulative IPC: 1.57693 (Simulation time: 0 hr 17 min 2 sec) 
Heartbeat CPU 0 instructions: 25000000 cycles: 15853660 heartbeat IPC: 1.57674 cumulative IPC: 1.57692 (Simulation time: 0 hr 17 min 39 sec) 
Heartbeat CPU 0 instructions: 26000002 cycles: 16487928 heartbeat IPC: 1.57662 cumulative IPC: 1.57691 (Simulation time: 0 hr 18 min 24 sec) 
Heartbeat CPU 0 instructions: 27000002 cycles: 17122182 heartbeat IPC: 1.57666 cumulative IPC: 1.5769 (Simulation time: 0 hr 19 min 7 sec) 
Heartbeat CPU 0 instructions: 28000000 cycles: 17756261 heartbeat IPC: 1.57709 cumulative IPC: 1.57691 (Simulation time: 0 hr 19 min 42 sec) 
Heartbeat CPU 0 instructions: 29000001 cycles: 18390474 heartbeat IPC: 1.57676 cumulative IPC: 1.5769 (Simulation time: 0 hr 20 min 25 sec) 
Heartbeat CPU 0 instructions: 30000000 cycles: 19024483 heartbeat IPC: 1.57726 cumulative IPC: 1.57692 (Simulation time: 0 hr 21 min 3 sec) 
Heartbeat CPU 0 instructions: 31000001 cycles: 19658575 heartbeat IPC: 1.57706 cumulative IPC: 1.57692 (Simulation time: 0 hr 21 min 43 sec) 
Heartbeat CPU 0 instructions: 32000000 cycles: 20292762 heartbeat IPC: 1.57682 cumulative IPC: 1.57692 (Simulation time: 0 hr 22 min 29 sec) 
Heartbeat CPU 0 instructions: 33000003 cycles: 20927107 heartbeat IPC: 1.57643 cumulative IPC: 1.5769 (Simulation time: 0 hr 23 min 9 sec) 
Heartbeat CPU 0 instructions: 34000001 cycles: 21561258 heartbeat IPC: 1.57691 cumulative IPC: 1.5769 (Simulation time: 0 hr 23 min 51 sec) 
Heartbeat CPU 0 instructions: 35000002 cycles: 22195416 heartbeat IPC: 1.5769 cumulative IPC: 1.5769 (Simulation time: 0 hr 24 min 35 sec) 
Heartbeat CPU 0 instructions: 36000000 cycles: 22829332 heartbeat IPC: 1.57749 cumulative IPC: 1.57692 (Simulation time: 0 hr 25 min 17 sec) 
Heartbeat CPU 0 instructions: 37000000 cycles: 23463505 heartbeat IPC: 1.57686 cumulative IPC: 1.57692 (Simulation time: 0 hr 25 min 56 sec) 
Heartbeat CPU 0 instructions: 38000003 cycles: 24097579 heartbeat IPC: 1.57711 cumulative IPC: 1.57692 (Simulation time: 0 hr 26 min 35 sec) 
Heartbeat CPU 0 instructions: 39000001 cycles: 24731960 heartbeat IPC: 1.57634 cumulative IPC: 1.57691 (Simulation time: 0 hr 27 min 15 sec) 
Heartbeat CPU 0 instructions: 40000000 cycles: 25366195 heartbeat IPC: 1.5767 cumulative IPC: 1.5769 (Simulation time: 0 hr 27 min 55 sec) 
Heartbeat CPU 0 instructions: 41000003 cycles: 26000549 heartbeat IPC: 1.57641 cumulative IPC: 1.57689 (Simulation time: 0 hr 28 min 39 sec) 
Heartbeat CPU 0 instructions: 42000000 cycles: 26634495 heartbeat IPC: 1.57742 cumulative IPC: 1.5769 (Simulation time: 0 hr 29 min 16 sec) 
Heartbeat CPU 0 instructions: 43000002 cycles: 27268550 heartbeat IPC: 1.57715 cumulative IPC: 1.57691 (Simulation time: 0 hr 29 min 57 sec) 
Heartbeat CPU 0 instructions: 44000000 cycles: 27902647 heartbeat IPC: 1.57704 cumulative IPC: 1.57691 (Simulation time: 0 hr 30 min 35 sec) 
Heartbeat CPU 0 instructions: 45000003 cycles: 28536951 heartbeat IPC: 1.57654 cumulative IPC: 1.5769 (Simulation time: 0 hr 31 min 12 sec) 
Heartbeat CPU 0 instructions: 46000002 cycles: 29171115 heartbeat IPC: 1.57688 cumulative IPC: 1.5769 (Simulation time: 0 hr 31 min 54 sec) 
Heartbeat CPU 0 instructions: 47000001 cycles: 29805388 heartbeat IPC: 1.57661 cumulative IPC: 1.5769 (Simulation time: 0 hr 32 min 39 sec) 
Heartbeat CPU 0 instructions: 48000000 cycles: 30439273 heartbeat IPC: 1.57757 cumulative IPC: 1.57691 (Simulation time: 0 hr 33 min 20 sec) 
Heartbeat CPU 0 instructions: 49000001 cycles: 31073494 heartbeat IPC: 1.57674 cumulative IPC: 1.57691 (Simulation time: 0 hr 34 min 0 sec) 
Heartbeat CPU 0 instructions: 50000000 cycles: 31707515 heartbeat IPC: 1.57723 cumulative IPC: 1.57691 (Simulation time: 0 hr 34 min 38 sec) 

Warmup complete CPU 0 instructions: 50000004 cycles: 31707516 (Simulation time: 0 hr 34 min 38 sec) 

Heartbeat CPU 0 instructions: 51000002 cycles: 33354188 heartbeat IPC: 0.607286 cumulative IPC: 0.607284 (Simulation time: 0 hr 35 min 25 sec) 
Heartbeat CPU 0 instructions: 52000000 cycles: 34981225 heartbeat IPC: 0.614613 cumulative IPC: 0.610927 (Simulation time: 0 hr 36 min 10 sec) 
Heartbeat CPU 0 instructions: 53000000 cycles: 36640812 heartbeat IPC: 0.60256 cumulative IPC: 0.608112 (Simulation time: 0 hr 36 min 53 sec) 
Heartbeat CPU 0 instructions: 54000000 cycles: 38251019 heartbeat IPC: 0.621038 cumulative IPC: 0.611293 (Simulation time: 0 hr 37 min 39 sec) 
Heartbeat CPU 0 instructions: 55000003 cycles: 39857733 heartbeat IPC: 0.62239 cumulative IPC: 0.61348 (Simulation time: 0 hr 38 min 19 sec) 
Heartbeat CPU 0 instructions: 56000000 cycles: 41498084 heartbeat IPC: 0.609624 cumulative IPC: 0.612834 (Simulation time: 0 hr 39 min 3 sec) 
Heartbeat CPU 0 instructions: 57000000 cycles: 43168435 heartbeat IPC: 0.598677 cumulative IPC: 0.610771 (Simulation time: 0 hr 40 min 1 sec) 
Heartbeat CPU 0 instructions: 58000001 cycles: 44806812 heartbeat IPC: 0.610361 cumulative IPC: 0.61072 (Simulation time: 0 hr 40 min 50 sec) 
Heartbeat CPU 0 instructions: 59000001 cycles: 46447284 heartbeat IPC: 0.609581 cumulative IPC: 0.610593 (Simulation time: 0 hr 41 min 34 sec) 
Heartbeat CPU 0 instructions: 60000000 cycles: 48096660 heartbeat IPC: 0.606289 cumulative IPC: 0.61016 (Simulation time: 0 hr 42 min 21 sec) 
Heartbeat CPU 0 instructions: 61000001 cycles: 49702194 heartbeat IPC: 0.622846 cumulative IPC: 0.611292 (Simulation time: 0 hr 43 min 3 sec) 
Heartbeat CPU 0 instructions: 62000000 cycles: 51311113 heartbeat IPC: 0.621535 cumulative IPC: 0.612132 (Simulation time: 0 hr 43 min 57 sec) 
Heartbeat CPU 0 instructions: 63000003 cycles: 52951750 heartbeat IPC: 0.609521 cumulative IPC: 0.611931 (Simulation time: 0 hr 44 min 44 sec) 
Heartbeat CPU 0 instructions: 64000000 cycles: 54593299 heartbeat IPC: 0.609179 cumulative IPC: 0.611733 (Simulation time: 0 hr 45 min 31 sec) 
Heartbeat CPU 0 instructions: 65000003 cycles: 56244113 heartbeat IPC: 0.605764 cumulative IPC: 0.611332 (Simulation time: 0 hr 46 min 11 sec) 
Heartbeat CPU 0 instructions: 66000000 cycles: 57858256 heartbeat IPC: 0.619522 cumulative IPC: 0.611837 (Simulation time: 0 hr 46 min 51 sec) 
Heartbeat CPU 0 instructions: 67000000 cycles: 59478862 heartbeat IPC: 0.617053 cumulative IPC: 0.612142 (Simulation time: 0 hr 47 min 34 sec) 
Heartbeat CPU 0 instructions: 68000000 cycles: 61099155 heartbeat IPC: 0.617172 cumulative IPC: 0.612419 (Simulation time: 0 hr 48 min 18 sec) 
Heartbeat CPU 0 instructions: 69000000 cycles: 62706734 heartbeat IPC: 0.622053 cumulative IPC: 0.612919 (Simulation time: 0 hr 49 min 7 sec) 
Heartbeat CPU 0 instructions: 70000002 cycles: 64362648 heartbeat IPC: 0.603897 cumulative IPC: 0.612461 (Simulation time: 0 hr 49 min 56 sec) 
Heartbeat CPU 0 instructions: 71000002 cycles: 66049711 heartbeat IPC: 0.592746 cumulative IPC: 0.611493 (Simulation time: 0 hr 50 min 42 sec) 
Heartbeat CPU 0 instructions: 72000000 cycles: 67807267 heartbeat IPC: 0.568971 cumulative IPC: 0.609422 (Simulation time: 0 hr 51 min 30 sec) 
Heartbeat CPU 0 instructions: 73000000 cycles: 69479786 heartbeat IPC: 0.597901 cumulative IPC: 0.608912 (Simulation time: 0 hr 52 min 18 sec) 
Heartbeat CPU 0 instructions: 74000001 cycles: 71170875 heartbeat IPC: 0.591336 cumulative IPC: 0.608159 (Simulation time: 0 hr 53 min 10 sec) 
Heartbeat CPU 0 instructions: 75000003 cycles: 72847648 heartbeat IPC: 0.596385 cumulative IPC: 0.607679 (Simulation time: 0 hr 53 min 58 sec) 
Heartbeat CPU 0 instructions: 76000000 cycles: 74518430 heartbeat IPC: 0.59852 cumulative IPC: 0.607322 (Simulation time: 0 hr 54 min 51 sec) 
Heartbeat CPU 0 instructions: 77000000 cycles: 76202454 heartbeat IPC: 0.593816 cumulative IPC: 0.606811 (Simulation time: 0 hr 55 min 39 sec) 
Heartbeat CPU 0 instructions: 78000001 cycles: 77871829 heartbeat IPC: 0.599027 cumulative IPC: 0.606529 (Simulation time: 0 hr 56 min 32 sec) 
Heartbeat CPU 0 instructions: 79000003 cycles: 79542856 heartbeat IPC: 0.598436 cumulative IPC: 0.606246 (Simulation time: 0 hr 57 min 20 sec) 
Heartbeat CPU 0 instructions: 80000000 cycles: 81232555 heartbeat IPC: 0.59182 cumulative IPC: 0.605754 (Simulation time: 0 hr 58 min 6 sec) 
Heartbeat CPU 0 instructions: 81000001 cycles: 82920355 heartbeat IPC: 0.592488 cumulative IPC: 0.605317 (Simulation time: 0 hr 58 min 54 sec) 
Heartbeat CPU 0 instructions: 82000000 cycles: 84610126 heartbeat IPC: 0.591796 cumulative IPC: 0.604885 (Simulation time: 0 hr 59 min 47 sec) 
Heartbeat CPU 0 instructions: 83000001 cycles: 86280441 heartbeat IPC: 0.59869 cumulative IPC: 0.604695 (Simulation time: 1 hr 0 min 33 sec) 
Heartbeat CPU 0 instructions: 84000000 cycles: 87963889 heartbeat IPC: 0.594018 cumulative IPC: 0.604376 (Simulation time: 1 hr 1 min 33 sec) 
Heartbeat CPU 0 instructions: 85000000 cycles: 89640770 heartbeat IPC: 0.596345 cumulative IPC: 0.604143 (Simulation time: 1 hr 2 min 18 sec) 
Heartbeat CPU 0 instructions: 86000000 cycles: 91312205 heartbeat IPC: 0.598288 cumulative IPC: 0.603979 (Simulation time: 1 hr 3 min 6 sec) 
Heartbeat CPU 0 instructions: 87000001 cycles: 93001763 heartbeat IPC: 0.591871 cumulative IPC: 0.603646 (Simulation time: 1 hr 4 min 1 sec) 
Heartbeat CPU 0 instructions: 88000000 cycles: 94682190 heartbeat IPC: 0.595086 cumulative IPC: 0.603417 (Simulation time: 1 hr 4 min 49 sec) 
Heartbeat CPU 0 instructions: 89000003 cycles: 96370400 heartbeat IPC: 0.592345 cumulative IPC: 0.603128 (Simulation time: 1 hr 5 min 38 sec) 
Heartbeat CPU 0 instructions: 90000000 cycles: 98058065 heartbeat IPC: 0.592533 cumulative IPC: 0.602859 (Simulation time: 1 hr 6 min 28 sec) 
Heartbeat CPU 0 instructions: 91000001 cycles: 99740294 heartbeat IPC: 0.59445 cumulative IPC: 0.602651 (Simulation time: 1 hr 7 min 14 sec) 
Heartbeat CPU 0 instructions: 92000000 cycles: 101430536 heartbeat IPC: 0.591631 cumulative IPC: 0.602383 (Simulation time: 1 hr 8 min 4 sec) 
Heartbeat CPU 0 instructions: 93000003 cycles: 103116485 heartbeat IPC: 0.59314 cumulative IPC: 0.602165 (Simulation time: 1 hr 8 min 48 sec) 
Heartbeat CPU 0 instructions: 94000002 cycles: 104790335 heartbeat IPC: 0.597425 cumulative IPC: 0.602057 (Simulation time: 1 hr 9 min 30 sec) 
Heartbeat CPU 0 instructions: 95000000 cycles: 106482048 heartbeat IPC: 0.591116 cumulative IPC: 0.601809 (Simulation time: 1 hr 10 min 13 sec) 
Heartbeat CPU 0 instructions: 96000000 cycles: 108156127 heartbeat IPC: 0.597343 cumulative IPC: 0.601711 (Simulation time: 1 hr 10 min 53 sec) 
Heartbeat CPU 0 instructions: 97000003 cycles: 109841769 heartbeat IPC: 0.593248 cumulative IPC: 0.601529 (Simulation time: 1 hr 11 min 30 sec) 
Heartbeat CPU 0 instructions: 98000000 cycles: 111526080 heartbeat IPC: 0.593713 cumulative IPC: 0.601364 (Simulation time: 1 hr 12 min 7 sec) 
Heartbeat CPU 0 instructions: 99000001 cycles: 113217074 heartbeat IPC: 0.591369 cumulative IPC: 0.601156 (Simulation time: 1 hr 12 min 43 sec) 
Heartbeat CPU 0 instructions: 100000000 cycles: 114903375 heartbeat IPC: 0.593013 cumulative IPC: 0.600991 (Simulation time: 1 hr 13 min 18 sec) 
Heartbeat CPU 0 instructions: 101000001 cycles: 116586210 heartbeat IPC: 0.594236 cumulative IPC: 0.600857 (Simulation time: 1 hr 13 min 52 sec) 
Heartbeat CPU 0 instructions: 102000002 cycles: 118260054 heartbeat IPC: 0.597428 cumulative IPC: 0.600791 (Simulation time: 1 hr 14 min 26 sec) 
Heartbeat CPU 0 instructions: 103000000 cycles: 119943819 heartbeat IPC: 0.593906 cumulative IPC: 0.60066 (Simulation time: 1 hr 14 min 59 sec) 
Heartbeat CPU 0 instructions: 104000000 cycles: 121631973 heartbeat IPC: 0.592363 cumulative IPC: 0.600504 (Simulation time: 1 hr 15 min 34 sec) 
Heartbeat CPU 0 instructions: 105000000 cycles: 123312980 heartbeat IPC: 0.594882 cumulative IPC: 0.600401 (Simulation time: 1 hr 16 min 7 sec) 
Heartbeat CPU 0 instructions: 106000002 cycles: 124987490 heartbeat IPC: 0.597191 cumulative IPC: 0.600343 (Simulation time: 1 hr 16 min 40 sec) 
Heartbeat CPU 0 instructions: 107000000 cycles: 126677410 heartbeat IPC: 0.591743 cumulative IPC: 0.60019 (Simulation time: 1 hr 17 min 9 sec) 
Heartbeat CPU 0 instructions: 108000000 cycles: 128354144 heartbeat IPC: 0.596398 cumulative IPC: 0.600124 (Simulation time: 1 hr 17 min 40 sec) 
Heartbeat CPU 0 instructions: 109000003 cycles: 130037316 heartbeat IPC: 0.594118 cumulative IPC: 0.600022 (Simulation time: 1 hr 18 min 9 sec) 
Heartbeat CPU 0 instructions: 110000001 cycles: 131719193 heartbeat IPC: 0.594573 cumulative IPC: 0.59993 (Simulation time: 1 hr 18 min 38 sec) 
Heartbeat CPU 0 instructions: 111000001 cycles: 133397069 heartbeat IPC: 0.595992 cumulative IPC: 0.599865 (Simulation time: 1 hr 19 min 7 sec) 
Heartbeat CPU 0 instructions: 112000000 cycles: 135075561 heartbeat IPC: 0.595772 cumulative IPC: 0.599799 (Simulation time: 1 hr 19 min 36 sec) 
Heartbeat CPU 0 instructions: 113000002 cycles: 136759031 heartbeat IPC: 0.594012 cumulative IPC: 0.599706 (Simulation time: 1 hr 20 min 4 sec) 
Heartbeat CPU 0 instructions: 114000002 cycles: 138445069 heartbeat IPC: 0.593106 cumulative IPC: 0.599602 (Simulation time: 1 hr 20 min 30 sec) 
Heartbeat CPU 0 instructions: 115000002 cycles: 140128837 heartbeat IPC: 0.593906 cumulative IPC: 0.599513 (Simulation time: 1 hr 20 min 55 sec) 
Heartbeat CPU 0 instructions: 116000000 cycles: 141808368 heartbeat IPC: 0.595403 cumulative IPC: 0.59945 (Simulation time: 1 hr 21 min 20 sec) 
Heartbeat CPU 0 instructions: 117000001 cycles: 143489579 heartbeat IPC: 0.59481 cumulative IPC: 0.599381 (Simulation time: 1 hr 21 min 45 sec) 
Heartbeat CPU 0 instructions: 118000002 cycles: 145177572 heartbeat IPC: 0.59242 cumulative IPC: 0.599277 (Simulation time: 1 hr 22 min 10 sec) 
Heartbeat CPU 0 instructions: 119000001 cycles: 146863683 heartbeat IPC: 0.59308 cumulative IPC: 0.599186 (Simulation time: 1 hr 22 min 35 sec) 
Heartbeat CPU 0 instructions: 120000000 cycles: 149152981 heartbeat IPC: 0.436815 cumulative IPC: 0.596021 (Simulation time: 1 hr 23 min 2 sec) 
Heartbeat CPU 0 instructions: 121000000 cycles: 158005518 heartbeat IPC: 0.112962 cumulative IPC: 0.562162 (Simulation time: 1 hr 23 min 46 sec) 
Heartbeat CPU 0 instructions: 122000002 cycles: 166804845 heartbeat IPC: 0.113645 cumulative IPC: 0.532949 (Simulation time: 1 hr 24 min 25 sec) 
Heartbeat CPU 0 instructions: 123000002 cycles: 175556757 heartbeat IPC: 0.114261 cumulative IPC: 0.507476 (Simulation time: 1 hr 24 min 59 sec) 
Heartbeat CPU 0 instructions: 124000000 cycles: 184408558 heartbeat IPC: 0.112971 cumulative IPC: 0.484607 (Simulation time: 1 hr 25 min 31 sec) 
Heartbeat CPU 0 instructions: 125000001 cycles: 187041303 heartbeat IPC: 0.379832 cumulative IPC: 0.482831 (Simulation time: 1 hr 25 min 50 sec) 
Heartbeat CPU 0 instructions: 126000003 cycles: 188614522 heartbeat IPC: 0.635641 cumulative IPC: 0.484363 (Simulation time: 1 hr 26 min 6 sec) 
Heartbeat CPU 0 instructions: 127000000 cycles: 190195938 heartbeat IPC: 0.632343 cumulative IPC: 0.48584 (Simulation time: 1 hr 26 min 21 sec) 
Heartbeat CPU 0 instructions: 128000000 cycles: 191788969 heartbeat IPC: 0.627734 cumulative IPC: 0.487252 (Simulation time: 1 hr 26 min 37 sec) 
Heartbeat CPU 0 instructions: 129000001 cycles: 193381011 heartbeat IPC: 0.628125 cumulative IPC: 0.488639 (Simulation time: 1 hr 26 min 52 sec) 
Heartbeat CPU 0 instructions: 130000003 cycles: 194974971 heartbeat IPC: 0.62737 cumulative IPC: 0.489994 (Simulation time: 1 hr 27 min 6 sec) 
Heartbeat CPU 0 instructions: 131000001 cycles: 196574200 heartbeat IPC: 0.6253 cumulative IPC: 0.491306 (Simulation time: 1 hr 27 min 20 sec) 
Heartbeat CPU 0 instructions: 132000000 cycles: 198167411 heartbeat IPC: 0.627663 cumulative IPC: 0.492611 (Simulation time: 1 hr 27 min 32 sec) 
Heartbeat CPU 0 instructions: 133000002 cycles: 199765233 heartbeat IPC: 0.625853 cumulative IPC: 0.493878 (Simulation time: 1 hr 27 min 44 sec) 
Heartbeat CPU 0 instructions: 134000000 cycles: 201362108 heartbeat IPC: 0.626222 cumulative IPC: 0.495124 (Simulation time: 1 hr 27 min 58 sec) 
Heartbeat CPU 0 instructions: 135000003 cycles: 202959624 heartbeat IPC: 0.625974 cumulative IPC: 0.496344 (Simulation time: 1 hr 28 min 10 sec) 
Heartbeat CPU 0 instructions: 136000000 cycles: 204564545 heartbeat IPC: 0.623082 cumulative IPC: 0.497521 (Simulation time: 1 hr 28 min 23 sec) 
Heartbeat CPU 0 instructions: 137000003 cycles: 206163274 heartbeat IPC: 0.625499 cumulative IPC: 0.498694 (Simulation time: 1 hr 28 min 36 sec) 
Heartbeat CPU 0 instructions: 138000000 cycles: 207768398 heartbeat IPC: 0.623003 cumulative IPC: 0.499827 (Simulation time: 1 hr 28 min 47 sec) 
Heartbeat CPU 0 instructions: 139000002 cycles: 209373369 heartbeat IPC: 0.623065 cumulative IPC: 0.50094 (Simulation time: 1 hr 29 min 0 sec) 
Heartbeat CPU 0 instructions: 140000000 cycles: 210967817 heartbeat IPC: 0.627175 cumulative IPC: 0.502063 (Simulation time: 1 hr 29 min 10 sec) 
Heartbeat CPU 0 instructions: 141000000 cycles: 212576998 heartbeat IPC: 0.621434 cumulative IPC: 0.503125 (Simulation time: 1 hr 29 min 19 sec) 
Heartbeat CPU 0 instructions: 142000001 cycles: 214172707 heartbeat IPC: 0.626681 cumulative IPC: 0.504206 (Simulation time: 1 hr 29 min 28 sec) 
Heartbeat CPU 0 instructions: 143000001 cycles: 215764632 heartbeat IPC: 0.62817 cumulative IPC: 0.505278 (Simulation time: 1 hr 29 min 38 sec) 
Heartbeat CPU 0 instructions: 144000000 cycles: 217360965 heartbeat IPC: 0.626435 cumulative IPC: 0.50632 (Simulation time: 1 hr 29 min 47 sec) 
Heartbeat CPU 0 instructions: 145000000 cycles: 218949130 heartbeat IPC: 0.629658 cumulative IPC: 0.507366 (Simulation time: 1 hr 29 min 56 sec) 
Heartbeat CPU 0 instructions: 146000002 cycles: 220546640 heartbeat IPC: 0.625975 cumulative IPC: 0.508369 (Simulation time: 1 hr 30 min 5 sec) 
Heartbeat CPU 0 instructions: 147000002 cycles: 222146601 heartbeat IPC: 0.625015 cumulative IPC: 0.509349 (Simulation time: 1 hr 30 min 15 sec) 
Heartbeat CPU 0 instructions: 148000000 cycles: 223748905 heartbeat IPC: 0.6241 cumulative IPC: 0.510307 (Simulation time: 1 hr 30 min 23 sec) 
Heartbeat CPU 0 instructions: 149000000 cycles: 225360582 heartbeat IPC: 0.620472 cumulative IPC: 0.511223 (Simulation time: 1 hr 30 min 32 sec) 
Heartbeat CPU 0 instructions: 150000002 cycles: 226968554 heartbeat IPC: 0.621903 cumulative IPC: 0.512135 (Simulation time: 1 hr 30 min 40 sec) 
Finished CPU 0 instructions: 100000002 cycles: 195261039 cummulative IPC: 0.512135 (Simulation time: 1 hr 30 min 40 sec) 

ChampSim completed all CPUs

Region of Interest Statistics

CPU 0 cummulative IPC: 0.512135 instructions: 100000002 cycles: 195261039
LLC TOTAL     ACCESS:    5928152  HIT:     955238  MISS:    4972914
LLC LOAD      ACCESS:    1303404  HIT:     202371  MISS:    1101033
LLC RFO       ACCESS:         26  HIT:          1  MISS:         25
LLC PREFETCH  ACCESS:    3082748  HIT:     399266  MISS:    2683482
LLC WRITEBACK ACCESS:    1541974  HIT:     353600  MISS:    1188374
OPTgen accesses: 88003
OPTgen hits: 25744
OPTgen hit rate: 29.2535


