
*** ChampSim Multicore Out-of-Order Simulator ***

Warmup Instructions: 50000000
Simulation Instructions: 100000000
Configuration: 2
Number of CPUs: 1
LLC sets: 2048
LLC ways: 16
Off-chip DRAM Channels: 1 Width: 64-bit Data Rate: 1600 MT/s

CPU 0 runs /datasets/cs240c-wi22-a00-public/data/Assignment2-gz/leslie3d_94B.trace.gz
CPU 0 L1D next line prefetcher
CPU 0 L2C IP-based stride prefetcher
Initialize Hawkeye state
Heartbeat CPU 0 instructions: 1000003 cycles: 597056 heartbeat IPC: 1.67489 cumulative IPC: 1.67489 (Simulation time: 0 hr 0 min 35 sec) 
Heartbeat CPU 0 instructions: 2000002 cycles: 1215914 heartbeat IPC: 1.61588 cumulative IPC: 1.64485 (Simulation time: 0 hr 1 min 10 sec) 
Heartbeat CPU 0 instructions: 3000003 cycles: 1867713 heartbeat IPC: 1.53422 cumulative IPC: 1.60624 (Simulation time: 0 hr 1 min 46 sec) 
Heartbeat CPU 0 instructions: 4000000 cycles: 2518970 heartbeat IPC: 1.53549 cumulative IPC: 1.58795 (Simulation time: 0 hr 2 min 21 sec) 
Heartbeat CPU 0 instructions: 5000002 cycles: 3083976 heartbeat IPC: 1.7699 cumulative IPC: 1.62128 (Simulation time: 0 hr 2 min 56 sec) 
Heartbeat CPU 0 instructions: 6000002 cycles: 3734676 heartbeat IPC: 1.53681 cumulative IPC: 1.60657 (Simulation time: 0 hr 3 min 33 sec) 
Heartbeat CPU 0 instructions: 7000000 cycles: 4385473 heartbeat IPC: 1.53657 cumulative IPC: 1.59618 (Simulation time: 0 hr 4 min 7 sec) 
Heartbeat CPU 0 instructions: 8000000 cycles: 4950520 heartbeat IPC: 1.76976 cumulative IPC: 1.61599 (Simulation time: 0 hr 4 min 39 sec) 
Heartbeat CPU 0 instructions: 9000000 cycles: 5601380 heartbeat IPC: 1.53643 cumulative IPC: 1.60675 (Simulation time: 0 hr 5 min 12 sec) 
Heartbeat CPU 0 instructions: 10000001 cycles: 6252596 heartbeat IPC: 1.53559 cumulative IPC: 1.59934 (Simulation time: 0 hr 5 min 48 sec) 
Heartbeat CPU 0 instructions: 11000000 cycles: 6878682 heartbeat IPC: 1.59722 cumulative IPC: 1.59914 (Simulation time: 0 hr 6 min 22 sec) 
Heartbeat CPU 0 instructions: 12000000 cycles: 7381095 heartbeat IPC: 1.99039 cumulative IPC: 1.62577 (Simulation time: 0 hr 6 min 56 sec) 
Heartbeat CPU 0 instructions: 13000000 cycles: 7881391 heartbeat IPC: 1.99882 cumulative IPC: 1.64946 (Simulation time: 0 hr 7 min 26 sec) 
Heartbeat CPU 0 instructions: 14000001 cycles: 8381832 heartbeat IPC: 1.99824 cumulative IPC: 1.67028 (Simulation time: 0 hr 7 min 58 sec) 
Heartbeat CPU 0 instructions: 15000001 cycles: 8882163 heartbeat IPC: 1.99868 cumulative IPC: 1.68878 (Simulation time: 0 hr 8 min 27 sec) 
Heartbeat CPU 0 instructions: 16000000 cycles: 9382457 heartbeat IPC: 1.99882 cumulative IPC: 1.70531 (Simulation time: 0 hr 8 min 59 sec) 
Heartbeat CPU 0 instructions: 17000001 cycles: 9882899 heartbeat IPC: 1.99824 cumulative IPC: 1.72014 (Simulation time: 0 hr 9 min 33 sec) 
Heartbeat CPU 0 instructions: 18000002 cycles: 10383020 heartbeat IPC: 1.99952 cumulative IPC: 1.7336 (Simulation time: 0 hr 10 min 7 sec) 
Heartbeat CPU 0 instructions: 19000000 cycles: 10883484 heartbeat IPC: 1.99814 cumulative IPC: 1.74576 (Simulation time: 0 hr 10 min 37 sec) 
Heartbeat CPU 0 instructions: 20000000 cycles: 11383422 heartbeat IPC: 2.00025 cumulative IPC: 1.75694 (Simulation time: 0 hr 11 min 12 sec) 
Heartbeat CPU 0 instructions: 21000002 cycles: 11883954 heartbeat IPC: 1.99788 cumulative IPC: 1.76709 (Simulation time: 0 hr 11 min 48 sec) 
Heartbeat CPU 0 instructions: 22000000 cycles: 12371722 heartbeat IPC: 2.05015 cumulative IPC: 1.77825 (Simulation time: 0 hr 12 min 21 sec) 
Heartbeat CPU 0 instructions: 23000000 cycles: 12858675 heartbeat IPC: 2.05359 cumulative IPC: 1.78868 (Simulation time: 0 hr 12 min 52 sec) 
Heartbeat CPU 0 instructions: 24000000 cycles: 13345024 heartbeat IPC: 2.05614 cumulative IPC: 1.79842 (Simulation time: 0 hr 13 min 25 sec) 
Heartbeat CPU 0 instructions: 25000000 cycles: 13852302 heartbeat IPC: 1.97131 cumulative IPC: 1.80475 (Simulation time: 0 hr 13 min 57 sec) 
Heartbeat CPU 0 instructions: 26000000 cycles: 14433432 heartbeat IPC: 1.72079 cumulative IPC: 1.80137 (Simulation time: 0 hr 14 min 34 sec) 
Heartbeat CPU 0 instructions: 27000000 cycles: 15014886 heartbeat IPC: 1.71983 cumulative IPC: 1.79822 (Simulation time: 0 hr 15 min 8 sec) 
Heartbeat CPU 0 instructions: 28000000 cycles: 15596280 heartbeat IPC: 1.72 cumulative IPC: 1.7953 (Simulation time: 0 hr 15 min 47 sec) 
Heartbeat CPU 0 instructions: 29000000 cycles: 16177573 heartbeat IPC: 1.7203 cumulative IPC: 1.79261 (Simulation time: 0 hr 16 min 23 sec) 
Heartbeat CPU 0 instructions: 30000002 cycles: 16807899 heartbeat IPC: 1.58648 cumulative IPC: 1.78488 (Simulation time: 0 hr 16 min 59 sec) 
Heartbeat CPU 0 instructions: 31000000 cycles: 17439101 heartbeat IPC: 1.58428 cumulative IPC: 1.77761 (Simulation time: 0 hr 17 min 32 sec) 
Heartbeat CPU 0 instructions: 32000000 cycles: 18060817 heartbeat IPC: 1.60845 cumulative IPC: 1.77179 (Simulation time: 0 hr 18 min 5 sec) 
Heartbeat CPU 0 instructions: 33000001 cycles: 18693346 heartbeat IPC: 1.58096 cumulative IPC: 1.76533 (Simulation time: 0 hr 18 min 37 sec) 
Heartbeat CPU 0 instructions: 34000003 cycles: 19315021 heartbeat IPC: 1.60856 cumulative IPC: 1.76029 (Simulation time: 0 hr 19 min 11 sec) 
Heartbeat CPU 0 instructions: 35000001 cycles: 19946574 heartbeat IPC: 1.5834 cumulative IPC: 1.75469 (Simulation time: 0 hr 19 min 47 sec) 
Heartbeat CPU 0 instructions: 36000000 cycles: 20567778 heartbeat IPC: 1.60978 cumulative IPC: 1.75031 (Simulation time: 0 hr 20 min 21 sec) 
Heartbeat CPU 0 instructions: 37000003 cycles: 21199663 heartbeat IPC: 1.58257 cumulative IPC: 1.74531 (Simulation time: 0 hr 20 min 55 sec) 
Heartbeat CPU 0 instructions: 38000002 cycles: 21830702 heartbeat IPC: 1.58469 cumulative IPC: 1.74067 (Simulation time: 0 hr 21 min 29 sec) 
Heartbeat CPU 0 instructions: 39000002 cycles: 22453243 heartbeat IPC: 1.60632 cumulative IPC: 1.73694 (Simulation time: 0 hr 22 min 3 sec) 
Heartbeat CPU 0 instructions: 40000000 cycles: 23085686 heartbeat IPC: 1.58117 cumulative IPC: 1.73268 (Simulation time: 0 hr 22 min 38 sec) 
Heartbeat CPU 0 instructions: 41000000 cycles: 23707252 heartbeat IPC: 1.60884 cumulative IPC: 1.72943 (Simulation time: 0 hr 23 min 13 sec) 
Heartbeat CPU 0 instructions: 42000002 cycles: 24338649 heartbeat IPC: 1.58379 cumulative IPC: 1.72565 (Simulation time: 0 hr 23 min 47 sec) 
Heartbeat CPU 0 instructions: 43000002 cycles: 24960375 heartbeat IPC: 1.60843 cumulative IPC: 1.72273 (Simulation time: 0 hr 24 min 22 sec) 
Heartbeat CPU 0 instructions: 44000000 cycles: 25592533 heartbeat IPC: 1.58188 cumulative IPC: 1.71925 (Simulation time: 0 hr 24 min 57 sec) 
Heartbeat CPU 0 instructions: 45000002 cycles: 26222835 heartbeat IPC: 1.58654 cumulative IPC: 1.71606 (Simulation time: 0 hr 25 min 30 sec) 
Heartbeat CPU 0 instructions: 46000001 cycles: 26846342 heartbeat IPC: 1.60383 cumulative IPC: 1.71346 (Simulation time: 0 hr 26 min 4 sec) 
Heartbeat CPU 0 instructions: 47000001 cycles: 27477957 heartbeat IPC: 1.58324 cumulative IPC: 1.71046 (Simulation time: 0 hr 26 min 39 sec) 
Heartbeat CPU 0 instructions: 48000000 cycles: 28099592 heartbeat IPC: 1.60866 cumulative IPC: 1.70821 (Simulation time: 0 hr 27 min 13 sec) 
Heartbeat CPU 0 instructions: 49000000 cycles: 28731351 heartbeat IPC: 1.58288 cumulative IPC: 1.70545 (Simulation time: 0 hr 27 min 49 sec) 
Heartbeat CPU 0 instructions: 50000003 cycles: 29353148 heartbeat IPC: 1.60825 cumulative IPC: 1.70339 (Simulation time: 0 hr 28 min 23 sec) 

Warmup complete CPU 0 instructions: 50000003 cycles: 29353148 (Simulation time: 0 hr 28 min 23 sec) 

Heartbeat CPU 0 instructions: 51000003 cycles: 30620155 heartbeat IPC: 0.789262 cumulative IPC: 0.789262 (Simulation time: 0 hr 28 min 58 sec) 
Heartbeat CPU 0 instructions: 52000000 cycles: 31876843 heartbeat IPC: 0.79574 cumulative IPC: 0.792488 (Simulation time: 0 hr 29 min 33 sec) 
Heartbeat CPU 0 instructions: 53000002 cycles: 33180859 heartbeat IPC: 0.766863 cumulative IPC: 0.783758 (Simulation time: 0 hr 30 min 7 sec) 
Heartbeat CPU 0 instructions: 54000001 cycles: 34427120 heartbeat IPC: 0.802399 cumulative IPC: 0.788337 (Simulation time: 0 hr 30 min 42 sec) 
Heartbeat CPU 0 instructions: 55000000 cycles: 35716432 heartbeat IPC: 0.775607 cumulative IPC: 0.785757 (Simulation time: 0 hr 31 min 17 sec) 
Heartbeat CPU 0 instructions: 56000000 cycles: 36980492 heartbeat IPC: 0.791102 cumulative IPC: 0.786643 (Simulation time: 0 hr 31 min 54 sec) 
Heartbeat CPU 0 instructions: 57000000 cycles: 38268448 heartbeat IPC: 0.776424 cumulative IPC: 0.785167 (Simulation time: 0 hr 32 min 34 sec) 
Heartbeat CPU 0 instructions: 58000001 cycles: 39527823 heartbeat IPC: 0.794045 cumulative IPC: 0.786266 (Simulation time: 0 hr 33 min 12 sec) 
Heartbeat CPU 0 instructions: 59000000 cycles: 40770873 heartbeat IPC: 0.804472 cumulative IPC: 0.788248 (Simulation time: 0 hr 33 min 51 sec) 
Heartbeat CPU 0 instructions: 60000000 cycles: 42041391 heartbeat IPC: 0.787081 cumulative IPC: 0.788131 (Simulation time: 0 hr 34 min 34 sec) 
Heartbeat CPU 0 instructions: 61000001 cycles: 43298486 heartbeat IPC: 0.795486 cumulative IPC: 0.788794 (Simulation time: 0 hr 35 min 10 sec) 
Heartbeat CPU 0 instructions: 62000000 cycles: 44578079 heartbeat IPC: 0.781498 cumulative IPC: 0.788181 (Simulation time: 0 hr 35 min 47 sec) 
Heartbeat CPU 0 instructions: 63000001 cycles: 45836073 heartbeat IPC: 0.794917 cumulative IPC: 0.788695 (Simulation time: 0 hr 36 min 26 sec) 
Heartbeat CPU 0 instructions: 64000000 cycles: 47129274 heartbeat IPC: 0.773274 cumulative IPC: 0.787573 (Simulation time: 0 hr 37 min 1 sec) 
Heartbeat CPU 0 instructions: 65000000 cycles: 48404296 heartbeat IPC: 0.7843 cumulative IPC: 0.787354 (Simulation time: 0 hr 37 min 37 sec) 
Heartbeat CPU 0 instructions: 66000000 cycles: 49682299 heartbeat IPC: 0.782471 cumulative IPC: 0.787047 (Simulation time: 0 hr 38 min 12 sec) 
Heartbeat CPU 0 instructions: 67000003 cycles: 50956347 heartbeat IPC: 0.784902 cumulative IPC: 0.78692 (Simulation time: 0 hr 38 min 47 sec) 
Heartbeat CPU 0 instructions: 68000000 cycles: 52222594 heartbeat IPC: 0.789733 cumulative IPC: 0.787076 (Simulation time: 0 hr 39 min 25 sec) 
Heartbeat CPU 0 instructions: 69000000 cycles: 53505125 heartbeat IPC: 0.779708 cumulative IPC: 0.786685 (Simulation time: 0 hr 40 min 5 sec) 
Heartbeat CPU 0 instructions: 70000001 cycles: 54765086 heartbeat IPC: 0.793676 cumulative IPC: 0.787032 (Simulation time: 0 hr 40 min 42 sec) 
Heartbeat CPU 0 instructions: 71000002 cycles: 56063876 heartbeat IPC: 0.769948 cumulative IPC: 0.786201 (Simulation time: 0 hr 41 min 19 sec) 
Heartbeat CPU 0 instructions: 72000000 cycles: 57313591 heartbeat IPC: 0.800181 cumulative IPC: 0.786826 (Simulation time: 0 hr 41 min 56 sec) 
Heartbeat CPU 0 instructions: 73000000 cycles: 58591441 heartbeat IPC: 0.782564 cumulative IPC: 0.78664 (Simulation time: 0 hr 42 min 33 sec) 
Heartbeat CPU 0 instructions: 74000000 cycles: 59852308 heartbeat IPC: 0.793105 cumulative IPC: 0.786907 (Simulation time: 0 hr 43 min 9 sec) 
Heartbeat CPU 0 instructions: 75000002 cycles: 61104338 heartbeat IPC: 0.798705 cumulative IPC: 0.787372 (Simulation time: 0 hr 43 min 46 sec) 
Heartbeat CPU 0 instructions: 76000000 cycles: 62402433 heartbeat IPC: 0.770358 cumulative IPC: 0.786704 (Simulation time: 0 hr 44 min 22 sec) 
Heartbeat CPU 0 instructions: 77000000 cycles: 63650608 heartbeat IPC: 0.80117 cumulative IPC: 0.78723 (Simulation time: 0 hr 45 min 1 sec) 
Heartbeat CPU 0 instructions: 78000000 cycles: 64959087 heartbeat IPC: 0.764246 cumulative IPC: 0.786386 (Simulation time: 0 hr 45 min 41 sec) 
Heartbeat CPU 0 instructions: 79000000 cycles: 66462003 heartbeat IPC: 0.665373 cumulative IPC: 0.781485 (Simulation time: 0 hr 46 min 17 sec) 
Heartbeat CPU 0 instructions: 80000000 cycles: 68101009 heartbeat IPC: 0.610126 cumulative IPC: 0.774236 (Simulation time: 0 hr 46 min 52 sec) 
Heartbeat CPU 0 instructions: 81000002 cycles: 69699887 heartbeat IPC: 0.62544 cumulative IPC: 0.76834 (Simulation time: 0 hr 47 min 28 sec) 
Heartbeat CPU 0 instructions: 82000003 cycles: 71358854 heartbeat IPC: 0.602785 cumulative IPC: 0.761801 (Simulation time: 0 hr 48 min 5 sec) 
Heartbeat CPU 0 instructions: 83000003 cycles: 73028413 heartbeat IPC: 0.598961 cumulative IPC: 0.755576 (Simulation time: 0 hr 48 min 45 sec) 
Heartbeat CPU 0 instructions: 84000000 cycles: 74660823 heartbeat IPC: 0.612589 cumulative IPC: 0.750425 (Simulation time: 0 hr 49 min 22 sec) 
Heartbeat CPU 0 instructions: 85000001 cycles: 76317354 heartbeat IPC: 0.603672 cumulative IPC: 0.745248 (Simulation time: 0 hr 49 min 59 sec) 
Heartbeat CPU 0 instructions: 86000002 cycles: 77952860 heartbeat IPC: 0.611432 cumulative IPC: 0.740745 (Simulation time: 0 hr 50 min 35 sec) 
Heartbeat CPU 0 instructions: 87000000 cycles: 79606567 heartbeat IPC: 0.604701 cumulative IPC: 0.736268 (Simulation time: 0 hr 51 min 11 sec) 
Heartbeat CPU 0 instructions: 88000000 cycles: 81285887 heartbeat IPC: 0.595479 cumulative IPC: 0.731716 (Simulation time: 0 hr 51 min 51 sec) 
Heartbeat CPU 0 instructions: 89000002 cycles: 82925017 heartbeat IPC: 0.610081 cumulative IPC: 0.727994 (Simulation time: 0 hr 52 min 28 sec) 
Heartbeat CPU 0 instructions: 90000001 cycles: 84563237 heartbeat IPC: 0.610418 cumulative IPC: 0.724505 (Simulation time: 0 hr 53 min 6 sec) 
Heartbeat CPU 0 instructions: 91000003 cycles: 86202357 heartbeat IPC: 0.610085 cumulative IPC: 0.721206 (Simulation time: 0 hr 53 min 43 sec) 
Heartbeat CPU 0 instructions: 92000000 cycles: 87856046 heartbeat IPC: 0.604707 cumulative IPC: 0.717913 (Simulation time: 0 hr 54 min 18 sec) 
Heartbeat CPU 0 instructions: 93000001 cycles: 89530238 heartbeat IPC: 0.597304 cumulative IPC: 0.714558 (Simulation time: 0 hr 54 min 55 sec) 
Heartbeat CPU 0 instructions: 94000003 cycles: 91180905 heartbeat IPC: 0.605817 cumulative IPC: 0.711654 (Simulation time: 0 hr 55 min 32 sec) 
Heartbeat CPU 0 instructions: 95000002 cycles: 92888562 heartbeat IPC: 0.585597 cumulative IPC: 0.708266 (Simulation time: 0 hr 56 min 9 sec) 
Heartbeat CPU 0 instructions: 96000000 cycles: 94535234 heartbeat IPC: 0.607284 cumulative IPC: 0.705715 (Simulation time: 0 hr 56 min 45 sec) 
Heartbeat CPU 0 instructions: 97000003 cycles: 96545084 heartbeat IPC: 0.497551 cumulative IPC: 0.699489 (Simulation time: 0 hr 57 min 30 sec) 
Heartbeat CPU 0 instructions: 98000002 cycles: 101854758 heartbeat IPC: 0.188335 cumulative IPC: 0.662054 (Simulation time: 0 hr 58 min 51 sec) 
Heartbeat CPU 0 instructions: 99000000 cycles: 104845236 heartbeat IPC: 0.334394 cumulative IPC: 0.649075 (Simulation time: 0 hr 59 min 58 sec) 
Heartbeat CPU 0 instructions: 100000000 cycles: 106493339 heartbeat IPC: 0.606758 cumulative IPC: 0.648171 (Simulation time: 1 hr 0 min 38 sec) 
Heartbeat CPU 0 instructions: 101000002 cycles: 107741319 heartbeat IPC: 0.801296 cumulative IPC: 0.650608 (Simulation time: 1 hr 1 min 8 sec) 
Heartbeat CPU 0 instructions: 102000003 cycles: 109110564 heartbeat IPC: 0.73033 cumulative IPC: 0.651977 (Simulation time: 1 hr 1 min 42 sec) 
Heartbeat CPU 0 instructions: 103000002 cycles: 110469915 heartbeat IPC: 0.735644 cumulative IPC: 0.653379 (Simulation time: 1 hr 2 min 14 sec) 
Heartbeat CPU 0 instructions: 104000000 cycles: 111940412 heartbeat IPC: 0.680041 cumulative IPC: 0.653854 (Simulation time: 1 hr 2 min 49 sec) 
Heartbeat CPU 0 instructions: 105000001 cycles: 113471216 heartbeat IPC: 0.653252 cumulative IPC: 0.653843 (Simulation time: 1 hr 3 min 22 sec) 
Heartbeat CPU 0 instructions: 106000001 cycles: 115008168 heartbeat IPC: 0.650638 cumulative IPC: 0.653785 (Simulation time: 1 hr 3 min 55 sec) 
Heartbeat CPU 0 instructions: 107000001 cycles: 116553663 heartbeat IPC: 0.647042 cumulative IPC: 0.653666 (Simulation time: 1 hr 4 min 29 sec) 
Heartbeat CPU 0 instructions: 108000000 cycles: 118097101 heartbeat IPC: 0.647904 cumulative IPC: 0.653566 (Simulation time: 1 hr 5 min 1 sec) 
Heartbeat CPU 0 instructions: 109000001 cycles: 119619647 heartbeat IPC: 0.656795 cumulative IPC: 0.65362 (Simulation time: 1 hr 5 min 34 sec) 
Heartbeat CPU 0 instructions: 110000001 cycles: 121160609 heartbeat IPC: 0.648945 cumulative IPC: 0.653542 (Simulation time: 1 hr 6 min 7 sec) 
Heartbeat CPU 0 instructions: 111000003 cycles: 122685016 heartbeat IPC: 0.655994 cumulative IPC: 0.653582 (Simulation time: 1 hr 6 min 41 sec) 
Heartbeat CPU 0 instructions: 112000000 cycles: 124232209 heartbeat IPC: 0.64633 cumulative IPC: 0.653463 (Simulation time: 1 hr 7 min 14 sec) 
Heartbeat CPU 0 instructions: 113000002 cycles: 125867237 heartbeat IPC: 0.611612 cumulative IPC: 0.652754 (Simulation time: 1 hr 7 min 45 sec) 
Heartbeat CPU 0 instructions: 114000002 cycles: 128246701 heartbeat IPC: 0.420263 cumulative IPC: 0.64716 (Simulation time: 1 hr 8 min 23 sec) 
Heartbeat CPU 0 instructions: 115000003 cycles: 130669930 heartbeat IPC: 0.412673 cumulative IPC: 0.641552 (Simulation time: 1 hr 9 min 3 sec) 
Heartbeat CPU 0 instructions: 116000000 cycles: 133088013 heartbeat IPC: 0.413549 cumulative IPC: 0.636237 (Simulation time: 1 hr 9 min 41 sec) 
Heartbeat CPU 0 instructions: 117000003 cycles: 135524877 heartbeat IPC: 0.410365 cumulative IPC: 0.631053 (Simulation time: 1 hr 10 min 18 sec) 
Heartbeat CPU 0 instructions: 118000000 cycles: 137913429 heartbeat IPC: 0.418662 cumulative IPC: 0.62638 (Simulation time: 1 hr 10 min 58 sec) 
Heartbeat CPU 0 instructions: 119000000 cycles: 140258402 heartbeat IPC: 0.426444 cumulative IPC: 0.622153 (Simulation time: 1 hr 11 min 36 sec) 
Heartbeat CPU 0 instructions: 120000000 cycles: 142696203 heartbeat IPC: 0.410206 cumulative IPC: 0.617594 (Simulation time: 1 hr 12 min 15 sec) 
Heartbeat CPU 0 instructions: 121000001 cycles: 145093985 heartbeat IPC: 0.417053 cumulative IPC: 0.61344 (Simulation time: 1 hr 12 min 51 sec) 
Heartbeat CPU 0 instructions: 122000000 cycles: 147495124 heartbeat IPC: 0.416469 cumulative IPC: 0.609436 (Simulation time: 1 hr 13 min 27 sec) 
Heartbeat CPU 0 instructions: 123000003 cycles: 148880515 heartbeat IPC: 0.72182 cumulative IPC: 0.610739 (Simulation time: 1 hr 13 min 57 sec) 
Heartbeat CPU 0 instructions: 124000000 cycles: 150025627 heartbeat IPC: 0.873274 cumulative IPC: 0.61323 (Simulation time: 1 hr 14 min 24 sec) 
Heartbeat CPU 0 instructions: 125000000 cycles: 151129780 heartbeat IPC: 0.905672 cumulative IPC: 0.615882 (Simulation time: 1 hr 14 min 51 sec) 
Heartbeat CPU 0 instructions: 126000001 cycles: 152227282 heartbeat IPC: 0.911161 cumulative IPC: 0.618519 (Simulation time: 1 hr 15 min 18 sec) 
Heartbeat CPU 0 instructions: 127000002 cycles: 153280375 heartbeat IPC: 0.949585 cumulative IPC: 0.621332 (Simulation time: 1 hr 15 min 43 sec) 
Heartbeat CPU 0 instructions: 128000000 cycles: 154329689 heartbeat IPC: 0.953002 cumulative IPC: 0.624117 (Simulation time: 1 hr 16 min 9 sec) 
Heartbeat CPU 0 instructions: 129000002 cycles: 155395557 heartbeat IPC: 0.938204 cumulative IPC: 0.626773 (Simulation time: 1 hr 16 min 33 sec) 
Heartbeat CPU 0 instructions: 130000001 cycles: 156471514 heartbeat IPC: 0.929404 cumulative IPC: 0.629335 (Simulation time: 1 hr 16 min 57 sec) 
Heartbeat CPU 0 instructions: 131000000 cycles: 157537860 heartbeat IPC: 0.937781 cumulative IPC: 0.631901 (Simulation time: 1 hr 17 min 21 sec) 
Heartbeat CPU 0 instructions: 132000000 cycles: 158587499 heartbeat IPC: 0.952708 cumulative IPC: 0.634506 (Simulation time: 1 hr 17 min 44 sec) 
Heartbeat CPU 0 instructions: 133000001 cycles: 159633832 heartbeat IPC: 0.95572 cumulative IPC: 0.637086 (Simulation time: 1 hr 18 min 7 sec) 
Heartbeat CPU 0 instructions: 134000000 cycles: 160691385 heartbeat IPC: 0.945578 cumulative IPC: 0.63957 (Simulation time: 1 hr 18 min 31 sec) 
Heartbeat CPU 0 instructions: 135000000 cycles: 161726336 heartbeat IPC: 0.966229 cumulative IPC: 0.642124 (Simulation time: 1 hr 18 min 53 sec) 
Heartbeat CPU 0 instructions: 136000000 cycles: 162768446 heartbeat IPC: 0.959592 cumulative IPC: 0.644604 (Simulation time: 1 hr 19 min 15 sec) 
Heartbeat CPU 0 instructions: 137000001 cycles: 163822748 heartbeat IPC: 0.948496 cumulative IPC: 0.646986 (Simulation time: 1 hr 19 min 37 sec) 
Heartbeat CPU 0 instructions: 138000002 cycles: 164872971 heartbeat IPC: 0.95218 cumulative IPC: 0.649351 (Simulation time: 1 hr 19 min 57 sec) 
Heartbeat CPU 0 instructions: 139000001 cycles: 165928837 heartbeat IPC: 0.947089 cumulative IPC: 0.651653 (Simulation time: 1 hr 20 min 19 sec) 
Heartbeat CPU 0 instructions: 140000000 cycles: 166984289 heartbeat IPC: 0.94746 cumulative IPC: 0.653922 (Simulation time: 1 hr 20 min 38 sec) 
Heartbeat CPU 0 instructions: 141000001 cycles: 168033747 heartbeat IPC: 0.952874 cumulative IPC: 0.656184 (Simulation time: 1 hr 20 min 58 sec) 
Heartbeat CPU 0 instructions: 142000003 cycles: 169099635 heartbeat IPC: 0.938187 cumulative IPC: 0.658335 (Simulation time: 1 hr 21 min 17 sec) 
Heartbeat CPU 0 instructions: 143000003 cycles: 170159642 heartbeat IPC: 0.94339 cumulative IPC: 0.660481 (Simulation time: 1 hr 21 min 35 sec) 
Heartbeat CPU 0 instructions: 144000000 cycles: 171233464 heartbeat IPC: 0.93125 cumulative IPC: 0.66253 (Simulation time: 1 hr 21 min 55 sec) 
Heartbeat CPU 0 instructions: 145000000 cycles: 172293330 heartbeat IPC: 0.943515 cumulative IPC: 0.664614 (Simulation time: 1 hr 22 min 13 sec) 
Heartbeat CPU 0 instructions: 146000003 cycles: 173368129 heartbeat IPC: 0.930409 cumulative IPC: 0.666597 (Simulation time: 1 hr 22 min 32 sec) 
Heartbeat CPU 0 instructions: 147000001 cycles: 174431877 heartbeat IPC: 0.94007 cumulative IPC: 0.668602 (Simulation time: 1 hr 22 min 51 sec) 
Heartbeat CPU 0 instructions: 148000000 cycles: 175496429 heartbeat IPC: 0.939361 cumulative IPC: 0.670575 (Simulation time: 1 hr 23 min 9 sec) 
Heartbeat CPU 0 instructions: 149000000 cycles: 176563237 heartbeat IPC: 0.937376 cumulative IPC: 0.672508 (Simulation time: 1 hr 23 min 26 sec) 
Heartbeat CPU 0 instructions: 150000003 cycles: 177636834 heartbeat IPC: 0.931451 cumulative IPC: 0.674383 (Simulation time: 1 hr 23 min 43 sec) 
Finished CPU 0 instructions: 100000000 cycles: 148283686 cummulative IPC: 0.674383 (Simulation time: 1 hr 23 min 43 sec) 

ChampSim completed all CPUs

Region of Interest Statistics

CPU 0 cummulative IPC: 0.674383 instructions: 100000000 cycles: 148283686
LLC TOTAL     ACCESS:    4045534  HIT:     750459  MISS:    3295075
LLC LOAD      ACCESS:     355679  HIT:      71957  MISS:     283722
LLC RFO       ACCESS:     703326  HIT:      58063  MISS:     645263
LLC PREFETCH  ACCESS:    2009348  HIT:     312221  MISS:    1697127
LLC WRITEBACK ACCESS:     977181  HIT:     308218  MISS:     668963
OPTgen accesses: 91319
OPTgen hits: 29432
OPTgen hit rate: 32.2299


