
*** ChampSim Multicore Out-of-Order Simulator ***

Warmup Instructions: 50000000
Simulation Instructions: 100000000
Configuration: 2
Number of CPUs: 1
LLC sets: 2048
LLC ways: 16
Off-chip DRAM Channels: 1 Width: 64-bit Data Rate: 1600 MT/s

CPU 0 runs /datasets/cs240c-wi22-a00-public/data/Assignment2-gz/GemsFDTD_716B.trace.gz
CPU 0 L1D next line prefetcher
CPU 0 L2C IP-based stride prefetcher
Initialize Hawkeye state
Heartbeat CPU 0 instructions: 1000000 cycles: 415045 heartbeat IPC: 2.40938 cumulative IPC: 2.40938 (Simulation time: 0 hr 0 min 38 sec) 
Heartbeat CPU 0 instructions: 2000003 cycles: 829979 heartbeat IPC: 2.41003 cumulative IPC: 2.4097 (Simulation time: 0 hr 1 min 20 sec) 
Heartbeat CPU 0 instructions: 3000000 cycles: 1280233 heartbeat IPC: 2.22096 cumulative IPC: 2.34332 (Simulation time: 0 hr 1 min 50 sec) 
Heartbeat CPU 0 instructions: 4000000 cycles: 1737264 heartbeat IPC: 2.18804 cumulative IPC: 2.30247 (Simulation time: 0 hr 2 min 24 sec) 
Heartbeat CPU 0 instructions: 5000000 cycles: 2152245 heartbeat IPC: 2.40975 cumulative IPC: 2.32316 (Simulation time: 0 hr 3 min 0 sec) 
Heartbeat CPU 0 instructions: 6000000 cycles: 2567261 heartbeat IPC: 2.40955 cumulative IPC: 2.33712 (Simulation time: 0 hr 3 min 31 sec) 
Heartbeat CPU 0 instructions: 7000000 cycles: 2982264 heartbeat IPC: 2.40962 cumulative IPC: 2.34721 (Simulation time: 0 hr 4 min 3 sec) 
Heartbeat CPU 0 instructions: 8000000 cycles: 3395191 heartbeat IPC: 2.42174 cumulative IPC: 2.35627 (Simulation time: 0 hr 4 min 38 sec) 
Heartbeat CPU 0 instructions: 9000003 cycles: 3840223 heartbeat IPC: 2.24704 cumulative IPC: 2.34361 (Simulation time: 0 hr 5 min 18 sec) 
Heartbeat CPU 0 instructions: 10000002 cycles: 4354523 heartbeat IPC: 1.94439 cumulative IPC: 2.29646 (Simulation time: 0 hr 6 min 10 sec) 
Heartbeat CPU 0 instructions: 11000000 cycles: 4869364 heartbeat IPC: 1.94234 cumulative IPC: 2.25902 (Simulation time: 0 hr 7 min 17 sec) 
Heartbeat CPU 0 instructions: 12000000 cycles: 5383711 heartbeat IPC: 1.94421 cumulative IPC: 2.22895 (Simulation time: 0 hr 8 min 9 sec) 
Heartbeat CPU 0 instructions: 13000002 cycles: 5898407 heartbeat IPC: 1.9429 cumulative IPC: 2.20399 (Simulation time: 0 hr 9 min 2 sec) 
Heartbeat CPU 0 instructions: 14000000 cycles: 6414357 heartbeat IPC: 1.93817 cumulative IPC: 2.1826 (Simulation time: 0 hr 9 min 50 sec) 
Heartbeat CPU 0 instructions: 15000001 cycles: 6934524 heartbeat IPC: 1.92246 cumulative IPC: 2.16309 (Simulation time: 0 hr 10 min 46 sec) 
Heartbeat CPU 0 instructions: 16000000 cycles: 7454746 heartbeat IPC: 1.92225 cumulative IPC: 2.14628 (Simulation time: 0 hr 11 min 37 sec) 
Heartbeat CPU 0 instructions: 17000001 cycles: 7976476 heartbeat IPC: 1.9167 cumulative IPC: 2.13127 (Simulation time: 0 hr 12 min 33 sec) 
Heartbeat CPU 0 instructions: 18000000 cycles: 8498403 heartbeat IPC: 1.91597 cumulative IPC: 2.11805 (Simulation time: 0 hr 13 min 26 sec) 
Heartbeat CPU 0 instructions: 19000003 cycles: 9020014 heartbeat IPC: 1.91714 cumulative IPC: 2.10643 (Simulation time: 0 hr 14 min 13 sec) 
Heartbeat CPU 0 instructions: 20000000 cycles: 9558743 heartbeat IPC: 1.85622 cumulative IPC: 2.09233 (Simulation time: 0 hr 15 min 5 sec) 
Heartbeat CPU 0 instructions: 21000000 cycles: 10100845 heartbeat IPC: 1.84467 cumulative IPC: 2.07903 (Simulation time: 0 hr 15 min 57 sec) 
Heartbeat CPU 0 instructions: 22000001 cycles: 10641834 heartbeat IPC: 1.84847 cumulative IPC: 2.06731 (Simulation time: 0 hr 16 min 43 sec) 
Heartbeat CPU 0 instructions: 23000003 cycles: 11183312 heartbeat IPC: 1.8468 cumulative IPC: 2.05664 (Simulation time: 0 hr 17 min 27 sec) 
Heartbeat CPU 0 instructions: 24000000 cycles: 11725555 heartbeat IPC: 1.84419 cumulative IPC: 2.04681 (Simulation time: 0 hr 18 min 22 sec) 
Heartbeat CPU 0 instructions: 25000000 cycles: 12253341 heartbeat IPC: 1.89471 cumulative IPC: 2.04026 (Simulation time: 0 hr 19 min 7 sec) 
Heartbeat CPU 0 instructions: 26000000 cycles: 12772077 heartbeat IPC: 1.92776 cumulative IPC: 2.03569 (Simulation time: 0 hr 19 min 51 sec) 
Heartbeat CPU 0 instructions: 27000002 cycles: 13290780 heartbeat IPC: 1.92789 cumulative IPC: 2.03148 (Simulation time: 0 hr 20 min 35 sec) 
Heartbeat CPU 0 instructions: 28000000 cycles: 13809243 heartbeat IPC: 1.92877 cumulative IPC: 2.02763 (Simulation time: 0 hr 21 min 18 sec) 
Heartbeat CPU 0 instructions: 29000003 cycles: 14327410 heartbeat IPC: 1.92989 cumulative IPC: 2.02409 (Simulation time: 0 hr 22 min 6 sec) 
Heartbeat CPU 0 instructions: 30000001 cycles: 14861119 heartbeat IPC: 1.87368 cumulative IPC: 2.01869 (Simulation time: 0 hr 22 min 50 sec) 
Heartbeat CPU 0 instructions: 31000001 cycles: 15422356 heartbeat IPC: 1.78178 cumulative IPC: 2.01007 (Simulation time: 0 hr 23 min 38 sec) 
Heartbeat CPU 0 instructions: 32000000 cycles: 15983629 heartbeat IPC: 1.78166 cumulative IPC: 2.00205 (Simulation time: 0 hr 24 min 25 sec) 
Heartbeat CPU 0 instructions: 33000002 cycles: 16545876 heartbeat IPC: 1.77858 cumulative IPC: 1.99445 (Simulation time: 0 hr 25 min 9 sec) 
Heartbeat CPU 0 instructions: 34000001 cycles: 17106713 heartbeat IPC: 1.78305 cumulative IPC: 1.98752 (Simulation time: 0 hr 26 min 4 sec) 
Heartbeat CPU 0 instructions: 35000001 cycles: 17668001 heartbeat IPC: 1.78162 cumulative IPC: 1.98098 (Simulation time: 0 hr 26 min 45 sec) 
Heartbeat CPU 0 instructions: 36000000 cycles: 18230656 heartbeat IPC: 1.77729 cumulative IPC: 1.9747 (Simulation time: 0 hr 27 min 24 sec) 
Heartbeat CPU 0 instructions: 37000002 cycles: 18804592 heartbeat IPC: 1.74236 cumulative IPC: 1.9676 (Simulation time: 0 hr 28 min 6 sec) 
Heartbeat CPU 0 instructions: 38000002 cycles: 19378447 heartbeat IPC: 1.7426 cumulative IPC: 1.96094 (Simulation time: 0 hr 28 min 44 sec) 
Heartbeat CPU 0 instructions: 39000000 cycles: 19952141 heartbeat IPC: 1.74309 cumulative IPC: 1.95468 (Simulation time: 0 hr 29 min 23 sec) 
Heartbeat CPU 0 instructions: 40000000 cycles: 20526030 heartbeat IPC: 1.7425 cumulative IPC: 1.94875 (Simulation time: 0 hr 30 min 0 sec) 
Heartbeat CPU 0 instructions: 41000002 cycles: 21099493 heartbeat IPC: 1.7438 cumulative IPC: 1.94317 (Simulation time: 0 hr 30 min 39 sec) 
Heartbeat CPU 0 instructions: 42000000 cycles: 21673263 heartbeat IPC: 1.74286 cumulative IPC: 1.93787 (Simulation time: 0 hr 31 min 16 sec) 
Heartbeat CPU 0 instructions: 43000002 cycles: 22220554 heartbeat IPC: 1.82719 cumulative IPC: 1.93515 (Simulation time: 0 hr 31 min 57 sec) 
Heartbeat CPU 0 instructions: 44000000 cycles: 22754150 heartbeat IPC: 1.87407 cumulative IPC: 1.93371 (Simulation time: 0 hr 32 min 36 sec) 
Heartbeat CPU 0 instructions: 45000001 cycles: 23287560 heartbeat IPC: 1.87473 cumulative IPC: 1.93236 (Simulation time: 0 hr 33 min 13 sec) 
Heartbeat CPU 0 instructions: 46000001 cycles: 23821097 heartbeat IPC: 1.87428 cumulative IPC: 1.93106 (Simulation time: 0 hr 33 min 53 sec) 
Heartbeat CPU 0 instructions: 47000003 cycles: 24354569 heartbeat IPC: 1.87452 cumulative IPC: 1.92982 (Simulation time: 0 hr 34 min 34 sec) 
Heartbeat CPU 0 instructions: 48000000 cycles: 24893904 heartbeat IPC: 1.85413 cumulative IPC: 1.92818 (Simulation time: 0 hr 35 min 13 sec) 
Heartbeat CPU 0 instructions: 49000003 cycles: 25440867 heartbeat IPC: 1.82828 cumulative IPC: 1.92604 (Simulation time: 0 hr 35 min 54 sec) 
Heartbeat CPU 0 instructions: 50000003 cycles: 25988589 heartbeat IPC: 1.82574 cumulative IPC: 1.92392 (Simulation time: 0 hr 36 min 35 sec) 

Warmup complete CPU 0 instructions: 50000003 cycles: 25988589 (Simulation time: 0 hr 36 min 35 sec) 

Heartbeat CPU 0 instructions: 51000003 cycles: 29673988 heartbeat IPC: 0.271341 cumulative IPC: 0.271341 (Simulation time: 0 hr 37 min 34 sec) 
Heartbeat CPU 0 instructions: 52000000 cycles: 33340253 heartbeat IPC: 0.272756 cumulative IPC: 0.272047 (Simulation time: 0 hr 38 min 30 sec) 
Heartbeat CPU 0 instructions: 53000002 cycles: 37161335 heartbeat IPC: 0.261707 cumulative IPC: 0.26851 (Simulation time: 0 hr 39 min 30 sec) 
Heartbeat CPU 0 instructions: 54000001 cycles: 39162947 heartbeat IPC: 0.499597 cumulative IPC: 0.30362 (Simulation time: 0 hr 40 min 18 sec) 
Heartbeat CPU 0 instructions: 55000002 cycles: 40969288 heartbeat IPC: 0.553606 cumulative IPC: 0.333763 (Simulation time: 0 hr 41 min 5 sec) 
Heartbeat CPU 0 instructions: 56000000 cycles: 42823403 heartbeat IPC: 0.53934 cumulative IPC: 0.356404 (Simulation time: 0 hr 41 min 51 sec) 
Heartbeat CPU 0 instructions: 57000002 cycles: 44663229 heartbeat IPC: 0.543531 cumulative IPC: 0.37484 (Simulation time: 0 hr 42 min 37 sec) 
Heartbeat CPU 0 instructions: 58000001 cycles: 46434533 heartbeat IPC: 0.564555 cumulative IPC: 0.391276 (Simulation time: 0 hr 43 min 24 sec) 
Heartbeat CPU 0 instructions: 59000002 cycles: 48472233 heartbeat IPC: 0.49075 cumulative IPC: 0.400291 (Simulation time: 0 hr 44 min 12 sec) 
Heartbeat CPU 0 instructions: 60000000 cycles: 50000396 heartbeat IPC: 0.654379 cumulative IPC: 0.416462 (Simulation time: 0 hr 44 min 56 sec) 
Heartbeat CPU 0 instructions: 61000002 cycles: 51529865 heartbeat IPC: 0.653823 cumulative IPC: 0.430675 (Simulation time: 0 hr 45 min 47 sec) 
Heartbeat CPU 0 instructions: 62000000 cycles: 53070016 heartbeat IPC: 0.649286 cumulative IPC: 0.443108 (Simulation time: 0 hr 46 min 33 sec) 
Heartbeat CPU 0 instructions: 63000000 cycles: 54628829 heartbeat IPC: 0.641514 cumulative IPC: 0.453907 (Simulation time: 0 hr 47 min 21 sec) 
Heartbeat CPU 0 instructions: 64000000 cycles: 56456198 heartbeat IPC: 0.547235 cumulative IPC: 0.459504 (Simulation time: 0 hr 48 min 7 sec) 
Heartbeat CPU 0 instructions: 65000001 cycles: 57802075 heartbeat IPC: 0.743011 cumulative IPC: 0.471498 (Simulation time: 0 hr 48 min 51 sec) 
Heartbeat CPU 0 instructions: 66000003 cycles: 59144998 heartbeat IPC: 0.744646 cumulative IPC: 0.482561 (Simulation time: 0 hr 49 min 38 sec) 
Heartbeat CPU 0 instructions: 67000003 cycles: 60488022 heartbeat IPC: 0.744588 cumulative IPC: 0.492762 (Simulation time: 0 hr 50 min 22 sec) 
Heartbeat CPU 0 instructions: 68000000 cycles: 61824973 heartbeat IPC: 0.747968 cumulative IPC: 0.502283 (Simulation time: 0 hr 51 min 4 sec) 
Heartbeat CPU 0 instructions: 69000000 cycles: 63160275 heartbeat IPC: 0.748894 cumulative IPC: 0.511142 (Simulation time: 0 hr 51 min 50 sec) 
Heartbeat CPU 0 instructions: 70000000 cycles: 64949661 heartbeat IPC: 0.558851 cumulative IPC: 0.513333 (Simulation time: 0 hr 52 min 36 sec) 
Heartbeat CPU 0 instructions: 71000000 cycles: 66348217 heartbeat IPC: 0.715023 cumulative IPC: 0.520322 (Simulation time: 0 hr 53 min 19 sec) 
Heartbeat CPU 0 instructions: 72000000 cycles: 67706496 heartbeat IPC: 0.736226 cumulative IPC: 0.527351 (Simulation time: 0 hr 54 min 4 sec) 
Heartbeat CPU 0 instructions: 73000002 cycles: 69067874 heartbeat IPC: 0.734551 cumulative IPC: 0.533899 (Simulation time: 0 hr 54 min 50 sec) 
Heartbeat CPU 0 instructions: 74000000 cycles: 70431709 heartbeat IPC: 0.733225 cumulative IPC: 0.540016 (Simulation time: 0 hr 55 min 34 sec) 
Heartbeat CPU 0 instructions: 75000000 cycles: 71799913 heartbeat IPC: 0.730885 cumulative IPC: 0.545717 (Simulation time: 0 hr 56 min 19 sec) 
Heartbeat CPU 0 instructions: 76000000 cycles: 73166206 heartbeat IPC: 0.731907 cumulative IPC: 0.551109 (Simulation time: 0 hr 57 min 3 sec) 
Heartbeat CPU 0 instructions: 77000001 cycles: 76562759 heartbeat IPC: 0.294416 cumulative IPC: 0.533869 (Simulation time: 0 hr 58 min 1 sec) 
Heartbeat CPU 0 instructions: 78000000 cycles: 79961038 heartbeat IPC: 0.294266 cumulative IPC: 0.518783 (Simulation time: 0 hr 58 min 57 sec) 
Heartbeat CPU 0 instructions: 79000002 cycles: 83347750 heartbeat IPC: 0.295272 cumulative IPC: 0.505586 (Simulation time: 0 hr 59 min 59 sec) 
Heartbeat CPU 0 instructions: 80000000 cycles: 86736644 heartbeat IPC: 0.295081 cumulative IPC: 0.493843 (Simulation time: 1 hr 0 min 56 sec) 
Heartbeat CPU 0 instructions: 81000000 cycles: 90124766 heartbeat IPC: 0.295149 cumulative IPC: 0.483346 (Simulation time: 1 hr 1 min 53 sec) 
Heartbeat CPU 0 instructions: 82000002 cycles: 93948444 heartbeat IPC: 0.261529 cumulative IPC: 0.470866 (Simulation time: 1 hr 2 min 52 sec) 
Heartbeat CPU 0 instructions: 83000002 cycles: 97565796 heartbeat IPC: 0.276445 cumulative IPC: 0.461041 (Simulation time: 1 hr 3 min 51 sec) 
Heartbeat CPU 0 instructions: 84000000 cycles: 101303734 heartbeat IPC: 0.267527 cumulative IPC: 0.451436 (Simulation time: 1 hr 4 min 54 sec) 
Heartbeat CPU 0 instructions: 85000000 cycles: 105000322 heartbeat IPC: 0.27052 cumulative IPC: 0.442972 (Simulation time: 1 hr 5 min 54 sec) 
Heartbeat CPU 0 instructions: 86000000 cycles: 108799727 heartbeat IPC: 0.263199 cumulative IPC: 0.434724 (Simulation time: 1 hr 6 min 51 sec) 
Heartbeat CPU 0 instructions: 87000000 cycles: 112424647 heartbeat IPC: 0.275868 cumulative IPC: 0.428062 (Simulation time: 1 hr 7 min 51 sec) 
Heartbeat CPU 0 instructions: 88000000 cycles: 114060145 heartbeat IPC: 0.611435 cumulative IPC: 0.431467 (Simulation time: 1 hr 8 min 40 sec) 
Heartbeat CPU 0 instructions: 89000001 cycles: 115668528 heartbeat IPC: 0.621743 cumulative IPC: 0.43488 (Simulation time: 1 hr 9 min 25 sec) 
Heartbeat CPU 0 instructions: 90000001 cycles: 117274720 heartbeat IPC: 0.622591 cumulative IPC: 0.438183 (Simulation time: 1 hr 10 min 8 sec) 
Heartbeat CPU 0 instructions: 91000001 cycles: 118886020 heartbeat IPC: 0.620617 cumulative IPC: 0.441347 (Simulation time: 1 hr 10 min 49 sec) 
Heartbeat CPU 0 instructions: 92000000 cycles: 120496449 heartbeat IPC: 0.620952 cumulative IPC: 0.444407 (Simulation time: 1 hr 11 min 29 sec) 
Heartbeat CPU 0 instructions: 93000002 cycles: 122379506 heartbeat IPC: 0.531052 cumulative IPC: 0.4461 (Simulation time: 1 hr 12 min 8 sec) 
Heartbeat CPU 0 instructions: 94000001 cycles: 123782548 heartbeat IPC: 0.712736 cumulative IPC: 0.449926 (Simulation time: 1 hr 12 min 46 sec) 
Heartbeat CPU 0 instructions: 95000000 cycles: 125178386 heartbeat IPC: 0.716415 cumulative IPC: 0.453676 (Simulation time: 1 hr 13 min 23 sec) 
Heartbeat CPU 0 instructions: 96000000 cycles: 126584704 heartbeat IPC: 0.711077 cumulative IPC: 0.457274 (Simulation time: 1 hr 14 min 1 sec) 
Heartbeat CPU 0 instructions: 97000001 cycles: 127985211 heartbeat IPC: 0.714028 cumulative IPC: 0.4608 (Simulation time: 1 hr 14 min 36 sec) 
Heartbeat CPU 0 instructions: 98000000 cycles: 129765095 heartbeat IPC: 0.561834 cumulative IPC: 0.462532 (Simulation time: 1 hr 15 min 13 sec) 
Heartbeat CPU 0 instructions: 99000001 cycles: 131127950 heartbeat IPC: 0.733755 cumulative IPC: 0.466048 (Simulation time: 1 hr 15 min 45 sec) 
Heartbeat CPU 0 instructions: 100000000 cycles: 132492643 heartbeat IPC: 0.732765 cumulative IPC: 0.469466 (Simulation time: 1 hr 16 min 18 sec) 
Heartbeat CPU 0 instructions: 101000002 cycles: 133852683 heartbeat IPC: 0.735274 cumulative IPC: 0.472817 (Simulation time: 1 hr 16 min 50 sec) 
Heartbeat CPU 0 instructions: 102000003 cycles: 135216132 heartbeat IPC: 0.733435 cumulative IPC: 0.47607 (Simulation time: 1 hr 17 min 21 sec) 
Heartbeat CPU 0 instructions: 103000000 cycles: 136577103 heartbeat IPC: 0.734767 cumulative IPC: 0.479254 (Simulation time: 1 hr 17 min 50 sec) 
Heartbeat CPU 0 instructions: 104000000 cycles: 138391332 heartbeat IPC: 0.551198 cumulative IPC: 0.480415 (Simulation time: 1 hr 18 min 21 sec) 
Heartbeat CPU 0 instructions: 105000003 cycles: 139782043 heartbeat IPC: 0.719059 cumulative IPC: 0.483332 (Simulation time: 1 hr 18 min 50 sec) 
Heartbeat CPU 0 instructions: 106000001 cycles: 141162127 heartbeat IPC: 0.724592 cumulative IPC: 0.486223 (Simulation time: 1 hr 19 min 19 sec) 
Heartbeat CPU 0 instructions: 107000001 cycles: 142552536 heartbeat IPC: 0.719213 cumulative IPC: 0.489002 (Simulation time: 1 hr 19 min 48 sec) 
Heartbeat CPU 0 instructions: 108000000 cycles: 143931296 heartbeat IPC: 0.725289 cumulative IPC: 0.491764 (Simulation time: 1 hr 20 min 16 sec) 
Heartbeat CPU 0 instructions: 109000000 cycles: 145310652 heartbeat IPC: 0.724976 cumulative IPC: 0.49446 (Simulation time: 1 hr 20 min 45 sec) 
Heartbeat CPU 0 instructions: 110000002 cycles: 147084279 heartbeat IPC: 0.563818 cumulative IPC: 0.495476 (Simulation time: 1 hr 21 min 9 sec) 
Heartbeat CPU 0 instructions: 111000002 cycles: 150445929 heartbeat IPC: 0.297473 cumulative IPC: 0.490128 (Simulation time: 1 hr 21 min 39 sec) 
Heartbeat CPU 0 instructions: 112000000 cycles: 153788366 heartbeat IPC: 0.299182 cumulative IPC: 0.485134 (Simulation time: 1 hr 22 min 11 sec) 
Heartbeat CPU 0 instructions: 113000001 cycles: 157124518 heartbeat IPC: 0.299747 cumulative IPC: 0.480418 (Simulation time: 1 hr 22 min 41 sec) 
Heartbeat CPU 0 instructions: 114000000 cycles: 160465616 heartbeat IPC: 0.299303 cumulative IPC: 0.475918 (Simulation time: 1 hr 23 min 11 sec) 
Heartbeat CPU 0 instructions: 115000002 cycles: 163799003 heartbeat IPC: 0.299996 cumulative IPC: 0.471662 (Simulation time: 1 hr 23 min 38 sec) 
Heartbeat CPU 0 instructions: 116000000 cycles: 167634762 heartbeat IPC: 0.260704 cumulative IPC: 0.46595 (Simulation time: 1 hr 24 min 5 sec) 
Heartbeat CPU 0 instructions: 117000000 cycles: 171239059 heartbeat IPC: 0.277447 cumulative IPC: 0.461272 (Simulation time: 1 hr 24 min 26 sec) 
Heartbeat CPU 0 instructions: 118000000 cycles: 174883452 heartbeat IPC: 0.274394 cumulative IPC: 0.456698 (Simulation time: 1 hr 24 min 47 sec) 
Heartbeat CPU 0 instructions: 119000003 cycles: 178635363 heartbeat IPC: 0.266532 cumulative IPC: 0.452024 (Simulation time: 1 hr 25 min 7 sec) 
Heartbeat CPU 0 instructions: 120000000 cycles: 182390065 heartbeat IPC: 0.266332 cumulative IPC: 0.447566 (Simulation time: 1 hr 25 min 26 sec) 
Heartbeat CPU 0 instructions: 121000001 cycles: 185706864 heartbeat IPC: 0.301496 cumulative IPC: 0.444533 (Simulation time: 1 hr 25 min 44 sec) 
Heartbeat CPU 0 instructions: 122000001 cycles: 187664308 heartbeat IPC: 0.51087 cumulative IPC: 0.445336 (Simulation time: 1 hr 26 min 0 sec) 
Heartbeat CPU 0 instructions: 123000000 cycles: 189599561 heartbeat IPC: 0.516728 cumulative IPC: 0.44618 (Simulation time: 1 hr 26 min 15 sec) 
Heartbeat CPU 0 instructions: 124000000 cycles: 191542022 heartbeat IPC: 0.514811 cumulative IPC: 0.446986 (Simulation time: 1 hr 26 min 30 sec) 
Heartbeat CPU 0 instructions: 125000001 cycles: 193483455 heartbeat IPC: 0.515084 cumulative IPC: 0.447775 (Simulation time: 1 hr 26 min 45 sec) 
Heartbeat CPU 0 instructions: 126000001 cycles: 195876508 heartbeat IPC: 0.417876 cumulative IPC: 0.447354 (Simulation time: 1 hr 26 min 59 sec) 
Heartbeat CPU 0 instructions: 127000000 cycles: 197831257 heartbeat IPC: 0.511574 cumulative IPC: 0.448084 (Simulation time: 1 hr 27 min 12 sec) 
Heartbeat CPU 0 instructions: 128000000 cycles: 199786806 heartbeat IPC: 0.511365 cumulative IPC: 0.448796 (Simulation time: 1 hr 27 min 24 sec) 
Heartbeat CPU 0 instructions: 129000000 cycles: 201676634 heartbeat IPC: 0.529149 cumulative IPC: 0.449661 (Simulation time: 1 hr 27 min 36 sec) 
Heartbeat CPU 0 instructions: 130000003 cycles: 203605258 heartbeat IPC: 0.518506 cumulative IPC: 0.450408 (Simulation time: 1 hr 27 min 47 sec) 
Heartbeat CPU 0 instructions: 131000001 cycles: 205570712 heartbeat IPC: 0.508787 cumulative IPC: 0.451047 (Simulation time: 1 hr 27 min 59 sec) 
Heartbeat CPU 0 instructions: 132000000 cycles: 207361810 heartbeat IPC: 0.558316 cumulative IPC: 0.452106 (Simulation time: 1 hr 28 min 11 sec) 
Heartbeat CPU 0 instructions: 133000000 cycles: 208708340 heartbeat IPC: 0.74265 cumulative IPC: 0.454248 (Simulation time: 1 hr 28 min 21 sec) 
Heartbeat CPU 0 instructions: 134000003 cycles: 210059053 heartbeat IPC: 0.740352 cumulative IPC: 0.456347 (Simulation time: 1 hr 28 min 32 sec) 
Heartbeat CPU 0 instructions: 135000001 cycles: 211411001 heartbeat IPC: 0.739672 cumulative IPC: 0.458413 (Simulation time: 1 hr 28 min 42 sec) 
Heartbeat CPU 0 instructions: 136000000 cycles: 212761642 heartbeat IPC: 0.740388 cumulative IPC: 0.460452 (Simulation time: 1 hr 28 min 53 sec) 
Heartbeat CPU 0 instructions: 137000001 cycles: 214111952 heartbeat IPC: 0.740571 cumulative IPC: 0.462462 (Simulation time: 1 hr 29 min 2 sec) 
Heartbeat CPU 0 instructions: 138000000 cycles: 215898029 heartbeat IPC: 0.559886 cumulative IPC: 0.463379 (Simulation time: 1 hr 29 min 11 sec) 
Heartbeat CPU 0 instructions: 139000001 cycles: 217270093 heartbeat IPC: 0.72883 cumulative IPC: 0.465283 (Simulation time: 1 hr 29 min 20 sec) 
Heartbeat CPU 0 instructions: 140000000 cycles: 218640582 heartbeat IPC: 0.729666 cumulative IPC: 0.467164 (Simulation time: 1 hr 29 min 29 sec) 
Heartbeat CPU 0 instructions: 141000000 cycles: 220016099 heartbeat IPC: 0.726999 cumulative IPC: 0.469006 (Simulation time: 1 hr 29 min 38 sec) 
Heartbeat CPU 0 instructions: 142000002 cycles: 221382132 heartbeat IPC: 0.732048 cumulative IPC: 0.470845 (Simulation time: 1 hr 29 min 47 sec) 
Heartbeat CPU 0 instructions: 143000000 cycles: 222747951 heartbeat IPC: 0.73216 cumulative IPC: 0.472659 (Simulation time: 1 hr 29 min 56 sec) 
Heartbeat CPU 0 instructions: 144000000 cycles: 224152825 heartbeat IPC: 0.711808 cumulative IPC: 0.474354 (Simulation time: 1 hr 30 min 5 sec) 
Heartbeat CPU 0 instructions: 145000000 cycles: 225595243 heartbeat IPC: 0.69328 cumulative IPC: 0.475936 (Simulation time: 1 hr 30 min 12 sec) 
Heartbeat CPU 0 instructions: 146000001 cycles: 227124334 heartbeat IPC: 0.653984 cumulative IPC: 0.47729 (Simulation time: 1 hr 30 min 19 sec) 
Heartbeat CPU 0 instructions: 147000003 cycles: 228696895 heartbeat IPC: 0.635907 cumulative IPC: 0.47852 (Simulation time: 1 hr 30 min 27 sec) 
Heartbeat CPU 0 instructions: 148000000 cycles: 230306490 heartbeat IPC: 0.621272 cumulative IPC: 0.479645 (Simulation time: 1 hr 30 min 34 sec) 
Heartbeat CPU 0 instructions: 149000002 cycles: 231886817 heartbeat IPC: 0.632782 cumulative IPC: 0.48082 (Simulation time: 1 hr 30 min 41 sec) 
Heartbeat CPU 0 instructions: 150000003 cycles: 233494846 heartbeat IPC: 0.62188 cumulative IPC: 0.481913 (Simulation time: 1 hr 30 min 47 sec) 
Finished CPU 0 instructions: 100000000 cycles: 207506257 cummulative IPC: 0.481913 (Simulation time: 1 hr 30 min 47 sec) 

ChampSim completed all CPUs

Region of Interest Statistics

CPU 0 cummulative IPC: 0.481913 instructions: 100000000 cycles: 207506257
LLC TOTAL     ACCESS:   12337333  HIT:   10043138  MISS:    2294195
LLC LOAD      ACCESS:    4933395  HIT:    4206858  MISS:     726537
LLC RFO       ACCESS:         16  HIT:          0  MISS:         16
LLC PREFETCH  ACCESS:    6494942  HIT:    4997112  MISS:    1497830
LLC WRITEBACK ACCESS:     908980  HIT:     839168  MISS:      69812
OPTgen accesses: 452887
OPTgen hits: 700562
OPTgen hit rate: 154.688


