
*** ChampSim Multicore Out-of-Order Simulator ***

Warmup Instructions: 50000000
Simulation Instructions: 100000000
Configuration: 2
Number of CPUs: 1
LLC sets: 2048
LLC ways: 16
Off-chip DRAM Channels: 1 Width: 64-bit Data Rate: 1600 MT/s

CPU 0 runs /datasets/cs240c-wi22-a00-public/data/Assignment2-gz/astar_163B.trace.gz
CPU 0 L1D next line prefetcher
CPU 0 L2C IP-based stride prefetcher
Initialize Hawkeye state
Heartbeat CPU 0 instructions: 1000002 cycles: 531212 heartbeat IPC: 1.88249 cumulative IPC: 1.88249 (Simulation time: 0 hr 0 min 52 sec) 
Heartbeat CPU 0 instructions: 2000003 cycles: 1060827 heartbeat IPC: 1.88817 cumulative IPC: 1.88532 (Simulation time: 0 hr 1 min 52 sec) 
Heartbeat CPU 0 instructions: 3000003 cycles: 1590862 heartbeat IPC: 1.88667 cumulative IPC: 1.88577 (Simulation time: 0 hr 2 min 51 sec) 
Heartbeat CPU 0 instructions: 4000000 cycles: 2120964 heartbeat IPC: 1.88642 cumulative IPC: 1.88593 (Simulation time: 0 hr 3 min 52 sec) 
Heartbeat CPU 0 instructions: 5000000 cycles: 2652877 heartbeat IPC: 1.88001 cumulative IPC: 1.88475 (Simulation time: 0 hr 4 min 55 sec) 
Heartbeat CPU 0 instructions: 6000002 cycles: 3181392 heartbeat IPC: 1.8921 cumulative IPC: 1.88597 (Simulation time: 0 hr 5 min 54 sec) 
Heartbeat CPU 0 instructions: 7000003 cycles: 3710906 heartbeat IPC: 1.88853 cumulative IPC: 1.88633 (Simulation time: 0 hr 6 min 55 sec) 
Heartbeat CPU 0 instructions: 8000000 cycles: 4240188 heartbeat IPC: 1.88935 cumulative IPC: 1.88671 (Simulation time: 0 hr 7 min 54 sec) 
Heartbeat CPU 0 instructions: 9000000 cycles: 4771195 heartbeat IPC: 1.88321 cumulative IPC: 1.88632 (Simulation time: 0 hr 8 min 48 sec) 
Heartbeat CPU 0 instructions: 10000001 cycles: 5301294 heartbeat IPC: 1.88644 cumulative IPC: 1.88633 (Simulation time: 0 hr 9 min 43 sec) 
Heartbeat CPU 0 instructions: 11000003 cycles: 5830348 heartbeat IPC: 1.89017 cumulative IPC: 1.88668 (Simulation time: 0 hr 10 min 43 sec) 
Heartbeat CPU 0 instructions: 12000000 cycles: 6359122 heartbeat IPC: 1.89116 cumulative IPC: 1.88705 (Simulation time: 0 hr 11 min 47 sec) 
Heartbeat CPU 0 instructions: 13000002 cycles: 6888973 heartbeat IPC: 1.88733 cumulative IPC: 1.88707 (Simulation time: 0 hr 12 min 47 sec) 
Heartbeat CPU 0 instructions: 14000000 cycles: 7419089 heartbeat IPC: 1.88638 cumulative IPC: 1.88702 (Simulation time: 0 hr 13 min 41 sec) 
Heartbeat CPU 0 instructions: 15000000 cycles: 7949426 heartbeat IPC: 1.88559 cumulative IPC: 1.88693 (Simulation time: 0 hr 14 min 44 sec) 
Heartbeat CPU 0 instructions: 16000000 cycles: 8480317 heartbeat IPC: 1.88363 cumulative IPC: 1.88672 (Simulation time: 0 hr 15 min 45 sec) 
Heartbeat CPU 0 instructions: 17000002 cycles: 9009900 heartbeat IPC: 1.88828 cumulative IPC: 1.88681 (Simulation time: 0 hr 16 min 45 sec) 
Heartbeat CPU 0 instructions: 18000002 cycles: 9539285 heartbeat IPC: 1.88898 cumulative IPC: 1.88693 (Simulation time: 0 hr 17 min 47 sec) 
Heartbeat CPU 0 instructions: 19000003 cycles: 10069827 heartbeat IPC: 1.88487 cumulative IPC: 1.88683 (Simulation time: 0 hr 18 min 46 sec) 
Heartbeat CPU 0 instructions: 20000000 cycles: 10600095 heartbeat IPC: 1.88583 cumulative IPC: 1.88678 (Simulation time: 0 hr 19 min 43 sec) 
Heartbeat CPU 0 instructions: 21000003 cycles: 11130213 heartbeat IPC: 1.88638 cumulative IPC: 1.88676 (Simulation time: 0 hr 20 min 50 sec) 
Heartbeat CPU 0 instructions: 22000001 cycles: 11661808 heartbeat IPC: 1.88113 cumulative IPC: 1.8865 (Simulation time: 0 hr 21 min 46 sec) 
Heartbeat CPU 0 instructions: 23000001 cycles: 12191982 heartbeat IPC: 1.88617 cumulative IPC: 1.88649 (Simulation time: 0 hr 22 min 41 sec) 
Heartbeat CPU 0 instructions: 24000000 cycles: 12722846 heartbeat IPC: 1.88372 cumulative IPC: 1.88637 (Simulation time: 0 hr 23 min 44 sec) 
Heartbeat CPU 0 instructions: 25000003 cycles: 13223635 heartbeat IPC: 1.99686 cumulative IPC: 1.89055 (Simulation time: 0 hr 24 min 39 sec) 
Heartbeat CPU 0 instructions: 26000002 cycles: 13727930 heartbeat IPC: 1.98296 cumulative IPC: 1.89395 (Simulation time: 0 hr 25 min 41 sec) 
Heartbeat CPU 0 instructions: 27000000 cycles: 14239928 heartbeat IPC: 1.95313 cumulative IPC: 1.89608 (Simulation time: 0 hr 26 min 40 sec) 
Heartbeat CPU 0 instructions: 28000000 cycles: 14763440 heartbeat IPC: 1.91018 cumulative IPC: 1.89658 (Simulation time: 0 hr 27 min 36 sec) 
Heartbeat CPU 0 instructions: 29000003 cycles: 15291338 heartbeat IPC: 1.89431 cumulative IPC: 1.8965 (Simulation time: 0 hr 28 min 36 sec) 
Heartbeat CPU 0 instructions: 30000000 cycles: 15814711 heartbeat IPC: 1.91068 cumulative IPC: 1.89697 (Simulation time: 0 hr 29 min 33 sec) 
Heartbeat CPU 0 instructions: 31000001 cycles: 16335350 heartbeat IPC: 1.92072 cumulative IPC: 1.89772 (Simulation time: 0 hr 30 min 29 sec) 
Heartbeat CPU 0 instructions: 32000000 cycles: 16862633 heartbeat IPC: 1.89651 cumulative IPC: 1.89769 (Simulation time: 0 hr 31 min 24 sec) 
Heartbeat CPU 0 instructions: 33000001 cycles: 17383089 heartbeat IPC: 1.92139 cumulative IPC: 1.8984 (Simulation time: 0 hr 32 min 25 sec) 
Heartbeat CPU 0 instructions: 34000001 cycles: 17906005 heartbeat IPC: 1.91235 cumulative IPC: 1.8988 (Simulation time: 0 hr 33 min 23 sec) 
Heartbeat CPU 0 instructions: 35000000 cycles: 18431539 heartbeat IPC: 1.90282 cumulative IPC: 1.89892 (Simulation time: 0 hr 34 min 19 sec) 
Heartbeat CPU 0 instructions: 36000000 cycles: 18958441 heartbeat IPC: 1.89789 cumulative IPC: 1.89889 (Simulation time: 0 hr 35 min 15 sec) 
Heartbeat CPU 0 instructions: 37000002 cycles: 19475882 heartbeat IPC: 1.93259 cumulative IPC: 1.89979 (Simulation time: 0 hr 36 min 10 sec) 
Heartbeat CPU 0 instructions: 38000002 cycles: 19995840 heartbeat IPC: 1.92323 cumulative IPC: 1.9004 (Simulation time: 0 hr 37 min 7 sec) 
Heartbeat CPU 0 instructions: 39000001 cycles: 20516214 heartbeat IPC: 1.92169 cumulative IPC: 1.90094 (Simulation time: 0 hr 38 min 0 sec) 
Heartbeat CPU 0 instructions: 40000000 cycles: 21035122 heartbeat IPC: 1.92712 cumulative IPC: 1.90158 (Simulation time: 0 hr 38 min 58 sec) 
Heartbeat CPU 0 instructions: 41000001 cycles: 21556476 heartbeat IPC: 1.91808 cumulative IPC: 1.90198 (Simulation time: 0 hr 39 min 53 sec) 
Heartbeat CPU 0 instructions: 42000002 cycles: 22070402 heartbeat IPC: 1.94581 cumulative IPC: 1.903 (Simulation time: 0 hr 40 min 57 sec) 
Heartbeat CPU 0 instructions: 43000001 cycles: 22583990 heartbeat IPC: 1.94708 cumulative IPC: 1.904 (Simulation time: 0 hr 41 min 57 sec) 
Heartbeat CPU 0 instructions: 44000000 cycles: 23103989 heartbeat IPC: 1.92308 cumulative IPC: 1.90443 (Simulation time: 0 hr 42 min 53 sec) 
Heartbeat CPU 0 instructions: 45000001 cycles: 23620271 heartbeat IPC: 1.93693 cumulative IPC: 1.90514 (Simulation time: 0 hr 43 min 51 sec) 
Heartbeat CPU 0 instructions: 46000003 cycles: 24144608 heartbeat IPC: 1.90717 cumulative IPC: 1.90519 (Simulation time: 0 hr 44 min 49 sec) 
Heartbeat CPU 0 instructions: 47000000 cycles: 24668220 heartbeat IPC: 1.90981 cumulative IPC: 1.90529 (Simulation time: 0 hr 45 min 47 sec) 
Heartbeat CPU 0 instructions: 48000000 cycles: 25188549 heartbeat IPC: 1.92186 cumulative IPC: 1.90563 (Simulation time: 0 hr 46 min 49 sec) 
Heartbeat CPU 0 instructions: 49000003 cycles: 25714453 heartbeat IPC: 1.90149 cumulative IPC: 1.90554 (Simulation time: 0 hr 47 min 46 sec) 
Heartbeat CPU 0 instructions: 50000001 cycles: 26241069 heartbeat IPC: 1.89891 cumulative IPC: 1.90541 (Simulation time: 0 hr 48 min 40 sec) 

Warmup complete CPU 0 instructions: 50000001 cycles: 26241069 (Simulation time: 0 hr 48 min 40 sec) 

Heartbeat CPU 0 instructions: 51000003 cycles: 28173134 heartbeat IPC: 0.517582 cumulative IPC: 0.517582 (Simulation time: 0 hr 49 min 45 sec) 
Heartbeat CPU 0 instructions: 52000000 cycles: 30188453 heartbeat IPC: 0.496198 cumulative IPC: 0.506664 (Simulation time: 0 hr 50 min 49 sec) 
Heartbeat CPU 0 instructions: 53000001 cycles: 32156328 heartbeat IPC: 0.508163 cumulative IPC: 0.507163 (Simulation time: 0 hr 51 min 55 sec) 
Heartbeat CPU 0 instructions: 54000003 cycles: 34050224 heartbeat IPC: 0.528013 cumulative IPC: 0.51222 (Simulation time: 0 hr 53 min 4 sec) 
Heartbeat CPU 0 instructions: 55000000 cycles: 35916771 heartbeat IPC: 0.535747 cumulative IPC: 0.516758 (Simulation time: 0 hr 54 min 16 sec) 
Heartbeat CPU 0 instructions: 56000000 cycles: 37799345 heartbeat IPC: 0.531188 cumulative IPC: 0.519108 (Simulation time: 0 hr 55 min 29 sec) 
Heartbeat CPU 0 instructions: 57000000 cycles: 39657956 heartbeat IPC: 0.538036 cumulative IPC: 0.52173 (Simulation time: 0 hr 56 min 43 sec) 
Heartbeat CPU 0 instructions: 58000001 cycles: 41572285 heartbeat IPC: 0.522377 cumulative IPC: 0.521811 (Simulation time: 0 hr 57 min 55 sec) 
Heartbeat CPU 0 instructions: 59000003 cycles: 43458934 heartbeat IPC: 0.530041 cumulative IPC: 0.522713 (Simulation time: 0 hr 59 min 5 sec) 
Heartbeat CPU 0 instructions: 60000000 cycles: 45342298 heartbeat IPC: 0.530963 cumulative IPC: 0.523526 (Simulation time: 1 hr 0 min 15 sec) 
Heartbeat CPU 0 instructions: 61000002 cycles: 47230788 heartbeat IPC: 0.529525 cumulative IPC: 0.524066 (Simulation time: 1 hr 1 min 31 sec) 
Heartbeat CPU 0 instructions: 62000001 cycles: 49125963 heartbeat IPC: 0.527655 cumulative IPC: 0.524363 (Simulation time: 1 hr 2 min 44 sec) 
Heartbeat CPU 0 instructions: 63000001 cycles: 51167718 heartbeat IPC: 0.489775 cumulative IPC: 0.52153 (Simulation time: 1 hr 3 min 46 sec) 
Heartbeat CPU 0 instructions: 64000000 cycles: 53116415 heartbeat IPC: 0.513163 cumulative IPC: 0.520923 (Simulation time: 1 hr 4 min 52 sec) 
Heartbeat CPU 0 instructions: 65000000 cycles: 55051181 heartbeat IPC: 0.516858 cumulative IPC: 0.520651 (Simulation time: 1 hr 5 min 56 sec) 
Heartbeat CPU 0 instructions: 66000000 cycles: 56984618 heartbeat IPC: 0.517214 cumulative IPC: 0.520434 (Simulation time: 1 hr 7 min 3 sec) 
Heartbeat CPU 0 instructions: 67000003 cycles: 58910953 heartbeat IPC: 0.519122 cumulative IPC: 0.520357 (Simulation time: 1 hr 8 min 5 sec) 
Heartbeat CPU 0 instructions: 68000000 cycles: 60825247 heartbeat IPC: 0.522384 cumulative IPC: 0.520469 (Simulation time: 1 hr 9 min 9 sec) 
Heartbeat CPU 0 instructions: 69000000 cycles: 62738718 heartbeat IPC: 0.52261 cumulative IPC: 0.520581 (Simulation time: 1 hr 10 min 7 sec) 
Heartbeat CPU 0 instructions: 70000003 cycles: 64668641 heartbeat IPC: 0.518157 cumulative IPC: 0.52046 (Simulation time: 1 hr 11 min 4 sec) 
Heartbeat CPU 0 instructions: 71000001 cycles: 66603369 heartbeat IPC: 0.516867 cumulative IPC: 0.520288 (Simulation time: 1 hr 11 min 56 sec) 
Heartbeat CPU 0 instructions: 72000000 cycles: 68534430 heartbeat IPC: 0.51785 cumulative IPC: 0.520176 (Simulation time: 1 hr 12 min 45 sec) 
Heartbeat CPU 0 instructions: 73000000 cycles: 70476179 heartbeat IPC: 0.515 cumulative IPC: 0.519949 (Simulation time: 1 hr 13 min 34 sec) 
Heartbeat CPU 0 instructions: 74000000 cycles: 72402766 heartbeat IPC: 0.519053 cumulative IPC: 0.519912 (Simulation time: 1 hr 14 min 21 sec) 
Heartbeat CPU 0 instructions: 75000001 cycles: 74305104 heartbeat IPC: 0.525669 cumulative IPC: 0.520139 (Simulation time: 1 hr 15 min 1 sec) 
Heartbeat CPU 0 instructions: 76000000 cycles: 76228224 heartbeat IPC: 0.519988 cumulative IPC: 0.520134 (Simulation time: 1 hr 15 min 48 sec) 
Heartbeat CPU 0 instructions: 77000001 cycles: 78243176 heartbeat IPC: 0.49629 cumulative IPC: 0.51921 (Simulation time: 1 hr 16 min 31 sec) 
Heartbeat CPU 0 instructions: 78000000 cycles: 80192701 heartbeat IPC: 0.512945 cumulative IPC: 0.518983 (Simulation time: 1 hr 17 min 8 sec) 
Heartbeat CPU 0 instructions: 79000003 cycles: 82212268 heartbeat IPC: 0.495157 cumulative IPC: 0.518124 (Simulation time: 1 hr 17 min 47 sec) 
Heartbeat CPU 0 instructions: 80000000 cycles: 84330893 heartbeat IPC: 0.472003 cumulative IPC: 0.516442 (Simulation time: 1 hr 18 min 20 sec) 
Heartbeat CPU 0 instructions: 81000003 cycles: 86431314 heartbeat IPC: 0.476096 cumulative IPC: 0.515034 (Simulation time: 1 hr 18 min 50 sec) 
Heartbeat CPU 0 instructions: 82000000 cycles: 88473315 heartbeat IPC: 0.489714 cumulative IPC: 0.514203 (Simulation time: 1 hr 19 min 20 sec) 
Heartbeat CPU 0 instructions: 83000000 cycles: 90450053 heartbeat IPC: 0.505884 cumulative IPC: 0.513947 (Simulation time: 1 hr 19 min 54 sec) 
Heartbeat CPU 0 instructions: 84000000 cycles: 92422905 heartbeat IPC: 0.50688 cumulative IPC: 0.513736 (Simulation time: 1 hr 20 min 23 sec) 
Heartbeat CPU 0 instructions: 85000001 cycles: 94386202 heartbeat IPC: 0.509348 cumulative IPC: 0.51361 (Simulation time: 1 hr 20 min 52 sec) 
Heartbeat CPU 0 instructions: 86000002 cycles: 96345860 heartbeat IPC: 0.510294 cumulative IPC: 0.513517 (Simulation time: 1 hr 21 min 24 sec) 
Heartbeat CPU 0 instructions: 87000000 cycles: 98327721 heartbeat IPC: 0.504575 cumulative IPC: 0.513271 (Simulation time: 1 hr 21 min 52 sec) 
Heartbeat CPU 0 instructions: 88000000 cycles: 100361301 heartbeat IPC: 0.491744 cumulative IPC: 0.512681 (Simulation time: 1 hr 22 min 20 sec) 
Heartbeat CPU 0 instructions: 89000003 cycles: 102341330 heartbeat IPC: 0.505045 cumulative IPC: 0.512482 (Simulation time: 1 hr 22 min 49 sec) 
Heartbeat CPU 0 instructions: 90000000 cycles: 104308488 heartbeat IPC: 0.508346 cumulative IPC: 0.512378 (Simulation time: 1 hr 23 min 16 sec) 
Heartbeat CPU 0 instructions: 91000000 cycles: 106284877 heartbeat IPC: 0.505973 cumulative IPC: 0.512219 (Simulation time: 1 hr 23 min 40 sec) 
Heartbeat CPU 0 instructions: 92000000 cycles: 108264649 heartbeat IPC: 0.505109 cumulative IPC: 0.512048 (Simulation time: 1 hr 24 min 3 sec) 
Heartbeat CPU 0 instructions: 93000003 cycles: 110213640 heartbeat IPC: 0.513088 cumulative IPC: 0.512072 (Simulation time: 1 hr 24 min 23 sec) 
Heartbeat CPU 0 instructions: 94000000 cycles: 112142813 heartbeat IPC: 0.518355 cumulative IPC: 0.512213 (Simulation time: 1 hr 24 min 41 sec) 
Heartbeat CPU 0 instructions: 95000000 cycles: 114108495 heartbeat IPC: 0.508729 cumulative IPC: 0.512135 (Simulation time: 1 hr 24 min 58 sec) 
Heartbeat CPU 0 instructions: 96000000 cycles: 116106434 heartbeat IPC: 0.500516 cumulative IPC: 0.511877 (Simulation time: 1 hr 25 min 13 sec) 
Heartbeat CPU 0 instructions: 97000000 cycles: 118102984 heartbeat IPC: 0.500864 cumulative IPC: 0.511638 (Simulation time: 1 hr 25 min 27 sec) 
Heartbeat CPU 0 instructions: 98000000 cycles: 120080234 heartbeat IPC: 0.505753 cumulative IPC: 0.511513 (Simulation time: 1 hr 25 min 42 sec) 
Heartbeat CPU 0 instructions: 99000000 cycles: 122133492 heartbeat IPC: 0.487031 cumulative IPC: 0.510989 (Simulation time: 1 hr 25 min 55 sec) 
Heartbeat CPU 0 instructions: 100000000 cycles: 124118083 heartbeat IPC: 0.503882 cumulative IPC: 0.510845 (Simulation time: 1 hr 26 min 8 sec) 
Heartbeat CPU 0 instructions: 101000000 cycles: 126128198 heartbeat IPC: 0.497484 cumulative IPC: 0.510576 (Simulation time: 1 hr 26 min 20 sec) 
Heartbeat CPU 0 instructions: 102000003 cycles: 128117471 heartbeat IPC: 0.502698 cumulative IPC: 0.510422 (Simulation time: 1 hr 26 min 32 sec) 
Heartbeat CPU 0 instructions: 103000000 cycles: 130067315 heartbeat IPC: 0.51286 cumulative IPC: 0.510468 (Simulation time: 1 hr 26 min 44 sec) 
Heartbeat CPU 0 instructions: 104000000 cycles: 132002389 heartbeat IPC: 0.516776 cumulative IPC: 0.510584 (Simulation time: 1 hr 26 min 57 sec) 
Heartbeat CPU 0 instructions: 105000002 cycles: 133942166 heartbeat IPC: 0.515524 cumulative IPC: 0.510673 (Simulation time: 1 hr 27 min 8 sec) 
Heartbeat CPU 0 instructions: 106000003 cycles: 135862845 heartbeat IPC: 0.52065 cumulative IPC: 0.510847 (Simulation time: 1 hr 27 min 19 sec) 
Heartbeat CPU 0 instructions: 107000000 cycles: 137805174 heartbeat IPC: 0.514844 cumulative IPC: 0.510917 (Simulation time: 1 hr 27 min 30 sec) 
Heartbeat CPU 0 instructions: 108000000 cycles: 139851599 heartbeat IPC: 0.488657 cumulative IPC: 0.510516 (Simulation time: 1 hr 27 min 40 sec) 
Heartbeat CPU 0 instructions: 109000003 cycles: 141860671 heartbeat IPC: 0.497744 cumulative IPC: 0.510294 (Simulation time: 1 hr 27 min 51 sec) 
Heartbeat CPU 0 instructions: 110000002 cycles: 143837812 heartbeat IPC: 0.50578 cumulative IPC: 0.510218 (Simulation time: 1 hr 28 min 2 sec) 
Heartbeat CPU 0 instructions: 111000002 cycles: 145789280 heartbeat IPC: 0.512435 cumulative IPC: 0.510254 (Simulation time: 1 hr 28 min 13 sec) 
Heartbeat CPU 0 instructions: 112000000 cycles: 147759029 heartbeat IPC: 0.507678 cumulative IPC: 0.510213 (Simulation time: 1 hr 28 min 24 sec) 
Heartbeat CPU 0 instructions: 113000000 cycles: 149721300 heartbeat IPC: 0.509614 cumulative IPC: 0.510203 (Simulation time: 1 hr 28 min 34 sec) 
Heartbeat CPU 0 instructions: 114000001 cycles: 151690129 heartbeat IPC: 0.507917 cumulative IPC: 0.510167 (Simulation time: 1 hr 28 min 44 sec) 
Heartbeat CPU 0 instructions: 115000000 cycles: 153667842 heartbeat IPC: 0.505634 cumulative IPC: 0.510097 (Simulation time: 1 hr 28 min 55 sec) 
Heartbeat CPU 0 instructions: 116000000 cycles: 155679167 heartbeat IPC: 0.497185 cumulative IPC: 0.509896 (Simulation time: 1 hr 29 min 4 sec) 
Heartbeat CPU 0 instructions: 117000000 cycles: 157732153 heartbeat IPC: 0.487095 cumulative IPC: 0.50954 (Simulation time: 1 hr 29 min 13 sec) 
Heartbeat CPU 0 instructions: 118000002 cycles: 159804482 heartbeat IPC: 0.48255 cumulative IPC: 0.509121 (Simulation time: 1 hr 29 min 20 sec) 
Heartbeat CPU 0 instructions: 119000001 cycles: 161856412 heartbeat IPC: 0.487346 cumulative IPC: 0.508792 (Simulation time: 1 hr 29 min 27 sec) 
Heartbeat CPU 0 instructions: 120000000 cycles: 163867676 heartbeat IPC: 0.497199 cumulative IPC: 0.508623 (Simulation time: 1 hr 29 min 35 sec) 
Heartbeat CPU 0 instructions: 121000000 cycles: 165920215 heartbeat IPC: 0.487201 cumulative IPC: 0.508308 (Simulation time: 1 hr 29 min 42 sec) 
Heartbeat CPU 0 instructions: 122000001 cycles: 168022605 heartbeat IPC: 0.47565 cumulative IPC: 0.507824 (Simulation time: 1 hr 29 min 50 sec) 
Heartbeat CPU 0 instructions: 123000000 cycles: 170065658 heartbeat IPC: 0.489463 cumulative IPC: 0.507563 (Simulation time: 1 hr 29 min 58 sec) 
Heartbeat CPU 0 instructions: 124000000 cycles: 172056306 heartbeat IPC: 0.502349 cumulative IPC: 0.507492 (Simulation time: 1 hr 30 min 6 sec) 
Heartbeat CPU 0 instructions: 125000001 cycles: 174029202 heartbeat IPC: 0.50687 cumulative IPC: 0.507483 (Simulation time: 1 hr 30 min 13 sec) 
Heartbeat CPU 0 instructions: 126000000 cycles: 176006476 heartbeat IPC: 0.505746 cumulative IPC: 0.50746 (Simulation time: 1 hr 30 min 20 sec) 
Heartbeat CPU 0 instructions: 127000001 cycles: 177983578 heartbeat IPC: 0.505791 cumulative IPC: 0.507439 (Simulation time: 1 hr 30 min 27 sec) 
Heartbeat CPU 0 instructions: 128000000 cycles: 179992260 heartbeat IPC: 0.497838 cumulative IPC: 0.507313 (Simulation time: 1 hr 30 min 34 sec) 
Heartbeat CPU 0 instructions: 129000000 cycles: 182021123 heartbeat IPC: 0.492887 cumulative IPC: 0.507125 (Simulation time: 1 hr 30 min 42 sec) 
Heartbeat CPU 0 instructions: 130000002 cycles: 184021360 heartbeat IPC: 0.499942 cumulative IPC: 0.507034 (Simulation time: 1 hr 30 min 48 sec) 
Heartbeat CPU 0 instructions: 131000001 cycles: 185992437 heartbeat IPC: 0.507336 cumulative IPC: 0.507038 (Simulation time: 1 hr 30 min 54 sec) 
Heartbeat CPU 0 instructions: 132000000 cycles: 187961432 heartbeat IPC: 0.507873 cumulative IPC: 0.507048 (Simulation time: 1 hr 31 min 0 sec) 
Heartbeat CPU 0 instructions: 133000001 cycles: 189938216 heartbeat IPC: 0.505873 cumulative IPC: 0.507034 (Simulation time: 1 hr 31 min 6 sec) 
Heartbeat CPU 0 instructions: 134000002 cycles: 191921376 heartbeat IPC: 0.504246 cumulative IPC: 0.507001 (Simulation time: 1 hr 31 min 13 sec) 
Heartbeat CPU 0 instructions: 135000003 cycles: 193930482 heartbeat IPC: 0.497734 cumulative IPC: 0.50689 (Simulation time: 1 hr 31 min 18 sec) 
Heartbeat CPU 0 instructions: 136000000 cycles: 195908239 heartbeat IPC: 0.505622 cumulative IPC: 0.506875 (Simulation time: 1 hr 31 min 23 sec) 
Heartbeat CPU 0 instructions: 137000000 cycles: 197886391 heartbeat IPC: 0.505522 cumulative IPC: 0.506859 (Simulation time: 1 hr 31 min 28 sec) 
Heartbeat CPU 0 instructions: 138000003 cycles: 199874569 heartbeat IPC: 0.502975 cumulative IPC: 0.506815 (Simulation time: 1 hr 31 min 34 sec) 
Heartbeat CPU 0 instructions: 139000000 cycles: 201891664 heartbeat IPC: 0.495761 cumulative IPC: 0.506688 (Simulation time: 1 hr 31 min 39 sec) 
Heartbeat CPU 0 instructions: 140000000 cycles: 203919959 heartbeat IPC: 0.493025 cumulative IPC: 0.506532 (Simulation time: 1 hr 31 min 45 sec) 
Heartbeat CPU 0 instructions: 141000002 cycles: 205921420 heartbeat IPC: 0.499636 cumulative IPC: 0.506455 (Simulation time: 1 hr 31 min 50 sec) 
Heartbeat CPU 0 instructions: 142000002 cycles: 207907888 heartbeat IPC: 0.503406 cumulative IPC: 0.506422 (Simulation time: 1 hr 31 min 55 sec) 
Heartbeat CPU 0 instructions: 143000002 cycles: 209913339 heartbeat IPC: 0.498641 cumulative IPC: 0.506337 (Simulation time: 1 hr 31 min 59 sec) 
Heartbeat CPU 0 instructions: 144000000 cycles: 211919992 heartbeat IPC: 0.498341 cumulative IPC: 0.50625 (Simulation time: 1 hr 32 min 4 sec) 
Heartbeat CPU 0 instructions: 145000001 cycles: 214011698 heartbeat IPC: 0.478079 cumulative IPC: 0.505936 (Simulation time: 1 hr 32 min 8 sec) 
Heartbeat CPU 0 instructions: 146000000 cycles: 216195533 heartbeat IPC: 0.45791 cumulative IPC: 0.505384 (Simulation time: 1 hr 32 min 13 sec) 
Heartbeat CPU 0 instructions: 147000000 cycles: 218297797 heartbeat IPC: 0.475678 cumulative IPC: 0.505059 (Simulation time: 1 hr 32 min 17 sec) 
Heartbeat CPU 0 instructions: 148000000 cycles: 220400453 heartbeat IPC: 0.475589 cumulative IPC: 0.50474 (Simulation time: 1 hr 32 min 21 sec) 
Heartbeat CPU 0 instructions: 149000000 cycles: 222487381 heartbeat IPC: 0.479173 cumulative IPC: 0.504468 (Simulation time: 1 hr 32 min 26 sec) 
Heartbeat CPU 0 instructions: 150000000 cycles: 224593870 heartbeat IPC: 0.474724 cumulative IPC: 0.504152 (Simulation time: 1 hr 32 min 30 sec) 
Finished CPU 0 instructions: 100000003 cycles: 198352802 cummulative IPC: 0.504152 (Simulation time: 1 hr 32 min 30 sec) 

ChampSim completed all CPUs

Region of Interest Statistics

CPU 0 cummulative IPC: 0.504152 instructions: 100000003 cycles: 198352802
LLC TOTAL     ACCESS:     477021  HIT:     288958  MISS:     188063
LLC LOAD      ACCESS:     104810  HIT:      75522  MISS:      29288
LLC RFO       ACCESS:      70517  HIT:      24366  MISS:      46151
LLC PREFETCH  ACCESS:     138038  HIT:      86175  MISS:      51863
LLC WRITEBACK ACCESS:     163656  HIT:     102895  MISS:      60761
OPTgen accesses: 18062
OPTgen hits: 8562
OPTgen hit rate: 47.4034


