
*** ChampSim Multicore Out-of-Order Simulator ***

Warmup Instructions: 50000000
Simulation Instructions: 100000000
Configuration: 2
Number of CPUs: 1
LLC sets: 2048
LLC ways: 16
Off-chip DRAM Channels: 1 Width: 64-bit Data Rate: 1600 MT/s

CPU 0 runs /datasets/cs240c-wi22-a00-public/data/Assignment2-gz/zeusmp_300B.trace.gz
CPU 0 L1D next line prefetcher
CPU 0 L2C IP-based stride prefetcher
Initialize Hawkeye state
Heartbeat CPU 0 instructions: 1000003 cycles: 509580 heartbeat IPC: 1.96241 cumulative IPC: 1.96241 (Simulation time: 0 hr 0 min 31 sec) 
Heartbeat CPU 0 instructions: 2000003 cycles: 1062148 heartbeat IPC: 1.80973 cumulative IPC: 1.88298 (Simulation time: 0 hr 0 min 58 sec) 
Heartbeat CPU 0 instructions: 3000002 cycles: 1606419 heartbeat IPC: 1.83732 cumulative IPC: 1.86751 (Simulation time: 0 hr 1 min 23 sec) 
Heartbeat CPU 0 instructions: 4000000 cycles: 2093208 heartbeat IPC: 2.05427 cumulative IPC: 1.91094 (Simulation time: 0 hr 1 min 50 sec) 
Heartbeat CPU 0 instructions: 5000001 cycles: 2575890 heartbeat IPC: 2.07176 cumulative IPC: 1.94108 (Simulation time: 0 hr 2 min 15 sec) 
Heartbeat CPU 0 instructions: 6000000 cycles: 3062578 heartbeat IPC: 2.0547 cumulative IPC: 1.95913 (Simulation time: 0 hr 2 min 43 sec) 
Heartbeat CPU 0 instructions: 7000001 cycles: 3590724 heartbeat IPC: 1.89342 cumulative IPC: 1.94947 (Simulation time: 0 hr 3 min 8 sec) 
Heartbeat CPU 0 instructions: 8000000 cycles: 4144750 heartbeat IPC: 1.80497 cumulative IPC: 1.93015 (Simulation time: 0 hr 3 min 34 sec) 
Heartbeat CPU 0 instructions: 9000000 cycles: 4672636 heartbeat IPC: 1.89435 cumulative IPC: 1.92611 (Simulation time: 0 hr 4 min 1 sec) 
Heartbeat CPU 0 instructions: 10000002 cycles: 5158925 heartbeat IPC: 2.05639 cumulative IPC: 1.93839 (Simulation time: 0 hr 4 min 27 sec) 
Heartbeat CPU 0 instructions: 11000003 cycles: 5643382 heartbeat IPC: 2.06417 cumulative IPC: 1.94919 (Simulation time: 0 hr 4 min 51 sec) 
Heartbeat CPU 0 instructions: 12000000 cycles: 6129758 heartbeat IPC: 2.05602 cumulative IPC: 1.95766 (Simulation time: 0 hr 5 min 15 sec) 
Heartbeat CPU 0 instructions: 13000001 cycles: 6673158 heartbeat IPC: 1.84027 cumulative IPC: 1.9481 (Simulation time: 0 hr 5 min 41 sec) 
Heartbeat CPU 0 instructions: 14000002 cycles: 7229000 heartbeat IPC: 1.79907 cumulative IPC: 1.93664 (Simulation time: 0 hr 6 min 7 sec) 
Heartbeat CPU 0 instructions: 15000002 cycles: 7738478 heartbeat IPC: 1.96279 cumulative IPC: 1.93837 (Simulation time: 0 hr 6 min 33 sec) 
Heartbeat CPU 0 instructions: 16000000 cycles: 8224669 heartbeat IPC: 2.0568 cumulative IPC: 1.94537 (Simulation time: 0 hr 7 min 0 sec) 
Heartbeat CPU 0 instructions: 17000003 cycles: 8709956 heartbeat IPC: 2.06064 cumulative IPC: 1.95179 (Simulation time: 0 hr 7 min 26 sec) 
Heartbeat CPU 0 instructions: 18000003 cycles: 9197099 heartbeat IPC: 2.05279 cumulative IPC: 1.95714 (Simulation time: 0 hr 7 min 51 sec) 
Heartbeat CPU 0 instructions: 19000003 cycles: 9756339 heartbeat IPC: 1.78814 cumulative IPC: 1.94745 (Simulation time: 0 hr 8 min 17 sec) 
Heartbeat CPU 0 instructions: 20000000 cycles: 10314732 heartbeat IPC: 1.79085 cumulative IPC: 1.93897 (Simulation time: 0 hr 8 min 41 sec) 
Heartbeat CPU 0 instructions: 21000003 cycles: 10806533 heartbeat IPC: 2.03335 cumulative IPC: 1.94327 (Simulation time: 0 hr 9 min 7 sec) 
Heartbeat CPU 0 instructions: 22000002 cycles: 11292678 heartbeat IPC: 2.057 cumulative IPC: 1.94817 (Simulation time: 0 hr 9 min 31 sec) 
Heartbeat CPU 0 instructions: 23000001 cycles: 11778610 heartbeat IPC: 2.0579 cumulative IPC: 1.95269 (Simulation time: 0 hr 9 min 54 sec) 
Heartbeat CPU 0 instructions: 24000000 cycles: 12283081 heartbeat IPC: 1.98227 cumulative IPC: 1.95391 (Simulation time: 0 hr 10 min 19 sec) 
Heartbeat CPU 0 instructions: 25000000 cycles: 12841558 heartbeat IPC: 1.79058 cumulative IPC: 1.9468 (Simulation time: 0 hr 10 min 46 sec) 
Heartbeat CPU 0 instructions: 26000000 cycles: 13389685 heartbeat IPC: 1.82439 cumulative IPC: 1.94179 (Simulation time: 0 hr 11 min 14 sec) 
Heartbeat CPU 0 instructions: 27000002 cycles: 13876523 heartbeat IPC: 2.05408 cumulative IPC: 1.94573 (Simulation time: 0 hr 11 min 44 sec) 
Heartbeat CPU 0 instructions: 28000000 cycles: 14362558 heartbeat IPC: 2.05746 cumulative IPC: 1.94951 (Simulation time: 0 hr 12 min 9 sec) 
Heartbeat CPU 0 instructions: 29000003 cycles: 14849424 heartbeat IPC: 2.05396 cumulative IPC: 1.95294 (Simulation time: 0 hr 12 min 36 sec) 
Heartbeat CPU 0 instructions: 30000001 cycles: 15371584 heartbeat IPC: 1.91512 cumulative IPC: 1.95165 (Simulation time: 0 hr 13 min 1 sec) 
Heartbeat CPU 0 instructions: 31000000 cycles: 15931084 heartbeat IPC: 1.78731 cumulative IPC: 1.94588 (Simulation time: 0 hr 13 min 26 sec) 
Heartbeat CPU 0 instructions: 32000000 cycles: 16464322 heartbeat IPC: 1.87534 cumulative IPC: 1.9436 (Simulation time: 0 hr 13 min 52 sec) 
Heartbeat CPU 0 instructions: 33000000 cycles: 16950495 heartbeat IPC: 2.05688 cumulative IPC: 1.94685 (Simulation time: 0 hr 14 min 19 sec) 
Heartbeat CPU 0 instructions: 34000000 cycles: 17437079 heartbeat IPC: 2.05514 cumulative IPC: 1.94987 (Simulation time: 0 hr 14 min 44 sec) 
Heartbeat CPU 0 instructions: 35000000 cycles: 17923566 heartbeat IPC: 2.05555 cumulative IPC: 1.95274 (Simulation time: 0 hr 15 min 10 sec) 
Heartbeat CPU 0 instructions: 36000000 cycles: 18462575 heartbeat IPC: 1.85526 cumulative IPC: 1.94989 (Simulation time: 0 hr 15 min 34 sec) 
Heartbeat CPU 0 instructions: 37000003 cycles: 19023020 heartbeat IPC: 1.7843 cumulative IPC: 1.94501 (Simulation time: 0 hr 15 min 56 sec) 
Heartbeat CPU 0 instructions: 38000000 cycles: 19539129 heartbeat IPC: 1.93757 cumulative IPC: 1.94482 (Simulation time: 0 hr 16 min 23 sec) 
Heartbeat CPU 0 instructions: 39000003 cycles: 20026008 heartbeat IPC: 2.0539 cumulative IPC: 1.94747 (Simulation time: 0 hr 16 min 48 sec) 
Heartbeat CPU 0 instructions: 40000000 cycles: 20512603 heartbeat IPC: 2.05509 cumulative IPC: 1.95002 (Simulation time: 0 hr 17 min 12 sec) 
Heartbeat CPU 0 instructions: 41000000 cycles: 20998852 heartbeat IPC: 2.05656 cumulative IPC: 1.95249 (Simulation time: 0 hr 17 min 39 sec) 
Heartbeat CPU 0 instructions: 42000002 cycles: 21555939 heartbeat IPC: 1.79506 cumulative IPC: 1.94842 (Simulation time: 0 hr 18 min 5 sec) 
Heartbeat CPU 0 instructions: 43000002 cycles: 22116967 heartbeat IPC: 1.78244 cumulative IPC: 1.94421 (Simulation time: 0 hr 18 min 30 sec) 
Heartbeat CPU 0 instructions: 44000000 cycles: 22615254 heartbeat IPC: 2.00687 cumulative IPC: 1.94559 (Simulation time: 0 hr 18 min 55 sec) 
Heartbeat CPU 0 instructions: 45000003 cycles: 23101858 heartbeat IPC: 2.05507 cumulative IPC: 1.9479 (Simulation time: 0 hr 19 min 20 sec) 
Heartbeat CPU 0 instructions: 46000001 cycles: 23588273 heartbeat IPC: 2.05585 cumulative IPC: 1.95012 (Simulation time: 0 hr 19 min 46 sec) 
Heartbeat CPU 0 instructions: 47000000 cycles: 24086639 heartbeat IPC: 2.00656 cumulative IPC: 1.95129 (Simulation time: 0 hr 20 min 12 sec) 
Heartbeat CPU 0 instructions: 48000000 cycles: 24649905 heartbeat IPC: 1.77536 cumulative IPC: 1.94727 (Simulation time: 0 hr 20 min 37 sec) 
Heartbeat CPU 0 instructions: 49000002 cycles: 25206162 heartbeat IPC: 1.79773 cumulative IPC: 1.94397 (Simulation time: 0 hr 21 min 2 sec) 
Heartbeat CPU 0 instructions: 50000000 cycles: 25692726 heartbeat IPC: 2.05522 cumulative IPC: 1.94608 (Simulation time: 0 hr 21 min 29 sec) 

Warmup complete CPU 0 instructions: 50000004 cycles: 25692727 (Simulation time: 0 hr 21 min 29 sec) 

Heartbeat CPU 0 instructions: 51000002 cycles: 26376277 heartbeat IPC: 1.46295 cumulative IPC: 1.46295 (Simulation time: 0 hr 21 min 58 sec) 
Heartbeat CPU 0 instructions: 52000000 cycles: 27061923 heartbeat IPC: 1.45848 cumulative IPC: 1.46071 (Simulation time: 0 hr 22 min 25 sec) 
Heartbeat CPU 0 instructions: 53000000 cycles: 27812569 heartbeat IPC: 1.33219 cumulative IPC: 1.4152 (Simulation time: 0 hr 22 min 54 sec) 
Heartbeat CPU 0 instructions: 54000002 cycles: 28624871 heartbeat IPC: 1.23107 cumulative IPC: 1.36419 (Simulation time: 0 hr 23 min 24 sec) 
Heartbeat CPU 0 instructions: 55000001 cycles: 29401848 heartbeat IPC: 1.28704 cumulative IPC: 1.34803 (Simulation time: 0 hr 23 min 55 sec) 
Heartbeat CPU 0 instructions: 56000000 cycles: 30084012 heartbeat IPC: 1.46592 cumulative IPC: 1.36634 (Simulation time: 0 hr 24 min 24 sec) 
Heartbeat CPU 0 instructions: 57000000 cycles: 30767098 heartbeat IPC: 1.46394 cumulative IPC: 1.37948 (Simulation time: 0 hr 24 min 52 sec) 
Heartbeat CPU 0 instructions: 58000000 cycles: 31454285 heartbeat IPC: 1.45521 cumulative IPC: 1.38851 (Simulation time: 0 hr 25 min 19 sec) 
Heartbeat CPU 0 instructions: 59000003 cycles: 32232996 heartbeat IPC: 1.28418 cumulative IPC: 1.37609 (Simulation time: 0 hr 25 min 48 sec) 
Heartbeat CPU 0 instructions: 60000000 cycles: 33045818 heartbeat IPC: 1.23028 cumulative IPC: 1.35997 (Simulation time: 0 hr 26 min 16 sec) 
Heartbeat CPU 0 instructions: 61000000 cycles: 33793455 heartbeat IPC: 1.33755 cumulative IPC: 1.3579 (Simulation time: 0 hr 26 min 44 sec) 
Heartbeat CPU 0 instructions: 62000002 cycles: 34475803 heartbeat IPC: 1.46553 cumulative IPC: 1.36626 (Simulation time: 0 hr 27 min 10 sec) 
Heartbeat CPU 0 instructions: 63000003 cycles: 35160294 heartbeat IPC: 1.46094 cumulative IPC: 1.37311 (Simulation time: 0 hr 27 min 36 sec) 
Heartbeat CPU 0 instructions: 64000000 cycles: 35843787 heartbeat IPC: 1.46307 cumulative IPC: 1.37917 (Simulation time: 0 hr 28 min 7 sec) 
Heartbeat CPU 0 instructions: 65000003 cycles: 36654388 heartbeat IPC: 1.23366 cumulative IPC: 1.36841 (Simulation time: 0 hr 28 min 36 sec) 
Heartbeat CPU 0 instructions: 66000003 cycles: 37467523 heartbeat IPC: 1.22981 cumulative IPC: 1.35883 (Simulation time: 0 hr 29 min 5 sec) 
Heartbeat CPU 0 instructions: 67000002 cycles: 38185630 heartbeat IPC: 1.39255 cumulative IPC: 1.36077 (Simulation time: 0 hr 29 min 34 sec) 
Heartbeat CPU 0 instructions: 68000000 cycles: 38867774 heartbeat IPC: 1.46596 cumulative IPC: 1.36622 (Simulation time: 0 hr 30 min 2 sec) 
Heartbeat CPU 0 instructions: 69000000 cycles: 39553528 heartbeat IPC: 1.45825 cumulative IPC: 1.37077 (Simulation time: 0 hr 30 min 29 sec) 
Heartbeat CPU 0 instructions: 70000001 cycles: 40265523 heartbeat IPC: 1.40451 cumulative IPC: 1.37242 (Simulation time: 0 hr 30 min 57 sec) 
Heartbeat CPU 0 instructions: 71000001 cycles: 41075266 heartbeat IPC: 1.23496 cumulative IPC: 1.36518 (Simulation time: 0 hr 31 min 25 sec) 
Heartbeat CPU 0 instructions: 72000000 cycles: 41886638 heartbeat IPC: 1.23248 cumulative IPC: 1.35854 (Simulation time: 0 hr 31 min 54 sec) 
Heartbeat CPU 0 instructions: 73000003 cycles: 42576218 heartbeat IPC: 1.45016 cumulative IPC: 1.36228 (Simulation time: 0 hr 32 min 23 sec) 
Heartbeat CPU 0 instructions: 74000001 cycles: 43261015 heartbeat IPC: 1.46028 cumulative IPC: 1.3661 (Simulation time: 0 hr 32 min 49 sec) 
Heartbeat CPU 0 instructions: 75000003 cycles: 43946074 heartbeat IPC: 1.45973 cumulative IPC: 1.36961 (Simulation time: 0 hr 33 min 16 sec) 
Heartbeat CPU 0 instructions: 76000000 cycles: 44689656 heartbeat IPC: 1.34484 cumulative IPC: 1.36864 (Simulation time: 0 hr 33 min 44 sec) 
Heartbeat CPU 0 instructions: 77000001 cycles: 45502433 heartbeat IPC: 1.23035 cumulative IPC: 1.36297 (Simulation time: 0 hr 34 min 14 sec) 
Heartbeat CPU 0 instructions: 78000003 cycles: 46287861 heartbeat IPC: 1.27319 cumulative IPC: 1.35954 (Simulation time: 0 hr 34 min 45 sec) 
Heartbeat CPU 0 instructions: 79000001 cycles: 46970441 heartbeat IPC: 1.46503 cumulative IPC: 1.36293 (Simulation time: 0 hr 35 min 12 sec) 
Heartbeat CPU 0 instructions: 80000000 cycles: 47655106 heartbeat IPC: 1.46057 cumulative IPC: 1.36597 (Simulation time: 0 hr 35 min 40 sec) 
Heartbeat CPU 0 instructions: 81000000 cycles: 48340912 heartbeat IPC: 1.45814 cumulative IPC: 1.36876 (Simulation time: 0 hr 36 min 10 sec) 
Heartbeat CPU 0 instructions: 82000002 cycles: 49111943 heartbeat IPC: 1.29697 cumulative IPC: 1.3664 (Simulation time: 0 hr 36 min 37 sec) 
Heartbeat CPU 0 instructions: 83000001 cycles: 49923280 heartbeat IPC: 1.23253 cumulative IPC: 1.36192 (Simulation time: 0 hr 37 min 5 sec) 
Heartbeat CPU 0 instructions: 84000000 cycles: 50678558 heartbeat IPC: 1.32401 cumulative IPC: 1.36077 (Simulation time: 0 hr 37 min 33 sec) 
Heartbeat CPU 0 instructions: 85000001 cycles: 51361566 heartbeat IPC: 1.46411 cumulative IPC: 1.36352 (Simulation time: 0 hr 38 min 1 sec) 
Heartbeat CPU 0 instructions: 86000002 cycles: 52047655 heartbeat IPC: 1.45754 cumulative IPC: 1.36597 (Simulation time: 0 hr 38 min 29 sec) 
Heartbeat CPU 0 instructions: 87000000 cycles: 52734144 heartbeat IPC: 1.45668 cumulative IPC: 1.36827 (Simulation time: 0 hr 38 min 56 sec) 
Heartbeat CPU 0 instructions: 88000000 cycles: 53533078 heartbeat IPC: 1.25167 cumulative IPC: 1.36493 (Simulation time: 0 hr 39 min 27 sec) 
Heartbeat CPU 0 instructions: 89000000 cycles: 54347099 heartbeat IPC: 1.22847 cumulative IPC: 1.36105 (Simulation time: 0 hr 39 min 53 sec) 
Heartbeat CPU 0 instructions: 90000002 cycles: 55076272 heartbeat IPC: 1.37142 cumulative IPC: 1.36131 (Simulation time: 0 hr 40 min 20 sec) 
Heartbeat CPU 0 instructions: 91000002 cycles: 55760448 heartbeat IPC: 1.46161 cumulative IPC: 1.36359 (Simulation time: 0 hr 40 min 46 sec) 
Heartbeat CPU 0 instructions: 92000000 cycles: 56445458 heartbeat IPC: 1.45983 cumulative IPC: 1.36573 (Simulation time: 0 hr 41 min 14 sec) 
Heartbeat CPU 0 instructions: 93000001 cycles: 57131789 heartbeat IPC: 1.45702 cumulative IPC: 1.36773 (Simulation time: 0 hr 41 min 43 sec) 
Heartbeat CPU 0 instructions: 94000000 cycles: 57955920 heartbeat IPC: 1.2134 cumulative IPC: 1.36378 (Simulation time: 0 hr 42 min 12 sec) 
Heartbeat CPU 0 instructions: 95000003 cycles: 58768722 heartbeat IPC: 1.23032 cumulative IPC: 1.3605 (Simulation time: 0 hr 42 min 41 sec) 
Heartbeat CPU 0 instructions: 96000000 cycles: 59468772 heartbeat IPC: 1.42847 cumulative IPC: 1.36191 (Simulation time: 0 hr 43 min 10 sec) 
Heartbeat CPU 0 instructions: 97000001 cycles: 60152766 heartbeat IPC: 1.462 cumulative IPC: 1.3639 (Simulation time: 0 hr 43 min 36 sec) 
Heartbeat CPU 0 instructions: 98000000 cycles: 60840021 heartbeat IPC: 1.45506 cumulative IPC: 1.36568 (Simulation time: 0 hr 44 min 3 sec) 
Heartbeat CPU 0 instructions: 99000001 cycles: 61566390 heartbeat IPC: 1.37671 cumulative IPC: 1.3659 (Simulation time: 0 hr 44 min 31 sec) 
Heartbeat CPU 0 instructions: 100000000 cycles: 62379682 heartbeat IPC: 1.22957 cumulative IPC: 1.36288 (Simulation time: 0 hr 44 min 59 sec) 
Heartbeat CPU 0 instructions: 101000001 cycles: 63182495 heartbeat IPC: 1.24562 cumulative IPC: 1.36037 (Simulation time: 0 hr 45 min 27 sec) 
Heartbeat CPU 0 instructions: 102000003 cycles: 63865091 heartbeat IPC: 1.465 cumulative IPC: 1.36224 (Simulation time: 0 hr 45 min 55 sec) 
Heartbeat CPU 0 instructions: 103000003 cycles: 64548972 heartbeat IPC: 1.46224 cumulative IPC: 1.364 (Simulation time: 0 hr 46 min 22 sec) 
Heartbeat CPU 0 instructions: 104000000 cycles: 65232261 heartbeat IPC: 1.46351 cumulative IPC: 1.36572 (Simulation time: 0 hr 46 min 52 sec) 
Heartbeat CPU 0 instructions: 105000001 cycles: 65993582 heartbeat IPC: 1.31351 cumulative IPC: 1.36474 (Simulation time: 0 hr 47 min 21 sec) 
Heartbeat CPU 0 instructions: 106000002 cycles: 66801337 heartbeat IPC: 1.238 cumulative IPC: 1.36224 (Simulation time: 0 hr 47 min 49 sec) 
Heartbeat CPU 0 instructions: 107000003 cycles: 67572307 heartbeat IPC: 1.29707 cumulative IPC: 1.36105 (Simulation time: 0 hr 48 min 20 sec) 
Heartbeat CPU 0 instructions: 108000000 cycles: 68254196 heartbeat IPC: 1.46651 cumulative IPC: 1.36273 (Simulation time: 0 hr 48 min 49 sec) 
Heartbeat CPU 0 instructions: 109000001 cycles: 68939672 heartbeat IPC: 1.45884 cumulative IPC: 1.36426 (Simulation time: 0 hr 49 min 18 sec) 
Heartbeat CPU 0 instructions: 110000000 cycles: 69625658 heartbeat IPC: 1.45775 cumulative IPC: 1.36572 (Simulation time: 0 hr 49 min 47 sec) 
Heartbeat CPU 0 instructions: 111000002 cycles: 70416285 heartbeat IPC: 1.26482 cumulative IPC: 1.36393 (Simulation time: 0 hr 50 min 15 sec) 
Heartbeat CPU 0 instructions: 112000000 cycles: 71228954 heartbeat IPC: 1.23051 cumulative IPC: 1.36155 (Simulation time: 0 hr 50 min 44 sec) 
Heartbeat CPU 0 instructions: 113000001 cycles: 71966513 heartbeat IPC: 1.35583 cumulative IPC: 1.36146 (Simulation time: 0 hr 51 min 12 sec) 
Heartbeat CPU 0 instructions: 114000002 cycles: 72650351 heartbeat IPC: 1.46234 cumulative IPC: 1.36293 (Simulation time: 0 hr 51 min 40 sec) 
Heartbeat CPU 0 instructions: 115000003 cycles: 73333851 heartbeat IPC: 1.46306 cumulative IPC: 1.36437 (Simulation time: 0 hr 52 min 8 sec) 
Heartbeat CPU 0 instructions: 116000000 cycles: 74018670 heartbeat IPC: 1.46024 cumulative IPC: 1.36573 (Simulation time: 0 hr 52 min 36 sec) 
Heartbeat CPU 0 instructions: 117000000 cycles: 74836187 heartbeat IPC: 1.22322 cumulative IPC: 1.36336 (Simulation time: 0 hr 53 min 5 sec) 
Heartbeat CPU 0 instructions: 118000002 cycles: 75649138 heartbeat IPC: 1.23009 cumulative IPC: 1.36119 (Simulation time: 0 hr 53 min 34 sec) 
Heartbeat CPU 0 instructions: 119000000 cycles: 76358545 heartbeat IPC: 1.40963 cumulative IPC: 1.36186 (Simulation time: 0 hr 54 min 4 sec) 
Heartbeat CPU 0 instructions: 120000000 cycles: 77040606 heartbeat IPC: 1.46614 cumulative IPC: 1.36325 (Simulation time: 0 hr 54 min 36 sec) 
Heartbeat CPU 0 instructions: 121000000 cycles: 77724034 heartbeat IPC: 1.46321 cumulative IPC: 1.36456 (Simulation time: 0 hr 55 min 5 sec) 
Heartbeat CPU 0 instructions: 122000003 cycles: 78444231 heartbeat IPC: 1.38851 cumulative IPC: 1.36489 (Simulation time: 0 hr 55 min 34 sec) 
Heartbeat CPU 0 instructions: 123000000 cycles: 79257133 heartbeat IPC: 1.23016 cumulative IPC: 1.36285 (Simulation time: 0 hr 56 min 2 sec) 
Heartbeat CPU 0 instructions: 124000000 cycles: 80067318 heartbeat IPC: 1.23429 cumulative IPC: 1.36093 (Simulation time: 0 hr 56 min 31 sec) 
Heartbeat CPU 0 instructions: 125000001 cycles: 80749560 heartbeat IPC: 1.46576 cumulative IPC: 1.36223 (Simulation time: 0 hr 56 min 58 sec) 
Heartbeat CPU 0 instructions: 126000000 cycles: 81431424 heartbeat IPC: 1.46657 cumulative IPC: 1.36351 (Simulation time: 0 hr 57 min 27 sec) 
Heartbeat CPU 0 instructions: 127000003 cycles: 82116037 heartbeat IPC: 1.46068 cumulative IPC: 1.36468 (Simulation time: 0 hr 57 min 56 sec) 
Heartbeat CPU 0 instructions: 128000000 cycles: 82862847 heartbeat IPC: 1.33902 cumulative IPC: 1.36435 (Simulation time: 0 hr 58 min 25 sec) 
Heartbeat CPU 0 instructions: 129000002 cycles: 83676299 heartbeat IPC: 1.22933 cumulative IPC: 1.36245 (Simulation time: 0 hr 58 min 54 sec) 
Heartbeat CPU 0 instructions: 130000002 cycles: 84457323 heartbeat IPC: 1.28037 cumulative IPC: 1.36136 (Simulation time: 0 hr 59 min 22 sec) 
Heartbeat CPU 0 instructions: 131000003 cycles: 85139404 heartbeat IPC: 1.4661 cumulative IPC: 1.36257 (Simulation time: 0 hr 59 min 50 sec) 
Heartbeat CPU 0 instructions: 132000000 cycles: 85823855 heartbeat IPC: 1.46102 cumulative IPC: 1.36369 (Simulation time: 1 hr 0 min 19 sec) 
Heartbeat CPU 0 instructions: 133000003 cycles: 86508090 heartbeat IPC: 1.46149 cumulative IPC: 1.36479 (Simulation time: 1 hr 0 min 48 sec) 
Heartbeat CPU 0 instructions: 134000001 cycles: 87285828 heartbeat IPC: 1.28578 cumulative IPC: 1.36379 (Simulation time: 1 hr 1 min 17 sec) 
Heartbeat CPU 0 instructions: 135000001 cycles: 88097671 heartbeat IPC: 1.23177 cumulative IPC: 1.36207 (Simulation time: 1 hr 1 min 46 sec) 
Heartbeat CPU 0 instructions: 136000000 cycles: 88850052 heartbeat IPC: 1.32911 cumulative IPC: 1.36168 (Simulation time: 1 hr 2 min 13 sec) 
Heartbeat CPU 0 instructions: 137000003 cycles: 89532169 heartbeat IPC: 1.46603 cumulative IPC: 1.36279 (Simulation time: 1 hr 2 min 44 sec) 
Heartbeat CPU 0 instructions: 138000000 cycles: 90216242 heartbeat IPC: 1.46183 cumulative IPC: 1.36384 (Simulation time: 1 hr 3 min 12 sec) 
Heartbeat CPU 0 instructions: 139000002 cycles: 90901610 heartbeat IPC: 1.45907 cumulative IPC: 1.36484 (Simulation time: 1 hr 3 min 42 sec) 
Heartbeat CPU 0 instructions: 140000000 cycles: 91710613 heartbeat IPC: 1.23609 cumulative IPC: 1.36327 (Simulation time: 1 hr 4 min 13 sec) 
Heartbeat CPU 0 instructions: 141000003 cycles: 92518264 heartbeat IPC: 1.23816 cumulative IPC: 1.36175 (Simulation time: 1 hr 4 min 45 sec) 
Heartbeat CPU 0 instructions: 142000000 cycles: 93242947 heartbeat IPC: 1.37991 cumulative IPC: 1.36195 (Simulation time: 1 hr 5 min 13 sec) 
Heartbeat CPU 0 instructions: 143000001 cycles: 93927773 heartbeat IPC: 1.46023 cumulative IPC: 1.36294 (Simulation time: 1 hr 5 min 43 sec) 
Heartbeat CPU 0 instructions: 144000000 cycles: 94612042 heartbeat IPC: 1.46141 cumulative IPC: 1.36391 (Simulation time: 1 hr 6 min 11 sec) 
Heartbeat CPU 0 instructions: 145000001 cycles: 95324344 heartbeat IPC: 1.4039 cumulative IPC: 1.36432 (Simulation time: 1 hr 6 min 38 sec) 
Heartbeat CPU 0 instructions: 146000003 cycles: 96137384 heartbeat IPC: 1.22995 cumulative IPC: 1.36277 (Simulation time: 1 hr 7 min 8 sec) 
Heartbeat CPU 0 instructions: 147000001 cycles: 96948549 heartbeat IPC: 1.23279 cumulative IPC: 1.36129 (Simulation time: 1 hr 7 min 35 sec) 
Heartbeat CPU 0 instructions: 148000000 cycles: 97639397 heartbeat IPC: 1.44749 cumulative IPC: 1.36212 (Simulation time: 1 hr 8 min 2 sec) 
Heartbeat CPU 0 instructions: 149000002 cycles: 98321649 heartbeat IPC: 1.46574 cumulative IPC: 1.36309 (Simulation time: 1 hr 8 min 29 sec) 
Heartbeat CPU 0 instructions: 150000002 cycles: 99005907 heartbeat IPC: 1.46144 cumulative IPC: 1.36401 (Simulation time: 1 hr 8 min 56 sec) 
Finished CPU 0 instructions: 100000002 cycles: 73313181 cummulative IPC: 1.36401 (Simulation time: 1 hr 8 min 56 sec) 

ChampSim completed all CPUs

Region of Interest Statistics

CPU 0 cummulative IPC: 1.36401 instructions: 100000002 cycles: 73313181
LLC TOTAL     ACCESS:     631218  HIT:     297521  MISS:     333697
LLC LOAD      ACCESS:      36798  HIT:      23972  MISS:      12826
LLC RFO       ACCESS:     152049  HIT:      74591  MISS:      77458
LLC PREFETCH  ACCESS:     286673  HIT:      98082  MISS:     188591
LLC WRITEBACK ACCESS:     155698  HIT:     100876  MISS:      54822
OPTgen accesses: 17407
OPTgen hits: 8895
OPTgen hit rate: 51.1001


