
*** ChampSim Multicore Out-of-Order Simulator ***

Warmup Instructions: 50000000
Simulation Instructions: 100000000
Configuration: 2
Number of CPUs: 1
LLC sets: 2048
LLC ways: 16
Off-chip DRAM Channels: 1 Width: 64-bit Data Rate: 1600 MT/s

CPU 0 runs /datasets/cs240c-wi22-a00-public/data/Assignment2-gz/libquantum_1735B.trace.gz
CPU 0 L1D next line prefetcher
CPU 0 L2C IP-based stride prefetcher
Initialize Hawkeye state
Heartbeat CPU 0 instructions: 1000001 cycles: 333341 heartbeat IPC: 2.99993 cumulative IPC: 2.99993 (Simulation time: 0 hr 0 min 18 sec) 
Heartbeat CPU 0 instructions: 2000000 cycles: 666674 heartbeat IPC: 3 cumulative IPC: 2.99997 (Simulation time: 0 hr 0 min 37 sec) 
Heartbeat CPU 0 instructions: 3000000 cycles: 989045 heartbeat IPC: 3.10202 cumulative IPC: 3.03323 (Simulation time: 0 hr 0 min 58 sec) 
Heartbeat CPU 0 instructions: 4000000 cycles: 1290770 heartbeat IPC: 3.31428 cumulative IPC: 3.09893 (Simulation time: 0 hr 1 min 16 sec) 
Heartbeat CPU 0 instructions: 5000001 cycles: 1592495 heartbeat IPC: 3.31428 cumulative IPC: 3.13973 (Simulation time: 0 hr 1 min 34 sec) 
Heartbeat CPU 0 instructions: 6000001 cycles: 1894219 heartbeat IPC: 3.31429 cumulative IPC: 3.16753 (Simulation time: 0 hr 1 min 51 sec) 
Heartbeat CPU 0 instructions: 7000002 cycles: 2195942 heartbeat IPC: 3.3143 cumulative IPC: 3.1877 (Simulation time: 0 hr 2 min 13 sec) 
Heartbeat CPU 0 instructions: 8000000 cycles: 2501897 heartbeat IPC: 3.26845 cumulative IPC: 3.19757 (Simulation time: 0 hr 2 min 31 sec) 
Heartbeat CPU 0 instructions: 9000000 cycles: 2835230 heartbeat IPC: 3 cumulative IPC: 3.17435 (Simulation time: 0 hr 2 min 48 sec) 
Heartbeat CPU 0 instructions: 10000002 cycles: 3168564 heartbeat IPC: 3 cumulative IPC: 3.156 (Simulation time: 0 hr 3 min 5 sec) 
Heartbeat CPU 0 instructions: 11000001 cycles: 3501897 heartbeat IPC: 3 cumulative IPC: 3.14116 (Simulation time: 0 hr 3 min 23 sec) 
Heartbeat CPU 0 instructions: 12000000 cycles: 3835230 heartbeat IPC: 3 cumulative IPC: 3.12889 (Simulation time: 0 hr 3 min 40 sec) 
Heartbeat CPU 0 instructions: 13000000 cycles: 4159530 heartbeat IPC: 3.08356 cumulative IPC: 3.12535 (Simulation time: 0 hr 3 min 58 sec) 
Heartbeat CPU 0 instructions: 14000002 cycles: 4471102 heartbeat IPC: 3.20954 cumulative IPC: 3.13122 (Simulation time: 0 hr 4 min 16 sec) 
Heartbeat CPU 0 instructions: 15000000 cycles: 4782674 heartbeat IPC: 3.20952 cumulative IPC: 3.13632 (Simulation time: 0 hr 4 min 34 sec) 
Heartbeat CPU 0 instructions: 16000000 cycles: 5094247 heartbeat IPC: 3.20952 cumulative IPC: 3.1408 (Simulation time: 0 hr 4 min 51 sec) 
Heartbeat CPU 0 instructions: 17000000 cycles: 5405820 heartbeat IPC: 3.20952 cumulative IPC: 3.14476 (Simulation time: 0 hr 5 min 9 sec) 
Heartbeat CPU 0 instructions: 18000001 cycles: 5725379 heartbeat IPC: 3.12932 cumulative IPC: 3.1439 (Simulation time: 0 hr 5 min 28 sec) 
Heartbeat CPU 0 instructions: 19000000 cycles: 6058712 heartbeat IPC: 3 cumulative IPC: 3.13598 (Simulation time: 0 hr 5 min 45 sec) 
Heartbeat CPU 0 instructions: 20000000 cycles: 6392046 heartbeat IPC: 2.99999 cumulative IPC: 3.12889 (Simulation time: 0 hr 6 min 2 sec) 
Heartbeat CPU 0 instructions: 21000001 cycles: 6725379 heartbeat IPC: 3.00001 cumulative IPC: 3.1225 (Simulation time: 0 hr 6 min 18 sec) 
Heartbeat CPU 0 instructions: 22000000 cycles: 7058712 heartbeat IPC: 3 cumulative IPC: 3.11672 (Simulation time: 0 hr 6 min 35 sec) 
Heartbeat CPU 0 instructions: 23000001 cycles: 7377935 heartbeat IPC: 3.13261 cumulative IPC: 3.1174 (Simulation time: 0 hr 6 min 52 sec) 
Heartbeat CPU 0 instructions: 24000000 cycles: 7689508 heartbeat IPC: 3.20952 cumulative IPC: 3.12114 (Simulation time: 0 hr 7 min 8 sec) 
Heartbeat CPU 0 instructions: 25000002 cycles: 8001081 heartbeat IPC: 3.20953 cumulative IPC: 3.12458 (Simulation time: 0 hr 7 min 29 sec) 
Heartbeat CPU 0 instructions: 26000000 cycles: 8312653 heartbeat IPC: 3.20952 cumulative IPC: 3.12776 (Simulation time: 0 hr 7 min 47 sec) 
Heartbeat CPU 0 instructions: 27000003 cycles: 8624226 heartbeat IPC: 3.20953 cumulative IPC: 3.13072 (Simulation time: 0 hr 8 min 5 sec) 
Heartbeat CPU 0 instructions: 28000000 cycles: 8948866 heartbeat IPC: 3.08033 cumulative IPC: 3.12889 (Simulation time: 0 hr 8 min 22 sec) 
Heartbeat CPU 0 instructions: 29000000 cycles: 9282199 heartbeat IPC: 3 cumulative IPC: 3.12426 (Simulation time: 0 hr 8 min 41 sec) 
Heartbeat CPU 0 instructions: 30000001 cycles: 9615533 heartbeat IPC: 3 cumulative IPC: 3.11995 (Simulation time: 0 hr 9 min 0 sec) 
Heartbeat CPU 0 instructions: 31000000 cycles: 9948866 heartbeat IPC: 3 cumulative IPC: 3.11593 (Simulation time: 0 hr 9 min 17 sec) 
Heartbeat CPU 0 instructions: 32000000 cycles: 10282200 heartbeat IPC: 2.99999 cumulative IPC: 3.11217 (Simulation time: 0 hr 9 min 35 sec) 
Heartbeat CPU 0 instructions: 33000003 cycles: 10587669 heartbeat IPC: 3.27366 cumulative IPC: 3.11683 (Simulation time: 0 hr 9 min 55 sec) 
Heartbeat CPU 0 instructions: 34000002 cycles: 10889391 heartbeat IPC: 3.31431 cumulative IPC: 3.12231 (Simulation time: 0 hr 10 min 13 sec) 
Heartbeat CPU 0 instructions: 35000002 cycles: 11191114 heartbeat IPC: 3.3143 cumulative IPC: 3.12748 (Simulation time: 0 hr 10 min 34 sec) 
Heartbeat CPU 0 instructions: 36000000 cycles: 11492840 heartbeat IPC: 3.31426 cumulative IPC: 3.13239 (Simulation time: 0 hr 10 min 52 sec) 
Heartbeat CPU 0 instructions: 37000002 cycles: 11794564 heartbeat IPC: 3.31429 cumulative IPC: 3.13704 (Simulation time: 0 hr 11 min 14 sec) 
Heartbeat CPU 0 instructions: 38000003 cycles: 12117424 heartbeat IPC: 3.09732 cumulative IPC: 3.13598 (Simulation time: 0 hr 11 min 32 sec) 
Heartbeat CPU 0 instructions: 39000002 cycles: 12450757 heartbeat IPC: 3 cumulative IPC: 3.13234 (Simulation time: 0 hr 11 min 50 sec) 
Heartbeat CPU 0 instructions: 40000000 cycles: 12784090 heartbeat IPC: 3 cumulative IPC: 3.12889 (Simulation time: 0 hr 12 min 8 sec) 
Heartbeat CPU 0 instructions: 41000000 cycles: 13117423 heartbeat IPC: 3 cumulative IPC: 3.12561 (Simulation time: 0 hr 12 min 26 sec) 
Heartbeat CPU 0 instructions: 42000001 cycles: 13450757 heartbeat IPC: 3 cumulative IPC: 3.1225 (Simulation time: 0 hr 12 min 44 sec) 
Heartbeat CPU 0 instructions: 43000003 cycles: 13754059 heartbeat IPC: 3.29705 cumulative IPC: 3.12635 (Simulation time: 0 hr 13 min 2 sec) 
Heartbeat CPU 0 instructions: 44000000 cycles: 14055784 heartbeat IPC: 3.31427 cumulative IPC: 3.13038 (Simulation time: 0 hr 13 min 21 sec) 
Heartbeat CPU 0 instructions: 45000000 cycles: 14357508 heartbeat IPC: 3.31429 cumulative IPC: 3.13425 (Simulation time: 0 hr 13 min 40 sec) 
Heartbeat CPU 0 instructions: 46000002 cycles: 14659231 heartbeat IPC: 3.3143 cumulative IPC: 3.13795 (Simulation time: 0 hr 13 min 59 sec) 
Heartbeat CPU 0 instructions: 47000002 cycles: 14960955 heartbeat IPC: 3.31429 cumulative IPC: 3.14151 (Simulation time: 0 hr 14 min 20 sec) 
Heartbeat CPU 0 instructions: 48000000 cycles: 15285989 heartbeat IPC: 3.0766 cumulative IPC: 3.14013 (Simulation time: 0 hr 14 min 41 sec) 
Heartbeat CPU 0 instructions: 49000002 cycles: 15619323 heartbeat IPC: 3 cumulative IPC: 3.13714 (Simulation time: 0 hr 15 min 5 sec) 
Heartbeat CPU 0 instructions: 50000001 cycles: 15952656 heartbeat IPC: 3 cumulative IPC: 3.13427 (Simulation time: 0 hr 15 min 25 sec) 

Warmup complete CPU 0 instructions: 50000001 cycles: 15952656 (Simulation time: 0 hr 15 min 25 sec) 

Heartbeat CPU 0 instructions: 51000000 cycles: 17463964 heartbeat IPC: 0.661678 cumulative IPC: 0.661678 (Simulation time: 0 hr 15 min 56 sec) 
Heartbeat CPU 0 instructions: 52000000 cycles: 18983638 heartbeat IPC: 0.658036 cumulative IPC: 0.659852 (Simulation time: 0 hr 16 min 26 sec) 
Heartbeat CPU 0 instructions: 53000002 cycles: 20491205 heartbeat IPC: 0.663322 cumulative IPC: 0.661004 (Simulation time: 0 hr 16 min 57 sec) 
Heartbeat CPU 0 instructions: 54000001 cycles: 22002786 heartbeat IPC: 0.661558 cumulative IPC: 0.661143 (Simulation time: 0 hr 17 min 31 sec) 
Heartbeat CPU 0 instructions: 55000000 cycles: 23511510 heartbeat IPC: 0.662811 cumulative IPC: 0.661476 (Simulation time: 0 hr 18 min 2 sec) 
Heartbeat CPU 0 instructions: 56000000 cycles: 25000749 heartbeat IPC: 0.671484 cumulative IPC: 0.663123 (Simulation time: 0 hr 18 min 32 sec) 
Heartbeat CPU 0 instructions: 57000000 cycles: 26519300 heartbeat IPC: 0.658522 cumulative IPC: 0.662462 (Simulation time: 0 hr 19 min 2 sec) 
Heartbeat CPU 0 instructions: 58000002 cycles: 28038771 heartbeat IPC: 0.658125 cumulative IPC: 0.661917 (Simulation time: 0 hr 19 min 32 sec) 
Heartbeat CPU 0 instructions: 59000001 cycles: 29495979 heartbeat IPC: 0.686243 cumulative IPC: 0.664534 (Simulation time: 0 hr 20 min 3 sec) 
Heartbeat CPU 0 instructions: 60000000 cycles: 30941383 heartbeat IPC: 0.691847 cumulative IPC: 0.667168 (Simulation time: 0 hr 20 min 35 sec) 
Heartbeat CPU 0 instructions: 61000003 cycles: 32447128 heartbeat IPC: 0.664125 cumulative IPC: 0.66689 (Simulation time: 0 hr 21 min 4 sec) 
Heartbeat CPU 0 instructions: 62000002 cycles: 33966600 heartbeat IPC: 0.658123 cumulative IPC: 0.666151 (Simulation time: 0 hr 21 min 34 sec) 
Heartbeat CPU 0 instructions: 63000001 cycles: 35486144 heartbeat IPC: 0.658091 cumulative IPC: 0.665524 (Simulation time: 0 hr 22 min 4 sec) 
Heartbeat CPU 0 instructions: 64000000 cycles: 36997429 heartbeat IPC: 0.661688 cumulative IPC: 0.665248 (Simulation time: 0 hr 22 min 35 sec) 
Heartbeat CPU 0 instructions: 65000001 cycles: 38462758 heartbeat IPC: 0.682441 cumulative IPC: 0.666367 (Simulation time: 0 hr 23 min 6 sec) 
Heartbeat CPU 0 instructions: 66000000 cycles: 39936972 heartbeat IPC: 0.678327 cumulative IPC: 0.667103 (Simulation time: 0 hr 23 min 36 sec) 
Heartbeat CPU 0 instructions: 67000001 cycles: 41045898 heartbeat IPC: 0.901774 cumulative IPC: 0.677473 (Simulation time: 0 hr 24 min 5 sec) 
Heartbeat CPU 0 instructions: 68000000 cycles: 42538021 heartbeat IPC: 0.670185 cumulative IPC: 0.677064 (Simulation time: 0 hr 24 min 37 sec) 
Heartbeat CPU 0 instructions: 69000002 cycles: 44030168 heartbeat IPC: 0.670177 cumulative IPC: 0.676698 (Simulation time: 0 hr 25 min 8 sec) 
Heartbeat CPU 0 instructions: 70000001 cycles: 45514089 heartbeat IPC: 0.67389 cumulative IPC: 0.676557 (Simulation time: 0 hr 25 min 41 sec) 
Heartbeat CPU 0 instructions: 71000003 cycles: 47064815 heartbeat IPC: 0.644861 cumulative IPC: 0.674977 (Simulation time: 0 hr 26 min 15 sec) 
Heartbeat CPU 0 instructions: 72000000 cycles: 49310661 heartbeat IPC: 0.445265 cumulative IPC: 0.659512 (Simulation time: 0 hr 26 min 44 sec) 
Heartbeat CPU 0 instructions: 73000000 cycles: 51589292 heartbeat IPC: 0.43886 cumulative IPC: 0.645403 (Simulation time: 0 hr 27 min 11 sec) 
Heartbeat CPU 0 instructions: 74000000 cycles: 53846090 heartbeat IPC: 0.443106 cumulative IPC: 0.633355 (Simulation time: 0 hr 27 min 38 sec) 
Heartbeat CPU 0 instructions: 75000000 cycles: 56074215 heartbeat IPC: 0.448808 cumulative IPC: 0.623106 (Simulation time: 0 hr 28 min 5 sec) 
Heartbeat CPU 0 instructions: 76000000 cycles: 58383120 heartbeat IPC: 0.433106 cumulative IPC: 0.612767 (Simulation time: 0 hr 28 min 32 sec) 
Heartbeat CPU 0 instructions: 77000001 cycles: 60014706 heartbeat IPC: 0.612901 cumulative IPC: 0.612772 (Simulation time: 0 hr 29 min 1 sec) 
Heartbeat CPU 0 instructions: 78000000 cycles: 61518921 heartbeat IPC: 0.664798 cumulative IPC: 0.61449 (Simulation time: 0 hr 29 min 32 sec) 
Heartbeat CPU 0 instructions: 79000001 cycles: 62917147 heartbeat IPC: 0.715193 cumulative IPC: 0.617488 (Simulation time: 0 hr 30 min 7 sec) 
Heartbeat CPU 0 instructions: 80000000 cycles: 64381590 heartbeat IPC: 0.682853 cumulative IPC: 0.619464 (Simulation time: 0 hr 30 min 44 sec) 
Heartbeat CPU 0 instructions: 81000002 cycles: 65982077 heartbeat IPC: 0.624811 cumulative IPC: 0.619635 (Simulation time: 0 hr 31 min 13 sec) 
Heartbeat CPU 0 instructions: 82000003 cycles: 68237803 heartbeat IPC: 0.443317 cumulative IPC: 0.612029 (Simulation time: 0 hr 31 min 48 sec) 
Heartbeat CPU 0 instructions: 83000000 cycles: 70526941 heartbeat IPC: 0.436844 cumulative IPC: 0.60468 (Simulation time: 0 hr 32 min 14 sec) 
Heartbeat CPU 0 instructions: 84000000 cycles: 72776688 heartbeat IPC: 0.444494 cumulative IPC: 0.598338 (Simulation time: 0 hr 32 min 40 sec) 
Heartbeat CPU 0 instructions: 85000002 cycles: 74920107 heartbeat IPC: 0.466545 cumulative IPC: 0.593548 (Simulation time: 0 hr 33 min 8 sec) 
Heartbeat CPU 0 instructions: 86000002 cycles: 77163474 heartbeat IPC: 0.445759 cumulative IPC: 0.588131 (Simulation time: 0 hr 33 min 34 sec) 
Heartbeat CPU 0 instructions: 87000002 cycles: 78739421 heartbeat IPC: 0.634539 cumulative IPC: 0.589296 (Simulation time: 0 hr 34 min 8 sec) 
Heartbeat CPU 0 instructions: 88000000 cycles: 80312601 heartbeat IPC: 0.635654 cumulative IPC: 0.590429 (Simulation time: 0 hr 34 min 41 sec) 
Heartbeat CPU 0 instructions: 89000000 cycles: 81880249 heartbeat IPC: 0.637898 cumulative IPC: 0.591558 (Simulation time: 0 hr 35 min 12 sec) 
Heartbeat CPU 0 instructions: 90000000 cycles: 83800632 heartbeat IPC: 0.520729 cumulative IPC: 0.589553 (Simulation time: 0 hr 35 min 44 sec) 
Heartbeat CPU 0 instructions: 91000001 cycles: 86724866 heartbeat IPC: 0.34197 cumulative IPC: 0.579323 (Simulation time: 0 hr 36 min 13 sec) 
Heartbeat CPU 0 instructions: 92000000 cycles: 89619835 heartbeat IPC: 0.345426 cumulative IPC: 0.570132 (Simulation time: 0 hr 36 min 42 sec) 
Heartbeat CPU 0 instructions: 93000001 cycles: 92523958 heartbeat IPC: 0.344338 cumulative IPC: 0.561568 (Simulation time: 0 hr 37 min 15 sec) 
Heartbeat CPU 0 instructions: 94000001 cycles: 95238968 heartbeat IPC: 0.368323 cumulative IPC: 0.554951 (Simulation time: 0 hr 37 min 48 sec) 
Heartbeat CPU 0 instructions: 95000000 cycles: 96815654 heartbeat IPC: 0.634241 cumulative IPC: 0.556497 (Simulation time: 0 hr 38 min 20 sec) 
Heartbeat CPU 0 instructions: 96000000 cycles: 98362143 heartbeat IPC: 0.646626 cumulative IPC: 0.558188 (Simulation time: 0 hr 38 min 57 sec) 
Heartbeat CPU 0 instructions: 97000002 cycles: 99932167 heartbeat IPC: 0.636934 cumulative IPC: 0.55966 (Simulation time: 0 hr 39 min 34 sec) 
Heartbeat CPU 0 instructions: 98000001 cycles: 102120058 heartbeat IPC: 0.457061 cumulative IPC: 0.557055 (Simulation time: 0 hr 40 min 7 sec) 
Heartbeat CPU 0 instructions: 99000003 cycles: 105018256 heartbeat IPC: 0.345043 cumulative IPC: 0.550156 (Simulation time: 0 hr 40 min 36 sec) 
Heartbeat CPU 0 instructions: 100000000 cycles: 107876302 heartbeat IPC: 0.349888 cumulative IPC: 0.54393 (Simulation time: 0 hr 41 min 7 sec) 
Heartbeat CPU 0 instructions: 101000000 cycles: 110670033 heartbeat IPC: 0.357944 cumulative IPC: 0.538444 (Simulation time: 0 hr 41 min 34 sec) 
Heartbeat CPU 0 instructions: 102000000 cycles: 112659649 heartbeat IPC: 0.50261 cumulative IPC: 0.537707 (Simulation time: 0 hr 42 min 2 sec) 
Heartbeat CPU 0 instructions: 103000002 cycles: 113991234 heartbeat IPC: 0.750986 cumulative IPC: 0.540604 (Simulation time: 0 hr 42 min 31 sec) 
Heartbeat CPU 0 instructions: 104000000 cycles: 115462170 heartbeat IPC: 0.679838 cumulative IPC: 0.542662 (Simulation time: 0 hr 43 min 1 sec) 
Heartbeat CPU 0 instructions: 105000000 cycles: 116933051 heartbeat IPC: 0.679865 cumulative IPC: 0.54466 (Simulation time: 0 hr 43 min 30 sec) 
Heartbeat CPU 0 instructions: 106000003 cycles: 118396248 heartbeat IPC: 0.683437 cumulative IPC: 0.546642 (Simulation time: 0 hr 43 min 59 sec) 
Heartbeat CPU 0 instructions: 107000000 cycles: 120569016 heartbeat IPC: 0.460241 cumulative IPC: 0.544848 (Simulation time: 0 hr 44 min 25 sec) 
Heartbeat CPU 0 instructions: 108000000 cycles: 123138021 heartbeat IPC: 0.389256 cumulative IPC: 0.541119 (Simulation time: 0 hr 44 min 50 sec) 
Heartbeat CPU 0 instructions: 109000002 cycles: 125699640 heartbeat IPC: 0.390379 cumulative IPC: 0.5376 (Simulation time: 0 hr 45 min 15 sec) 
Heartbeat CPU 0 instructions: 110000002 cycles: 128269332 heartbeat IPC: 0.389152 cumulative IPC: 0.534204 (Simulation time: 0 hr 45 min 42 sec) 
Heartbeat CPU 0 instructions: 111000001 cycles: 130843000 heartbeat IPC: 0.38855 cumulative IPC: 0.530941 (Simulation time: 0 hr 46 min 7 sec) 
Heartbeat CPU 0 instructions: 112000000 cycles: 132784573 heartbeat IPC: 0.515046 cumulative IPC: 0.530677 (Simulation time: 0 hr 46 min 36 sec) 
Heartbeat CPU 0 instructions: 113000002 cycles: 134285400 heartbeat IPC: 0.666301 cumulative IPC: 0.532397 (Simulation time: 0 hr 47 min 7 sec) 
Heartbeat CPU 0 instructions: 114000001 cycles: 135746903 heartbeat IPC: 0.684226 cumulative IPC: 0.534249 (Simulation time: 0 hr 47 min 36 sec) 
Heartbeat CPU 0 instructions: 115000000 cycles: 137221321 heartbeat IPC: 0.678233 cumulative IPC: 0.536 (Simulation time: 0 hr 48 min 5 sec) 
Heartbeat CPU 0 instructions: 116000000 cycles: 138722185 heartbeat IPC: 0.666283 cumulative IPC: 0.537593 (Simulation time: 0 hr 48 min 36 sec) 
Heartbeat CPU 0 instructions: 117000000 cycles: 141330316 heartbeat IPC: 0.383416 cumulative IPC: 0.534385 (Simulation time: 0 hr 49 min 4 sec) 
Heartbeat CPU 0 instructions: 118000001 cycles: 144098931 heartbeat IPC: 0.361192 cumulative IPC: 0.530644 (Simulation time: 0 hr 49 min 30 sec) 
Heartbeat CPU 0 instructions: 119000001 cycles: 146846136 heartbeat IPC: 0.364006 cumulative IPC: 0.527146 (Simulation time: 0 hr 49 min 55 sec) 
Heartbeat CPU 0 instructions: 120000000 cycles: 149505267 heartbeat IPC: 0.376062 cumulative IPC: 0.524138 (Simulation time: 0 hr 50 min 18 sec) 
Heartbeat CPU 0 instructions: 121000000 cycles: 152183532 heartbeat IPC: 0.373376 cumulative IPC: 0.521174 (Simulation time: 0 hr 50 min 45 sec) 
Heartbeat CPU 0 instructions: 122000000 cycles: 153410445 heartbeat IPC: 0.815054 cumulative IPC: 0.523797 (Simulation time: 0 hr 51 min 12 sec) 
Heartbeat CPU 0 instructions: 123000001 cycles: 154873521 heartbeat IPC: 0.683492 cumulative IPC: 0.525479 (Simulation time: 0 hr 51 min 39 sec) 
Heartbeat CPU 0 instructions: 124000000 cycles: 156339604 heartbeat IPC: 0.682089 cumulative IPC: 0.527115 (Simulation time: 0 hr 52 min 9 sec) 
Heartbeat CPU 0 instructions: 125000002 cycles: 157798284 heartbeat IPC: 0.685553 cumulative IPC: 0.528744 (Simulation time: 0 hr 52 min 40 sec) 
Heartbeat CPU 0 instructions: 126000001 cycles: 159337982 heartbeat IPC: 0.649477 cumulative IPC: 0.53004 (Simulation time: 0 hr 53 min 8 sec) 
Heartbeat CPU 0 instructions: 127000000 cycles: 161598683 heartbeat IPC: 0.44234 cumulative IPC: 0.528679 (Simulation time: 0 hr 53 min 36 sec) 
Heartbeat CPU 0 instructions: 128000000 cycles: 163894193 heartbeat IPC: 0.435633 cumulative IPC: 0.527235 (Simulation time: 0 hr 54 min 1 sec) 
Heartbeat CPU 0 instructions: 129000002 cycles: 166161778 heartbeat IPC: 0.440999 cumulative IPC: 0.525933 (Simulation time: 0 hr 54 min 32 sec) 
Heartbeat CPU 0 instructions: 130000003 cycles: 168433444 heartbeat IPC: 0.440206 cumulative IPC: 0.524656 (Simulation time: 0 hr 55 min 0 sec) 
Heartbeat CPU 0 instructions: 131000001 cycles: 170740480 heartbeat IPC: 0.433456 cumulative IPC: 0.523297 (Simulation time: 0 hr 55 min 28 sec) 
Heartbeat CPU 0 instructions: 132000000 cycles: 172317553 heartbeat IPC: 0.634085 cumulative IPC: 0.524414 (Simulation time: 0 hr 55 min 56 sec) 
Heartbeat CPU 0 instructions: 133000001 cycles: 173776315 heartbeat IPC: 0.685513 cumulative IPC: 0.525903 (Simulation time: 0 hr 56 min 27 sec) 
Heartbeat CPU 0 instructions: 134000000 cycles: 175212340 heartbeat IPC: 0.696366 cumulative IPC: 0.52744 (Simulation time: 0 hr 56 min 57 sec) 
Heartbeat CPU 0 instructions: 135000001 cycles: 176681683 heartbeat IPC: 0.680577 cumulative IPC: 0.52884 (Simulation time: 0 hr 57 min 27 sec) 
Heartbeat CPU 0 instructions: 136000000 cycles: 178265669 heartbeat IPC: 0.631318 cumulative IPC: 0.52984 (Simulation time: 0 hr 57 min 56 sec) 
Heartbeat CPU 0 instructions: 137000001 cycles: 180550044 heartbeat IPC: 0.437757 cumulative IPC: 0.528562 (Simulation time: 0 hr 58 min 22 sec) 
Heartbeat CPU 0 instructions: 138000001 cycles: 182858767 heartbeat IPC: 0.43314 cumulative IPC: 0.527243 (Simulation time: 0 hr 58 min 48 sec) 
Heartbeat CPU 0 instructions: 139000000 cycles: 185131324 heartbeat IPC: 0.440033 cumulative IPC: 0.526071 (Simulation time: 0 hr 59 min 14 sec) 
Heartbeat CPU 0 instructions: 140000000 cycles: 187338040 heartbeat IPC: 0.453162 cumulative IPC: 0.525132 (Simulation time: 0 hr 59 min 39 sec) 
Heartbeat CPU 0 instructions: 141000000 cycles: 189513433 heartbeat IPC: 0.459687 cumulative IPC: 0.524312 (Simulation time: 1 hr 0 min 6 sec) 
Heartbeat CPU 0 instructions: 142000002 cycles: 190623544 heartbeat IPC: 0.900813 cumulative IPC: 0.526705 (Simulation time: 1 hr 0 min 38 sec) 
Heartbeat CPU 0 instructions: 143000001 cycles: 192051158 heartbeat IPC: 0.700469 cumulative IPC: 0.528114 (Simulation time: 1 hr 1 min 9 sec) 
Heartbeat CPU 0 instructions: 144000000 cycles: 193479482 heartbeat IPC: 0.700121 cumulative IPC: 0.529497 (Simulation time: 1 hr 1 min 39 sec) 
Heartbeat CPU 0 instructions: 145000003 cycles: 194900590 heartbeat IPC: 0.703678 cumulative IPC: 0.530881 (Simulation time: 1 hr 2 min 10 sec) 
Heartbeat CPU 0 instructions: 146000002 cycles: 196321273 heartbeat IPC: 0.703886 cumulative IPC: 0.532243 (Simulation time: 1 hr 2 min 39 sec) 
Heartbeat CPU 0 instructions: 147000001 cycles: 197745246 heartbeat IPC: 0.70226 cumulative IPC: 0.533575 (Simulation time: 1 hr 3 min 11 sec) 
Heartbeat CPU 0 instructions: 148000000 cycles: 199165195 heartbeat IPC: 0.70425 cumulative IPC: 0.534898 (Simulation time: 1 hr 3 min 42 sec) 
Heartbeat CPU 0 instructions: 149000001 cycles: 200588135 heartbeat IPC: 0.702771 cumulative IPC: 0.536192 (Simulation time: 1 hr 4 min 11 sec) 
Heartbeat CPU 0 instructions: 150000000 cycles: 202009794 heartbeat IPC: 0.703403 cumulative IPC: 0.537469 (Simulation time: 1 hr 4 min 39 sec) 
Finished CPU 0 instructions: 100000002 cycles: 186057139 cummulative IPC: 0.537469 (Simulation time: 1 hr 4 min 39 sec) 

ChampSim completed all CPUs

Region of Interest Statistics

CPU 0 cummulative IPC: 0.537469 instructions: 100000002 cycles: 186057139
LLC TOTAL     ACCESS:    3739906  HIT:     175785  MISS:    3564121
LLC LOAD      ACCESS:     680148  HIT:      34258  MISS:     645890
LLC RFO       ACCESS:         20  HIT:         20  MISS:          0
LLC PREFETCH  ACCESS:    2115991  HIT:      99409  MISS:    2016582
LLC WRITEBACK ACCESS:     943747  HIT:      42098  MISS:     901649
OPTgen accesses: 43947
OPTgen hits: 316
OPTgen hit rate: 0.719048


