
*** ChampSim Multicore Out-of-Order Simulator ***

Warmup Instructions: 50000000
Simulation Instructions: 100000000
Configuration: 2
Number of CPUs: 1
LLC sets: 2048
LLC ways: 16
Off-chip DRAM Channels: 1 Width: 64-bit Data Rate: 1600 MT/s

CPU 0 runs /datasets/cs240c-wi22-a00-public/data/Assignment2-gz/wrf_1650B.trace.gz
CPU 0 L1D next line prefetcher
CPU 0 L2C IP-based stride prefetcher
Initialize Hawkeye state
Heartbeat CPU 0 instructions: 1000000 cycles: 514299 heartbeat IPC: 1.94439 cumulative IPC: 1.94439 (Simulation time: 0 hr 0 min 32 sec) 
Heartbeat CPU 0 instructions: 2000000 cycles: 1028473 heartbeat IPC: 1.94487 cumulative IPC: 1.94463 (Simulation time: 0 hr 1 min 11 sec) 
Heartbeat CPU 0 instructions: 3000001 cycles: 1546184 heartbeat IPC: 1.93158 cumulative IPC: 1.94026 (Simulation time: 0 hr 1 min 53 sec) 
Heartbeat CPU 0 instructions: 4000000 cycles: 2063940 heartbeat IPC: 1.93141 cumulative IPC: 1.93804 (Simulation time: 0 hr 2 min 27 sec) 
Heartbeat CPU 0 instructions: 5000001 cycles: 2581687 heartbeat IPC: 1.93145 cumulative IPC: 1.93672 (Simulation time: 0 hr 3 min 2 sec) 
Heartbeat CPU 0 instructions: 6000003 cycles: 3099505 heartbeat IPC: 1.93118 cumulative IPC: 1.93579 (Simulation time: 0 hr 3 min 39 sec) 
Heartbeat CPU 0 instructions: 7000000 cycles: 3617214 heartbeat IPC: 1.93158 cumulative IPC: 1.93519 (Simulation time: 0 hr 4 min 11 sec) 
Heartbeat CPU 0 instructions: 8000000 cycles: 4135023 heartbeat IPC: 1.93121 cumulative IPC: 1.93469 (Simulation time: 0 hr 4 min 43 sec) 
Heartbeat CPU 0 instructions: 9000001 cycles: 4649336 heartbeat IPC: 1.94434 cumulative IPC: 1.93576 (Simulation time: 0 hr 5 min 20 sec) 
Heartbeat CPU 0 instructions: 10000001 cycles: 5163453 heartbeat IPC: 1.94508 cumulative IPC: 1.93669 (Simulation time: 0 hr 5 min 54 sec) 
Heartbeat CPU 0 instructions: 11000001 cycles: 5677587 heartbeat IPC: 1.94502 cumulative IPC: 1.93744 (Simulation time: 0 hr 6 min 26 sec) 
Heartbeat CPU 0 instructions: 12000000 cycles: 6193737 heartbeat IPC: 1.93742 cumulative IPC: 1.93744 (Simulation time: 0 hr 6 min 58 sec) 
Heartbeat CPU 0 instructions: 13000002 cycles: 6711432 heartbeat IPC: 1.93164 cumulative IPC: 1.93699 (Simulation time: 0 hr 7 min 31 sec) 
Heartbeat CPU 0 instructions: 14000002 cycles: 7229229 heartbeat IPC: 1.93126 cumulative IPC: 1.93658 (Simulation time: 0 hr 8 min 4 sec) 
Heartbeat CPU 0 instructions: 15000001 cycles: 7746913 heartbeat IPC: 1.93168 cumulative IPC: 1.93626 (Simulation time: 0 hr 8 min 39 sec) 
Heartbeat CPU 0 instructions: 16000000 cycles: 8264628 heartbeat IPC: 1.93156 cumulative IPC: 1.93596 (Simulation time: 0 hr 9 min 14 sec) 
Heartbeat CPU 0 instructions: 17000000 cycles: 8782346 heartbeat IPC: 1.93155 cumulative IPC: 1.9357 (Simulation time: 0 hr 9 min 49 sec) 
Heartbeat CPU 0 instructions: 18000001 cycles: 9298211 heartbeat IPC: 1.93849 cumulative IPC: 1.93586 (Simulation time: 0 hr 10 min 23 sec) 
Heartbeat CPU 0 instructions: 19000003 cycles: 9812269 heartbeat IPC: 1.94531 cumulative IPC: 1.93635 (Simulation time: 0 hr 10 min 55 sec) 
Heartbeat CPU 0 instructions: 20000000 cycles: 10326480 heartbeat IPC: 1.94472 cumulative IPC: 1.93677 (Simulation time: 0 hr 11 min 31 sec) 
Heartbeat CPU 0 instructions: 21000000 cycles: 10841175 heartbeat IPC: 1.9429 cumulative IPC: 1.93706 (Simulation time: 0 hr 12 min 3 sec) 
Heartbeat CPU 0 instructions: 22000000 cycles: 11358990 heartbeat IPC: 1.93119 cumulative IPC: 1.93679 (Simulation time: 0 hr 12 min 36 sec) 
Heartbeat CPU 0 instructions: 23000003 cycles: 11876757 heartbeat IPC: 1.93138 cumulative IPC: 1.93656 (Simulation time: 0 hr 13 min 9 sec) 
Heartbeat CPU 0 instructions: 24000000 cycles: 12394524 heartbeat IPC: 1.93136 cumulative IPC: 1.93634 (Simulation time: 0 hr 13 min 42 sec) 
Heartbeat CPU 0 instructions: 25000000 cycles: 12912214 heartbeat IPC: 1.93166 cumulative IPC: 1.93615 (Simulation time: 0 hr 14 min 13 sec) 
Heartbeat CPU 0 instructions: 26000001 cycles: 13429933 heartbeat IPC: 1.93155 cumulative IPC: 1.93597 (Simulation time: 0 hr 14 min 47 sec) 
Heartbeat CPU 0 instructions: 27000002 cycles: 13947348 heartbeat IPC: 1.93269 cumulative IPC: 1.93585 (Simulation time: 0 hr 15 min 25 sec) 
Heartbeat CPU 0 instructions: 28000000 cycles: 14461488 heartbeat IPC: 1.94499 cumulative IPC: 1.93618 (Simulation time: 0 hr 15 min 55 sec) 
Heartbeat CPU 0 instructions: 29000003 cycles: 14975725 heartbeat IPC: 1.94463 cumulative IPC: 1.93647 (Simulation time: 0 hr 16 min 30 sec) 
Heartbeat CPU 0 instructions: 30000002 cycles: 15489912 heartbeat IPC: 1.94482 cumulative IPC: 1.93674 (Simulation time: 0 hr 17 min 3 sec) 
Heartbeat CPU 0 instructions: 31000001 cycles: 16006549 heartbeat IPC: 1.93559 cumulative IPC: 1.93671 (Simulation time: 0 hr 17 min 41 sec) 
Heartbeat CPU 0 instructions: 32000000 cycles: 16524170 heartbeat IPC: 1.93191 cumulative IPC: 1.93656 (Simulation time: 0 hr 18 min 17 sec) 
Heartbeat CPU 0 instructions: 33000001 cycles: 17041842 heartbeat IPC: 1.93173 cumulative IPC: 1.93641 (Simulation time: 0 hr 18 min 52 sec) 
Heartbeat CPU 0 instructions: 34000002 cycles: 17559440 heartbeat IPC: 1.932 cumulative IPC: 1.93628 (Simulation time: 0 hr 19 min 27 sec) 
Heartbeat CPU 0 instructions: 35000001 cycles: 18077270 heartbeat IPC: 1.93113 cumulative IPC: 1.93613 (Simulation time: 0 hr 20 min 2 sec) 
Heartbeat CPU 0 instructions: 36000000 cycles: 18594991 heartbeat IPC: 1.93154 cumulative IPC: 1.93601 (Simulation time: 0 hr 20 min 41 sec) 
Heartbeat CPU 0 instructions: 37000003 cycles: 19110667 heartbeat IPC: 1.93921 cumulative IPC: 1.93609 (Simulation time: 0 hr 21 min 15 sec) 
Heartbeat CPU 0 instructions: 38000000 cycles: 19624818 heartbeat IPC: 1.94495 cumulative IPC: 1.93632 (Simulation time: 0 hr 21 min 52 sec) 
Heartbeat CPU 0 instructions: 39000001 cycles: 20138999 heartbeat IPC: 1.94484 cumulative IPC: 1.93654 (Simulation time: 0 hr 22 min 23 sec) 
Heartbeat CPU 0 instructions: 40000000 cycles: 20654040 heartbeat IPC: 1.94159 cumulative IPC: 1.93667 (Simulation time: 0 hr 22 min 57 sec) 
Heartbeat CPU 0 instructions: 41000000 cycles: 21171690 heartbeat IPC: 1.93181 cumulative IPC: 1.93655 (Simulation time: 0 hr 23 min 32 sec) 
Heartbeat CPU 0 instructions: 42000003 cycles: 21689691 heartbeat IPC: 1.9305 cumulative IPC: 1.9364 (Simulation time: 0 hr 24 min 7 sec) 
Heartbeat CPU 0 instructions: 43000001 cycles: 22207425 heartbeat IPC: 1.93149 cumulative IPC: 1.93629 (Simulation time: 0 hr 24 min 41 sec) 
Heartbeat CPU 0 instructions: 44000000 cycles: 22725175 heartbeat IPC: 1.93143 cumulative IPC: 1.93618 (Simulation time: 0 hr 25 min 15 sec) 
Heartbeat CPU 0 instructions: 45000000 cycles: 23242894 heartbeat IPC: 1.93155 cumulative IPC: 1.93608 (Simulation time: 0 hr 25 min 50 sec) 
Heartbeat CPU 0 instructions: 46000003 cycles: 23740893 heartbeat IPC: 2.00804 cumulative IPC: 1.93759 (Simulation time: 0 hr 26 min 26 sec) 
Heartbeat CPU 0 instructions: 47000002 cycles: 24391799 heartbeat IPC: 1.53632 cumulative IPC: 1.92688 (Simulation time: 0 hr 27 min 2 sec) 
Heartbeat CPU 0 instructions: 48000000 cycles: 25044131 heartbeat IPC: 1.53296 cumulative IPC: 1.91662 (Simulation time: 0 hr 27 min 39 sec) 
Heartbeat CPU 0 instructions: 49000001 cycles: 25692631 heartbeat IPC: 1.54202 cumulative IPC: 1.90716 (Simulation time: 0 hr 28 min 15 sec) 
Heartbeat CPU 0 instructions: 50000000 cycles: 26341266 heartbeat IPC: 1.5417 cumulative IPC: 1.89816 (Simulation time: 0 hr 28 min 52 sec) 

Warmup complete CPU 0 instructions: 50000001 cycles: 26341269 (Simulation time: 0 hr 28 min 52 sec) 

Heartbeat CPU 0 instructions: 51000000 cycles: 28203630 heartbeat IPC: 0.536952 cumulative IPC: 0.536952 (Simulation time: 0 hr 29 min 36 sec) 
Heartbeat CPU 0 instructions: 52000000 cycles: 29987076 heartbeat IPC: 0.560712 cumulative IPC: 0.548575 (Simulation time: 0 hr 30 min 14 sec) 
Heartbeat CPU 0 instructions: 53000002 cycles: 31024288 heartbeat IPC: 0.964125 cumulative IPC: 0.640613 (Simulation time: 0 hr 30 min 54 sec) 
Heartbeat CPU 0 instructions: 54000001 cycles: 31961915 heartbeat IPC: 1.06652 cumulative IPC: 0.711662 (Simulation time: 0 hr 31 min 30 sec) 
Heartbeat CPU 0 instructions: 55000000 cycles: 32866788 heartbeat IPC: 1.10513 cumulative IPC: 0.766222 (Simulation time: 0 hr 32 min 5 sec) 
Heartbeat CPU 0 instructions: 56000000 cycles: 33749387 heartbeat IPC: 1.13302 cumulative IPC: 0.809922 (Simulation time: 0 hr 32 min 43 sec) 
Heartbeat CPU 0 instructions: 57000001 cycles: 34635252 heartbeat IPC: 1.12884 cumulative IPC: 0.843985 (Simulation time: 0 hr 33 min 25 sec) 
Heartbeat CPU 0 instructions: 58000002 cycles: 35521125 heartbeat IPC: 1.12883 cumulative IPC: 0.871473 (Simulation time: 0 hr 34 min 8 sec) 
Heartbeat CPU 0 instructions: 59000003 cycles: 36409657 heartbeat IPC: 1.12545 cumulative IPC: 0.893887 (Simulation time: 0 hr 34 min 47 sec) 
Heartbeat CPU 0 instructions: 60000000 cycles: 37294841 heartbeat IPC: 1.12971 cumulative IPC: 0.912944 (Simulation time: 0 hr 35 min 23 sec) 
Heartbeat CPU 0 instructions: 61000003 cycles: 38588772 heartbeat IPC: 0.772841 cumulative IPC: 0.898142 (Simulation time: 0 hr 36 min 6 sec) 
Heartbeat CPU 0 instructions: 62000002 cycles: 40076409 heartbeat IPC: 0.672206 cumulative IPC: 0.873672 (Simulation time: 0 hr 36 min 43 sec) 
Heartbeat CPU 0 instructions: 63000002 cycles: 41562876 heartbeat IPC: 0.672736 cumulative IPC: 0.854049 (Simulation time: 0 hr 37 min 23 sec) 
Heartbeat CPU 0 instructions: 64000000 cycles: 43048693 heartbeat IPC: 0.673029 cumulative IPC: 0.837951 (Simulation time: 0 hr 38 min 0 sec) 
Heartbeat CPU 0 instructions: 65000001 cycles: 44536512 heartbeat IPC: 0.672125 cumulative IPC: 0.824391 (Simulation time: 0 hr 38 min 35 sec) 
Heartbeat CPU 0 instructions: 66000000 cycles: 46022246 heartbeat IPC: 0.673067 cumulative IPC: 0.812968 (Simulation time: 0 hr 39 min 16 sec) 
Heartbeat CPU 0 instructions: 67000001 cycles: 47511365 heartbeat IPC: 0.671539 cumulative IPC: 0.80302 (Simulation time: 0 hr 39 min 57 sec) 
Heartbeat CPU 0 instructions: 68000000 cycles: 48997186 heartbeat IPC: 0.673028 cumulative IPC: 0.794494 (Simulation time: 0 hr 40 min 36 sec) 
Heartbeat CPU 0 instructions: 69000002 cycles: 50482860 heartbeat IPC: 0.673097 cumulative IPC: 0.787024 (Simulation time: 0 hr 41 min 14 sec) 
Heartbeat CPU 0 instructions: 70000000 cycles: 51969360 heartbeat IPC: 0.67272 cumulative IPC: 0.780394 (Simulation time: 0 hr 41 min 54 sec) 
Heartbeat CPU 0 instructions: 71000001 cycles: 53456458 heartbeat IPC: 0.672451 cumulative IPC: 0.774474 (Simulation time: 0 hr 42 min 30 sec) 
Heartbeat CPU 0 instructions: 72000000 cycles: 54944124 heartbeat IPC: 0.672193 cumulative IPC: 0.769154 (Simulation time: 0 hr 43 min 12 sec) 
Heartbeat CPU 0 instructions: 73000000 cycles: 56430286 heartbeat IPC: 0.672874 cumulative IPC: 0.764398 (Simulation time: 0 hr 43 min 48 sec) 
Heartbeat CPU 0 instructions: 74000003 cycles: 57915985 heartbeat IPC: 0.673086 cumulative IPC: 0.760102 (Simulation time: 0 hr 44 min 24 sec) 
Heartbeat CPU 0 instructions: 75000003 cycles: 59402485 heartbeat IPC: 0.672721 cumulative IPC: 0.756173 (Simulation time: 0 hr 45 min 0 sec) 
Heartbeat CPU 0 instructions: 76000000 cycles: 60888713 heartbeat IPC: 0.672842 cumulative IPC: 0.752588 (Simulation time: 0 hr 45 min 39 sec) 
Heartbeat CPU 0 instructions: 77000002 cycles: 62377123 heartbeat IPC: 0.671859 cumulative IPC: 0.749254 (Simulation time: 0 hr 46 min 17 sec) 
Heartbeat CPU 0 instructions: 78000001 cycles: 63864477 heartbeat IPC: 0.672334 cumulative IPC: 0.746205 (Simulation time: 0 hr 46 min 58 sec) 
Heartbeat CPU 0 instructions: 79000001 cycles: 65352472 heartbeat IPC: 0.672045 cumulative IPC: 0.743376 (Simulation time: 0 hr 47 min 37 sec) 
Heartbeat CPU 0 instructions: 80000000 cycles: 66838027 heartbeat IPC: 0.673148 cumulative IPC: 0.7408 (Simulation time: 0 hr 48 min 11 sec) 
Heartbeat CPU 0 instructions: 81000000 cycles: 68325774 heartbeat IPC: 0.672157 cumulative IPC: 0.738368 (Simulation time: 0 hr 48 min 55 sec) 
Heartbeat CPU 0 instructions: 82000003 cycles: 69811160 heartbeat IPC: 0.673228 cumulative IPC: 0.736142 (Simulation time: 0 hr 49 min 33 sec) 
Heartbeat CPU 0 instructions: 83000003 cycles: 71300783 heartbeat IPC: 0.671311 cumulative IPC: 0.733994 (Simulation time: 0 hr 50 min 8 sec) 
Heartbeat CPU 0 instructions: 84000000 cycles: 72786722 heartbeat IPC: 0.672973 cumulative IPC: 0.732041 (Simulation time: 0 hr 50 min 48 sec) 
Heartbeat CPU 0 instructions: 85000002 cycles: 74273156 heartbeat IPC: 0.672752 cumulative IPC: 0.730203 (Simulation time: 0 hr 51 min 30 sec) 
Heartbeat CPU 0 instructions: 86000001 cycles: 75759054 heartbeat IPC: 0.672993 cumulative IPC: 0.728483 (Simulation time: 0 hr 52 min 11 sec) 
Heartbeat CPU 0 instructions: 87000001 cycles: 77245314 heartbeat IPC: 0.67283 cumulative IPC: 0.726858 (Simulation time: 0 hr 52 min 46 sec) 
Heartbeat CPU 0 instructions: 88000000 cycles: 78743958 heartbeat IPC: 0.667269 cumulative IPC: 0.725154 (Simulation time: 0 hr 53 min 29 sec) 
Heartbeat CPU 0 instructions: 89000003 cycles: 80228990 heartbeat IPC: 0.673388 cumulative IPC: 0.723727 (Simulation time: 0 hr 54 min 13 sec) 
Heartbeat CPU 0 instructions: 90000003 cycles: 81716698 heartbeat IPC: 0.672175 cumulative IPC: 0.722342 (Simulation time: 0 hr 55 min 1 sec) 
Heartbeat CPU 0 instructions: 91000001 cycles: 83226221 heartbeat IPC: 0.66246 cumulative IPC: 0.720753 (Simulation time: 0 hr 55 min 45 sec) 
Heartbeat CPU 0 instructions: 92000000 cycles: 84738166 heartbeat IPC: 0.661399 cumulative IPC: 0.719216 (Simulation time: 0 hr 56 min 22 sec) 
Heartbeat CPU 0 instructions: 93000001 cycles: 86255839 heartbeat IPC: 0.658904 cumulative IPC: 0.717689 (Simulation time: 0 hr 57 min 4 sec) 
Heartbeat CPU 0 instructions: 94000001 cycles: 87767858 heartbeat IPC: 0.661367 cumulative IPC: 0.716302 (Simulation time: 0 hr 57 min 42 sec) 
Heartbeat CPU 0 instructions: 95000001 cycles: 89278100 heartbeat IPC: 0.662146 cumulative IPC: 0.715003 (Simulation time: 0 hr 58 min 20 sec) 
Heartbeat CPU 0 instructions: 96000000 cycles: 90791950 heartbeat IPC: 0.660567 cumulative IPC: 0.713724 (Simulation time: 0 hr 59 min 2 sec) 
Heartbeat CPU 0 instructions: 97000000 cycles: 92308238 heartbeat IPC: 0.659505 cumulative IPC: 0.712478 (Simulation time: 0 hr 59 min 44 sec) 
Heartbeat CPU 0 instructions: 98000000 cycles: 93821467 heartbeat IPC: 0.660838 cumulative IPC: 0.71132 (Simulation time: 1 hr 0 min 29 sec) 
Heartbeat CPU 0 instructions: 99000000 cycles: 95333116 heartbeat IPC: 0.661529 cumulative IPC: 0.710229 (Simulation time: 1 hr 1 min 8 sec) 
Heartbeat CPU 0 instructions: 100000000 cycles: 96848114 heartbeat IPC: 0.660067 cumulative IPC: 0.709151 (Simulation time: 1 hr 1 min 53 sec) 
Heartbeat CPU 0 instructions: 101000002 cycles: 98365235 heartbeat IPC: 0.659145 cumulative IPC: 0.708098 (Simulation time: 1 hr 2 min 32 sec) 
Heartbeat CPU 0 instructions: 102000002 cycles: 99879324 heartbeat IPC: 0.660463 cumulative IPC: 0.707117 (Simulation time: 1 hr 3 min 16 sec) 
Heartbeat CPU 0 instructions: 103000002 cycles: 101393276 heartbeat IPC: 0.660523 cumulative IPC: 0.706177 (Simulation time: 1 hr 4 min 2 sec) 
Heartbeat CPU 0 instructions: 104000000 cycles: 102909569 heartbeat IPC: 0.659502 cumulative IPC: 0.705253 (Simulation time: 1 hr 4 min 45 sec) 
Heartbeat CPU 0 instructions: 105000001 cycles: 104424433 heartbeat IPC: 0.660126 cumulative IPC: 0.704377 (Simulation time: 1 hr 5 min 21 sec) 
Heartbeat CPU 0 instructions: 106000001 cycles: 105940792 heartbeat IPC: 0.659474 cumulative IPC: 0.703522 (Simulation time: 1 hr 5 min 58 sec) 
Heartbeat CPU 0 instructions: 107000000 cycles: 107452099 heartbeat IPC: 0.661678 cumulative IPC: 0.702742 (Simulation time: 1 hr 6 min 34 sec) 
Heartbeat CPU 0 instructions: 108000000 cycles: 108965952 heartbeat IPC: 0.660566 cumulative IPC: 0.701969 (Simulation time: 1 hr 7 min 19 sec) 
Heartbeat CPU 0 instructions: 109000000 cycles: 110475638 heartbeat IPC: 0.662389 cumulative IPC: 0.701259 (Simulation time: 1 hr 8 min 1 sec) 
Heartbeat CPU 0 instructions: 110000001 cycles: 111971751 heartbeat IPC: 0.668399 cumulative IPC: 0.700685 (Simulation time: 1 hr 8 min 40 sec) 
Heartbeat CPU 0 instructions: 111000003 cycles: 113462235 heartbeat IPC: 0.670924 cumulative IPC: 0.700176 (Simulation time: 1 hr 9 min 17 sec) 
Heartbeat CPU 0 instructions: 112000000 cycles: 114956905 heartbeat IPC: 0.669042 cumulative IPC: 0.699651 (Simulation time: 1 hr 9 min 53 sec) 
Heartbeat CPU 0 instructions: 113000003 cycles: 116469160 heartbeat IPC: 0.661266 cumulative IPC: 0.699007 (Simulation time: 1 hr 10 min 26 sec) 
Heartbeat CPU 0 instructions: 114000002 cycles: 117983804 heartbeat IPC: 0.660221 cumulative IPC: 0.698366 (Simulation time: 1 hr 10 min 56 sec) 
Heartbeat CPU 0 instructions: 115000002 cycles: 119497066 heartbeat IPC: 0.660824 cumulative IPC: 0.697756 (Simulation time: 1 hr 11 min 28 sec) 
Heartbeat CPU 0 instructions: 116000000 cycles: 121010635 heartbeat IPC: 0.660689 cumulative IPC: 0.697163 (Simulation time: 1 hr 12 min 0 sec) 
Heartbeat CPU 0 instructions: 117000000 cycles: 122522978 heartbeat IPC: 0.661226 cumulative IPC: 0.696598 (Simulation time: 1 hr 12 min 29 sec) 
Heartbeat CPU 0 instructions: 118000003 cycles: 124035165 heartbeat IPC: 0.661296 cumulative IPC: 0.696052 (Simulation time: 1 hr 12 min 58 sec) 
Heartbeat CPU 0 instructions: 119000001 cycles: 125548487 heartbeat IPC: 0.660797 cumulative IPC: 0.695514 (Simulation time: 1 hr 13 min 30 sec) 
Heartbeat CPU 0 instructions: 120000000 cycles: 127063072 heartbeat IPC: 0.660246 cumulative IPC: 0.694984 (Simulation time: 1 hr 13 min 58 sec) 
Heartbeat CPU 0 instructions: 121000001 cycles: 128575048 heartbeat IPC: 0.661387 cumulative IPC: 0.694487 (Simulation time: 1 hr 14 min 26 sec) 
Heartbeat CPU 0 instructions: 122000000 cycles: 130089339 heartbeat IPC: 0.660374 cumulative IPC: 0.693989 (Simulation time: 1 hr 14 min 53 sec) 
Heartbeat CPU 0 instructions: 123000000 cycles: 131602471 heartbeat IPC: 0.660881 cumulative IPC: 0.693513 (Simulation time: 1 hr 15 min 21 sec) 
Heartbeat CPU 0 instructions: 124000000 cycles: 133116504 heartbeat IPC: 0.660488 cumulative IPC: 0.693045 (Simulation time: 1 hr 15 min 48 sec) 
Heartbeat CPU 0 instructions: 125000002 cycles: 134627777 heartbeat IPC: 0.661695 cumulative IPC: 0.692607 (Simulation time: 1 hr 16 min 17 sec) 
Heartbeat CPU 0 instructions: 126000003 cycles: 136141211 heartbeat IPC: 0.66075 cumulative IPC: 0.692168 (Simulation time: 1 hr 16 min 43 sec) 
Heartbeat CPU 0 instructions: 127000002 cycles: 137653295 heartbeat IPC: 0.661338 cumulative IPC: 0.691749 (Simulation time: 1 hr 17 min 10 sec) 
Heartbeat CPU 0 instructions: 128000000 cycles: 139492548 heartbeat IPC: 0.543698 cumulative IPC: 0.689343 (Simulation time: 1 hr 17 min 37 sec) 
Heartbeat CPU 0 instructions: 129000001 cycles: 141914023 heartbeat IPC: 0.412972 cumulative IPC: 0.683552 (Simulation time: 1 hr 18 min 7 sec) 
Heartbeat CPU 0 instructions: 130000002 cycles: 143590781 heartbeat IPC: 0.59639 cumulative IPC: 0.682306 (Simulation time: 1 hr 18 min 32 sec) 
Heartbeat CPU 0 instructions: 131000002 cycles: 145209228 heartbeat IPC: 0.617876 cumulative IPC: 0.681428 (Simulation time: 1 hr 18 min 57 sec) 
Heartbeat CPU 0 instructions: 132000000 cycles: 148341890 heartbeat IPC: 0.319217 cumulative IPC: 0.672128 (Simulation time: 1 hr 19 min 28 sec) 
Heartbeat CPU 0 instructions: 133000000 cycles: 151649081 heartbeat IPC: 0.302371 cumulative IPC: 0.662369 (Simulation time: 1 hr 20 min 3 sec) 
Heartbeat CPU 0 instructions: 134000000 cycles: 155067929 heartbeat IPC: 0.292496 cumulative IPC: 0.652545 (Simulation time: 1 hr 20 min 34 sec) 
Heartbeat CPU 0 instructions: 135000001 cycles: 158413801 heartbeat IPC: 0.298876 cumulative IPC: 0.643586 (Simulation time: 1 hr 21 min 6 sec) 
Heartbeat CPU 0 instructions: 136000000 cycles: 159337657 heartbeat IPC: 1.08242 cumulative IPC: 0.646634 (Simulation time: 1 hr 21 min 26 sec) 
Heartbeat CPU 0 instructions: 137000001 cycles: 160306966 heartbeat IPC: 1.03166 cumulative IPC: 0.64942 (Simulation time: 1 hr 21 min 45 sec) 
Heartbeat CPU 0 instructions: 138000000 cycles: 161268551 heartbeat IPC: 1.03995 cumulative IPC: 0.652203 (Simulation time: 1 hr 22 min 4 sec) 
Heartbeat CPU 0 instructions: 139000000 cycles: 162232164 heartbeat IPC: 1.03776 cumulative IPC: 0.654937 (Simulation time: 1 hr 22 min 24 sec) 
Heartbeat CPU 0 instructions: 140000000 cycles: 163185270 heartbeat IPC: 1.0492 cumulative IPC: 0.657683 (Simulation time: 1 hr 22 min 43 sec) 
Heartbeat CPU 0 instructions: 141000002 cycles: 164129289 heartbeat IPC: 1.0593 cumulative IPC: 0.660435 (Simulation time: 1 hr 23 min 0 sec) 
Heartbeat CPU 0 instructions: 142000001 cycles: 165070861 heartbeat IPC: 1.06205 cumulative IPC: 0.663161 (Simulation time: 1 hr 23 min 17 sec) 
Heartbeat CPU 0 instructions: 143000000 cycles: 165982305 heartbeat IPC: 1.09716 cumulative IPC: 0.665993 (Simulation time: 1 hr 23 min 34 sec) 
Heartbeat CPU 0 instructions: 144000000 cycles: 166919090 heartbeat IPC: 1.06748 cumulative IPC: 0.668669 (Simulation time: 1 hr 23 min 50 sec) 
Heartbeat CPU 0 instructions: 145000003 cycles: 167768504 heartbeat IPC: 1.17729 cumulative IPC: 0.671724 (Simulation time: 1 hr 24 min 5 sec) 
Heartbeat CPU 0 instructions: 146000000 cycles: 168620964 heartbeat IPC: 1.17307 cumulative IPC: 0.674727 (Simulation time: 1 hr 24 min 18 sec) 
Heartbeat CPU 0 instructions: 147000002 cycles: 169474249 heartbeat IPC: 1.17194 cumulative IPC: 0.677691 (Simulation time: 1 hr 24 min 31 sec) 
Heartbeat CPU 0 instructions: 148000000 cycles: 170322947 heartbeat IPC: 1.17827 cumulative IPC: 0.680642 (Simulation time: 1 hr 24 min 44 sec) 
Heartbeat CPU 0 instructions: 149000001 cycles: 171177819 heartbeat IPC: 1.16977 cumulative IPC: 0.683529 (Simulation time: 1 hr 24 min 57 sec) 
Heartbeat CPU 0 instructions: 150000001 cycles: 172038708 heartbeat IPC: 1.16159 cumulative IPC: 0.686354 (Simulation time: 1 hr 25 min 11 sec) 
Finished CPU 0 instructions: 100000000 cycles: 145697439 cummulative IPC: 0.686354 (Simulation time: 1 hr 25 min 11 sec) 

ChampSim completed all CPUs

Region of Interest Statistics

CPU 0 cummulative IPC: 0.686354 instructions: 100000000 cycles: 145697439
LLC TOTAL     ACCESS:    2156550  HIT:     242981  MISS:    1913569
LLC LOAD      ACCESS:     100850  HIT:      15415  MISS:      85435
LLC RFO       ACCESS:     516177  HIT:       2750  MISS:     513427
LLC PREFETCH  ACCESS:     927772  HIT:     105436  MISS:     822336
LLC WRITEBACK ACCESS:     611751  HIT:     119380  MISS:     492371
OPTgen accesses: 45618
OPTgen hits: 5548
OPTgen hit rate: 12.1619


