
*** ChampSim Multicore Out-of-Order Simulator ***

Warmup Instructions: 50000000
Simulation Instructions: 100000000
Configuration: 2
Number of CPUs: 1
LLC sets: 2048
LLC ways: 16
Off-chip DRAM Channels: 1 Width: 64-bit Data Rate: 1600 MT/s

CPU 0 runs /datasets/cs240c-wi22-a00-public/data/Assignment2-gz/astar_313B.trace.gz
CPU 0 L1D next line prefetcher
CPU 0 L2C IP-based stride prefetcher
Initialize Hawkeye state
Heartbeat CPU 0 instructions: 1000001 cycles: 675706 heartbeat IPC: 1.47994 cumulative IPC: 1.47994 (Simulation time: 0 hr 0 min 59 sec) 
Heartbeat CPU 0 instructions: 2000003 cycles: 1263130 heartbeat IPC: 1.70235 cumulative IPC: 1.58337 (Simulation time: 0 hr 2 min 19 sec) 
Heartbeat CPU 0 instructions: 3000003 cycles: 1936673 heartbeat IPC: 1.48469 cumulative IPC: 1.54905 (Simulation time: 0 hr 3 min 38 sec) 
Heartbeat CPU 0 instructions: 4000000 cycles: 2609858 heartbeat IPC: 1.48547 cumulative IPC: 1.53265 (Simulation time: 0 hr 4 min 56 sec) 
Heartbeat CPU 0 instructions: 5000002 cycles: 3284678 heartbeat IPC: 1.48188 cumulative IPC: 1.52222 (Simulation time: 0 hr 6 min 15 sec) 
Heartbeat CPU 0 instructions: 6000001 cycles: 3872051 heartbeat IPC: 1.70249 cumulative IPC: 1.54957 (Simulation time: 0 hr 7 min 32 sec) 
Heartbeat CPU 0 instructions: 7000001 cycles: 4441277 heartbeat IPC: 1.75677 cumulative IPC: 1.57612 (Simulation time: 0 hr 8 min 39 sec) 
Heartbeat CPU 0 instructions: 8000000 cycles: 4993176 heartbeat IPC: 1.81192 cumulative IPC: 1.60219 (Simulation time: 0 hr 9 min 53 sec) 
Heartbeat CPU 0 instructions: 9000001 cycles: 5554758 heartbeat IPC: 1.78069 cumulative IPC: 1.62023 (Simulation time: 0 hr 11 min 3 sec) 
Heartbeat CPU 0 instructions: 10000002 cycles: 6229930 heartbeat IPC: 1.48111 cumulative IPC: 1.60515 (Simulation time: 0 hr 12 min 19 sec) 
Heartbeat CPU 0 instructions: 11000000 cycles: 6905065 heartbeat IPC: 1.48118 cumulative IPC: 1.59303 (Simulation time: 0 hr 13 min 34 sec) 
Heartbeat CPU 0 instructions: 12000000 cycles: 7573924 heartbeat IPC: 1.49508 cumulative IPC: 1.58438 (Simulation time: 0 hr 14 min 51 sec) 
Heartbeat CPU 0 instructions: 13000003 cycles: 8166854 heartbeat IPC: 1.68654 cumulative IPC: 1.5918 (Simulation time: 0 hr 16 min 8 sec) 
Heartbeat CPU 0 instructions: 14000002 cycles: 8839563 heartbeat IPC: 1.48653 cumulative IPC: 1.58379 (Simulation time: 0 hr 17 min 31 sec) 
Heartbeat CPU 0 instructions: 15000000 cycles: 9513970 heartbeat IPC: 1.48278 cumulative IPC: 1.57663 (Simulation time: 0 hr 18 min 47 sec) 
Heartbeat CPU 0 instructions: 16000000 cycles: 10187975 heartbeat IPC: 1.48367 cumulative IPC: 1.57048 (Simulation time: 0 hr 20 min 7 sec) 
Heartbeat CPU 0 instructions: 17000001 cycles: 10861540 heartbeat IPC: 1.48464 cumulative IPC: 1.56516 (Simulation time: 0 hr 21 min 25 sec) 
Heartbeat CPU 0 instructions: 18000000 cycles: 11447022 heartbeat IPC: 1.70799 cumulative IPC: 1.57246 (Simulation time: 0 hr 22 min 40 sec) 
Heartbeat CPU 0 instructions: 19000000 cycles: 12121650 heartbeat IPC: 1.4823 cumulative IPC: 1.56744 (Simulation time: 0 hr 23 min 56 sec) 
Heartbeat CPU 0 instructions: 20000000 cycles: 12797319 heartbeat IPC: 1.48001 cumulative IPC: 1.56283 (Simulation time: 0 hr 25 min 9 sec) 
Heartbeat CPU 0 instructions: 21000001 cycles: 13425095 heartbeat IPC: 1.59293 cumulative IPC: 1.56423 (Simulation time: 0 hr 26 min 27 sec) 
Heartbeat CPU 0 instructions: 22000001 cycles: 14060178 heartbeat IPC: 1.5746 cumulative IPC: 1.5647 (Simulation time: 0 hr 27 min 41 sec) 
Heartbeat CPU 0 instructions: 23000001 cycles: 14732370 heartbeat IPC: 1.48767 cumulative IPC: 1.56119 (Simulation time: 0 hr 28 min 52 sec) 
Heartbeat CPU 0 instructions: 24000000 cycles: 15386844 heartbeat IPC: 1.52794 cumulative IPC: 1.55977 (Simulation time: 0 hr 30 min 3 sec) 
Heartbeat CPU 0 instructions: 25000001 cycles: 15991749 heartbeat IPC: 1.65315 cumulative IPC: 1.56331 (Simulation time: 0 hr 31 min 16 sec) 
Heartbeat CPU 0 instructions: 26000002 cycles: 16667846 heartbeat IPC: 1.47908 cumulative IPC: 1.55989 (Simulation time: 0 hr 32 min 29 sec) 
Heartbeat CPU 0 instructions: 27000002 cycles: 17258442 heartbeat IPC: 1.6932 cumulative IPC: 1.56445 (Simulation time: 0 hr 33 min 40 sec) 
Heartbeat CPU 0 instructions: 28000000 cycles: 17932268 heartbeat IPC: 1.48406 cumulative IPC: 1.56143 (Simulation time: 0 hr 34 min 56 sec) 
Heartbeat CPU 0 instructions: 29000001 cycles: 18520563 heartbeat IPC: 1.69983 cumulative IPC: 1.56583 (Simulation time: 0 hr 36 min 6 sec) 
Heartbeat CPU 0 instructions: 30000002 cycles: 19194156 heartbeat IPC: 1.48458 cumulative IPC: 1.56298 (Simulation time: 0 hr 37 min 20 sec) 
Heartbeat CPU 0 instructions: 31000002 cycles: 19869273 heartbeat IPC: 1.48122 cumulative IPC: 1.5602 (Simulation time: 0 hr 38 min 33 sec) 
Heartbeat CPU 0 instructions: 32000000 cycles: 20544203 heartbeat IPC: 1.48163 cumulative IPC: 1.55762 (Simulation time: 0 hr 39 min 44 sec) 
Heartbeat CPU 0 instructions: 33000003 cycles: 21219175 heartbeat IPC: 1.48155 cumulative IPC: 1.5552 (Simulation time: 0 hr 40 min 55 sec) 
Heartbeat CPU 0 instructions: 34000000 cycles: 21805342 heartbeat IPC: 1.70599 cumulative IPC: 1.55925 (Simulation time: 0 hr 42 min 5 sec) 
Heartbeat CPU 0 instructions: 35000000 cycles: 22478944 heartbeat IPC: 1.48456 cumulative IPC: 1.55701 (Simulation time: 0 hr 43 min 18 sec) 
Heartbeat CPU 0 instructions: 36000000 cycles: 23152324 heartbeat IPC: 1.48505 cumulative IPC: 1.55492 (Simulation time: 0 hr 44 min 37 sec) 
Heartbeat CPU 0 instructions: 37000002 cycles: 23740063 heartbeat IPC: 1.70144 cumulative IPC: 1.55855 (Simulation time: 0 hr 45 min 52 sec) 
Heartbeat CPU 0 instructions: 38000000 cycles: 24411538 heartbeat IPC: 1.48926 cumulative IPC: 1.55664 (Simulation time: 0 hr 47 min 5 sec) 
Heartbeat CPU 0 instructions: 39000003 cycles: 24999482 heartbeat IPC: 1.70085 cumulative IPC: 1.56003 (Simulation time: 0 hr 48 min 17 sec) 
Heartbeat CPU 0 instructions: 40000000 cycles: 25588010 heartbeat IPC: 1.69915 cumulative IPC: 1.56323 (Simulation time: 0 hr 49 min 28 sec) 
Heartbeat CPU 0 instructions: 41000001 cycles: 26262254 heartbeat IPC: 1.48314 cumulative IPC: 1.56118 (Simulation time: 0 hr 50 min 42 sec) 
Heartbeat CPU 0 instructions: 42000003 cycles: 26939909 heartbeat IPC: 1.47568 cumulative IPC: 1.55903 (Simulation time: 0 hr 52 min 0 sec) 
Heartbeat CPU 0 instructions: 43000003 cycles: 27533267 heartbeat IPC: 1.68532 cumulative IPC: 1.56175 (Simulation time: 0 hr 53 min 6 sec) 
Heartbeat CPU 0 instructions: 44000000 cycles: 28201293 heartbeat IPC: 1.49694 cumulative IPC: 1.56021 (Simulation time: 0 hr 54 min 22 sec) 
Heartbeat CPU 0 instructions: 45000002 cycles: 28873829 heartbeat IPC: 1.48691 cumulative IPC: 1.5585 (Simulation time: 0 hr 55 min 37 sec) 
Heartbeat CPU 0 instructions: 46000002 cycles: 29547002 heartbeat IPC: 1.4855 cumulative IPC: 1.55684 (Simulation time: 0 hr 56 min 54 sec) 
Heartbeat CPU 0 instructions: 47000002 cycles: 30219017 heartbeat IPC: 1.48806 cumulative IPC: 1.55531 (Simulation time: 0 hr 58 min 5 sec) 
Heartbeat CPU 0 instructions: 48000000 cycles: 30808080 heartbeat IPC: 1.69761 cumulative IPC: 1.55803 (Simulation time: 0 hr 59 min 12 sec) 
Heartbeat CPU 0 instructions: 49000000 cycles: 31481371 heartbeat IPC: 1.48524 cumulative IPC: 1.55648 (Simulation time: 1 hr 0 min 22 sec) 
Heartbeat CPU 0 instructions: 50000000 cycles: 32154758 heartbeat IPC: 1.48503 cumulative IPC: 1.55498 (Simulation time: 1 hr 1 min 31 sec) 

Warmup complete CPU 0 instructions: 50000001 cycles: 32154759 (Simulation time: 1 hr 1 min 31 sec) 

Heartbeat CPU 0 instructions: 51000000 cycles: 38952991 heartbeat IPC: 0.147097 cumulative IPC: 0.147097 (Simulation time: 1 hr 2 min 54 sec) 
Heartbeat CPU 0 instructions: 52000000 cycles: 47587928 heartbeat IPC: 0.115809 cumulative IPC: 0.129591 (Simulation time: 1 hr 4 min 27 sec) 
Heartbeat CPU 0 instructions: 53000000 cycles: 54563089 heartbeat IPC: 0.143366 cumulative IPC: 0.133879 (Simulation time: 1 hr 5 min 45 sec) 
Heartbeat CPU 0 instructions: 54000000 cycles: 62582371 heartbeat IPC: 0.124699 cumulative IPC: 0.13146 (Simulation time: 1 hr 6 min 59 sec) 
Heartbeat CPU 0 instructions: 55000001 cycles: 70802374 heartbeat IPC: 0.121655 cumulative IPC: 0.129374 (Simulation time: 1 hr 8 min 15 sec) 
Heartbeat CPU 0 instructions: 56000000 cycles: 80639540 heartbeat IPC: 0.101655 cumulative IPC: 0.12375 (Simulation time: 1 hr 9 min 37 sec) 
Heartbeat CPU 0 instructions: 57000000 cycles: 86910988 heartbeat IPC: 0.159453 cumulative IPC: 0.127839 (Simulation time: 1 hr 10 min 39 sec) 
Heartbeat CPU 0 instructions: 58000001 cycles: 93480119 heartbeat IPC: 0.152227 cumulative IPC: 0.130452 (Simulation time: 1 hr 11 min 41 sec) 
Heartbeat CPU 0 instructions: 59000002 cycles: 101831684 heartbeat IPC: 0.119738 cumulative IPC: 0.129168 (Simulation time: 1 hr 12 min 43 sec) 
Heartbeat CPU 0 instructions: 60000000 cycles: 109466344 heartbeat IPC: 0.130981 cumulative IPC: 0.129347 (Simulation time: 1 hr 13 min 47 sec) 
Heartbeat CPU 0 instructions: 61000001 cycles: 116277733 heartbeat IPC: 0.146813 cumulative IPC: 0.130761 (Simulation time: 1 hr 14 min 37 sec) 
Heartbeat CPU 0 instructions: 62000001 cycles: 123333021 heartbeat IPC: 0.141738 cumulative IPC: 0.13161 (Simulation time: 1 hr 15 min 28 sec) 
Heartbeat CPU 0 instructions: 63000000 cycles: 130560438 heartbeat IPC: 0.138362 cumulative IPC: 0.132106 (Simulation time: 1 hr 16 min 22 sec) 
Heartbeat CPU 0 instructions: 64000000 cycles: 139802714 heartbeat IPC: 0.108198 cumulative IPC: 0.130054 (Simulation time: 1 hr 17 min 18 sec) 
Heartbeat CPU 0 instructions: 65000000 cycles: 146500955 heartbeat IPC: 0.149293 cumulative IPC: 0.131181 (Simulation time: 1 hr 18 min 5 sec) 
Heartbeat CPU 0 instructions: 66000001 cycles: 153381466 heartbeat IPC: 0.145338 cumulative IPC: 0.131984 (Simulation time: 1 hr 18 min 49 sec) 
Heartbeat CPU 0 instructions: 67000000 cycles: 160741146 heartbeat IPC: 0.135875 cumulative IPC: 0.132207 (Simulation time: 1 hr 19 min 31 sec) 
Heartbeat CPU 0 instructions: 68000000 cycles: 168261337 heartbeat IPC: 0.132975 cumulative IPC: 0.132249 (Simulation time: 1 hr 20 min 10 sec) 
Heartbeat CPU 0 instructions: 69000000 cycles: 180322211 heartbeat IPC: 0.0829127 cumulative IPC: 0.128233 (Simulation time: 1 hr 20 min 58 sec) 
Heartbeat CPU 0 instructions: 70000000 cycles: 187306296 heartbeat IPC: 0.143183 cumulative IPC: 0.128906 (Simulation time: 1 hr 21 min 31 sec) 
Heartbeat CPU 0 instructions: 71000002 cycles: 194605863 heartbeat IPC: 0.136995 cumulative IPC: 0.12927 (Simulation time: 1 hr 22 min 6 sec) 
Heartbeat CPU 0 instructions: 72000000 cycles: 202158571 heartbeat IPC: 0.132403 cumulative IPC: 0.129409 (Simulation time: 1 hr 22 min 40 sec) 
Heartbeat CPU 0 instructions: 73000003 cycles: 209587903 heartbeat IPC: 0.134602 cumulative IPC: 0.129626 (Simulation time: 1 hr 23 min 14 sec) 
Heartbeat CPU 0 instructions: 74000001 cycles: 218810742 heartbeat IPC: 0.108426 cumulative IPC: 0.128579 (Simulation time: 1 hr 23 min 45 sec) 
Heartbeat CPU 0 instructions: 75000000 cycles: 225661091 heartbeat IPC: 0.145978 cumulative IPC: 0.129195 (Simulation time: 1 hr 24 min 11 sec) 
Heartbeat CPU 0 instructions: 76000000 cycles: 231738780 heartbeat IPC: 0.164536 cumulative IPC: 0.130271 (Simulation time: 1 hr 24 min 31 sec) 
Heartbeat CPU 0 instructions: 77000000 cycles: 238248043 heartbeat IPC: 0.153627 cumulative IPC: 0.131009 (Simulation time: 1 hr 24 min 54 sec) 
Heartbeat CPU 0 instructions: 78000001 cycles: 244617870 heartbeat IPC: 0.15699 cumulative IPC: 0.131788 (Simulation time: 1 hr 25 min 17 sec) 
Heartbeat CPU 0 instructions: 79000000 cycles: 253403060 heartbeat IPC: 0.113828 cumulative IPC: 0.131074 (Simulation time: 1 hr 25 min 42 sec) 
Heartbeat CPU 0 instructions: 80000000 cycles: 259211688 heartbeat IPC: 0.172158 cumulative IPC: 0.132125 (Simulation time: 1 hr 26 min 0 sec) 
Heartbeat CPU 0 instructions: 81000001 cycles: 266784338 heartbeat IPC: 0.132054 cumulative IPC: 0.132123 (Simulation time: 1 hr 26 min 17 sec) 
Heartbeat CPU 0 instructions: 82000001 cycles: 274545015 heartbeat IPC: 0.128855 cumulative IPC: 0.132019 (Simulation time: 1 hr 26 min 37 sec) 
Heartbeat CPU 0 instructions: 83000002 cycles: 280702645 heartbeat IPC: 0.1624 cumulative IPC: 0.132771 (Simulation time: 1 hr 26 min 53 sec) 
Heartbeat CPU 0 instructions: 84000000 cycles: 286989937 heartbeat IPC: 0.159051 cumulative IPC: 0.13342 (Simulation time: 1 hr 27 min 8 sec) 
Heartbeat CPU 0 instructions: 85000000 cycles: 294166302 heartbeat IPC: 0.139346 cumulative IPC: 0.133582 (Simulation time: 1 hr 27 min 23 sec) 
Heartbeat CPU 0 instructions: 86000001 cycles: 302940457 heartbeat IPC: 0.113971 cumulative IPC: 0.132946 (Simulation time: 1 hr 27 min 41 sec) 
Heartbeat CPU 0 instructions: 87000000 cycles: 308823303 heartbeat IPC: 0.169986 cumulative IPC: 0.133734 (Simulation time: 1 hr 27 min 54 sec) 
Heartbeat CPU 0 instructions: 88000000 cycles: 314803085 heartbeat IPC: 0.16723 cumulative IPC: 0.134443 (Simulation time: 1 hr 28 min 8 sec) 
Heartbeat CPU 0 instructions: 89000002 cycles: 320969403 heartbeat IPC: 0.162172 cumulative IPC: 0.135035 (Simulation time: 1 hr 28 min 22 sec) 
Heartbeat CPU 0 instructions: 90000002 cycles: 327493250 heartbeat IPC: 0.153284 cumulative IPC: 0.135438 (Simulation time: 1 hr 28 min 36 sec) 
Heartbeat CPU 0 instructions: 91000001 cycles: 336741152 heartbeat IPC: 0.108133 cumulative IPC: 0.134609 (Simulation time: 1 hr 28 min 51 sec) 
Heartbeat CPU 0 instructions: 92000000 cycles: 343849913 heartbeat IPC: 0.140671 cumulative IPC: 0.134747 (Simulation time: 1 hr 29 min 3 sec) 
Heartbeat CPU 0 instructions: 93000003 cycles: 351431405 heartbeat IPC: 0.131901 cumulative IPC: 0.134679 (Simulation time: 1 hr 29 min 14 sec) 
Heartbeat CPU 0 instructions: 94000000 cycles: 359181003 heartbeat IPC: 0.129039 cumulative IPC: 0.134546 (Simulation time: 1 hr 29 min 24 sec) 
Heartbeat CPU 0 instructions: 95000000 cycles: 365664632 heartbeat IPC: 0.154235 cumulative IPC: 0.134929 (Simulation time: 1 hr 29 min 33 sec) 
Heartbeat CPU 0 instructions: 96000000 cycles: 375046293 heartbeat IPC: 0.106591 cumulative IPC: 0.134153 (Simulation time: 1 hr 29 min 45 sec) 
Heartbeat CPU 0 instructions: 97000000 cycles: 382015954 heartbeat IPC: 0.143479 cumulative IPC: 0.134339 (Simulation time: 1 hr 29 min 55 sec) 
Heartbeat CPU 0 instructions: 98000003 cycles: 389975188 heartbeat IPC: 0.125641 cumulative IPC: 0.134145 (Simulation time: 1 hr 30 min 6 sec) 
Heartbeat CPU 0 instructions: 99000001 cycles: 398102639 heartbeat IPC: 0.12304 cumulative IPC: 0.133899 (Simulation time: 1 hr 30 min 15 sec) 
Heartbeat CPU 0 instructions: 100000000 cycles: 405458876 heartbeat IPC: 0.135939 cumulative IPC: 0.133939 (Simulation time: 1 hr 30 min 25 sec) 
Heartbeat CPU 0 instructions: 101000000 cycles: 414838615 heartbeat IPC: 0.106613 cumulative IPC: 0.133269 (Simulation time: 1 hr 30 min 35 sec) 
Heartbeat CPU 0 instructions: 102000001 cycles: 421202151 heartbeat IPC: 0.157145 cumulative IPC: 0.13366 (Simulation time: 1 hr 30 min 44 sec) 
Heartbeat CPU 0 instructions: 103000000 cycles: 427836598 heartbeat IPC: 0.150728 cumulative IPC: 0.133946 (Simulation time: 1 hr 30 min 51 sec) 
Heartbeat CPU 0 instructions: 104000000 cycles: 434376963 heartbeat IPC: 0.152897 cumulative IPC: 0.134254 (Simulation time: 1 hr 30 min 59 sec) 
Heartbeat CPU 0 instructions: 105000000 cycles: 440536650 heartbeat IPC: 0.162346 cumulative IPC: 0.134678 (Simulation time: 1 hr 31 min 6 sec) 
Heartbeat CPU 0 instructions: 106000000 cycles: 449679935 heartbeat IPC: 0.10937 cumulative IPC: 0.134124 (Simulation time: 1 hr 31 min 15 sec) 
Heartbeat CPU 0 instructions: 107000002 cycles: 456620108 heartbeat IPC: 0.144089 cumulative IPC: 0.134287 (Simulation time: 1 hr 31 min 21 sec) 
Heartbeat CPU 0 instructions: 108000000 cycles: 466031243 heartbeat IPC: 0.106257 cumulative IPC: 0.133679 (Simulation time: 1 hr 31 min 28 sec) 
Heartbeat CPU 0 instructions: 109000003 cycles: 472575668 heartbeat IPC: 0.152802 cumulative IPC: 0.133963 (Simulation time: 1 hr 31 min 35 sec) 
Heartbeat CPU 0 instructions: 110000003 cycles: 478645973 heartbeat IPC: 0.164736 cumulative IPC: 0.134381 (Simulation time: 1 hr 31 min 41 sec) 
Heartbeat CPU 0 instructions: 111000001 cycles: 484776285 heartbeat IPC: 0.163124 cumulative IPC: 0.13477 (Simulation time: 1 hr 31 min 46 sec) 
Heartbeat CPU 0 instructions: 112000000 cycles: 493381158 heartbeat IPC: 0.116213 cumulative IPC: 0.134424 (Simulation time: 1 hr 31 min 53 sec) 
Heartbeat CPU 0 instructions: 113000000 cycles: 500765900 heartbeat IPC: 0.135414 cumulative IPC: 0.13444 (Simulation time: 1 hr 31 min 59 sec) 
Heartbeat CPU 0 instructions: 114000003 cycles: 508733930 heartbeat IPC: 0.125502 cumulative IPC: 0.13429 (Simulation time: 1 hr 32 min 6 sec) 
Heartbeat CPU 0 instructions: 115000001 cycles: 516985070 heartbeat IPC: 0.121195 cumulative IPC: 0.134068 (Simulation time: 1 hr 32 min 12 sec) 
Heartbeat CPU 0 instructions: 116000000 cycles: 523363528 heartbeat IPC: 0.156778 cumulative IPC: 0.134362 (Simulation time: 1 hr 32 min 18 sec) 
Heartbeat CPU 0 instructions: 117000001 cycles: 529914653 heartbeat IPC: 0.152646 cumulative IPC: 0.134603 (Simulation time: 1 hr 32 min 23 sec) 
Heartbeat CPU 0 instructions: 118000003 cycles: 539100923 heartbeat IPC: 0.108858 cumulative IPC: 0.134137 (Simulation time: 1 hr 32 min 29 sec) 
Heartbeat CPU 0 instructions: 119000000 cycles: 545760325 heartbeat IPC: 0.150163 cumulative IPC: 0.134344 (Simulation time: 1 hr 32 min 35 sec) 
Heartbeat CPU 0 instructions: 120000000 cycles: 552553020 heartbeat IPC: 0.147217 cumulative IPC: 0.134512 (Simulation time: 1 hr 32 min 41 sec) 
Heartbeat CPU 0 instructions: 121000001 cycles: 559020289 heartbeat IPC: 0.154625 cumulative IPC: 0.134759 (Simulation time: 1 hr 32 min 47 sec) 
Heartbeat CPU 0 instructions: 122000001 cycles: 565523352 heartbeat IPC: 0.153774 cumulative IPC: 0.134991 (Simulation time: 1 hr 32 min 52 sec) 
Heartbeat CPU 0 instructions: 123000001 cycles: 574786757 heartbeat IPC: 0.107952 cumulative IPC: 0.134529 (Simulation time: 1 hr 32 min 59 sec) 
Heartbeat CPU 0 instructions: 124000000 cycles: 581355247 heartbeat IPC: 0.152242 cumulative IPC: 0.134741 (Simulation time: 1 hr 33 min 5 sec) 
Heartbeat CPU 0 instructions: 125000000 cycles: 588351457 heartbeat IPC: 0.142935 cumulative IPC: 0.134844 (Simulation time: 1 hr 33 min 11 sec) 
Heartbeat CPU 0 instructions: 126000003 cycles: 595723397 heartbeat IPC: 0.13565 cumulative IPC: 0.134855 (Simulation time: 1 hr 33 min 17 sec) 
Heartbeat CPU 0 instructions: 127000003 cycles: 605292895 heartbeat IPC: 0.104499 cumulative IPC: 0.134348 (Simulation time: 1 hr 33 min 23 sec) 
Heartbeat CPU 0 instructions: 128000000 cycles: 611739077 heartbeat IPC: 0.15513 cumulative IPC: 0.134579 (Simulation time: 1 hr 33 min 29 sec) 
Heartbeat CPU 0 instructions: 129000001 cycles: 620818274 heartbeat IPC: 0.110142 cumulative IPC: 0.134202 (Simulation time: 1 hr 33 min 36 sec) 
Heartbeat CPU 0 instructions: 130000002 cycles: 627116643 heartbeat IPC: 0.158771 cumulative IPC: 0.134462 (Simulation time: 1 hr 33 min 42 sec) 
Heartbeat CPU 0 instructions: 131000003 cycles: 633345446 heartbeat IPC: 0.160545 cumulative IPC: 0.134733 (Simulation time: 1 hr 33 min 47 sec) 
Heartbeat CPU 0 instructions: 132000000 cycles: 644818574 heartbeat IPC: 0.0871599 cumulative IPC: 0.133842 (Simulation time: 1 hr 33 min 55 sec) 
Heartbeat CPU 0 instructions: 133000000 cycles: 654368350 heartbeat IPC: 0.104714 cumulative IPC: 0.133395 (Simulation time: 1 hr 34 min 3 sec) 
Heartbeat CPU 0 instructions: 134000000 cycles: 661302058 heartbeat IPC: 0.144223 cumulative IPC: 0.133514 (Simulation time: 1 hr 34 min 8 sec) 
Heartbeat CPU 0 instructions: 135000000 cycles: 669245174 heartbeat IPC: 0.125895 cumulative IPC: 0.133419 (Simulation time: 1 hr 34 min 14 sec) 
Heartbeat CPU 0 instructions: 136000000 cycles: 678296692 heartbeat IPC: 0.110479 cumulative IPC: 0.133098 (Simulation time: 1 hr 34 min 21 sec) 
Heartbeat CPU 0 instructions: 137000001 cycles: 686364511 heartbeat IPC: 0.123949 cumulative IPC: 0.132985 (Simulation time: 1 hr 34 min 28 sec) 
Heartbeat CPU 0 instructions: 138000002 cycles: 692802740 heartbeat IPC: 0.155322 cumulative IPC: 0.133203 (Simulation time: 1 hr 34 min 34 sec) 
Heartbeat CPU 0 instructions: 139000001 cycles: 699525120 heartbeat IPC: 0.148757 cumulative IPC: 0.133359 (Simulation time: 1 hr 34 min 39 sec) 
Heartbeat CPU 0 instructions: 140000000 cycles: 708912921 heartbeat IPC: 0.106521 cumulative IPC: 0.132987 (Simulation time: 1 hr 34 min 45 sec) 
Heartbeat CPU 0 instructions: 141000001 cycles: 715235405 heartbeat IPC: 0.158166 cumulative IPC: 0.13322 (Simulation time: 1 hr 34 min 50 sec) 
Heartbeat CPU 0 instructions: 142000000 cycles: 721664778 heartbeat IPC: 0.155536 cumulative IPC: 0.133428 (Simulation time: 1 hr 34 min 56 sec) 
Heartbeat CPU 0 instructions: 143000001 cycles: 728185714 heartbeat IPC: 0.153352 cumulative IPC: 0.133615 (Simulation time: 1 hr 35 min 1 sec) 
Heartbeat CPU 0 instructions: 144000000 cycles: 737519633 heartbeat IPC: 0.107136 cumulative IPC: 0.133264 (Simulation time: 1 hr 35 min 8 sec) 
Heartbeat CPU 0 instructions: 145000000 cycles: 744233323 heartbeat IPC: 0.148949 cumulative IPC: 0.133412 (Simulation time: 1 hr 35 min 13 sec) 
Heartbeat CPU 0 instructions: 146000000 cycles: 751039860 heartbeat IPC: 0.146918 cumulative IPC: 0.13354 (Simulation time: 1 hr 35 min 19 sec) 
Heartbeat CPU 0 instructions: 147000000 cycles: 760348748 heartbeat IPC: 0.107424 cumulative IPC: 0.133206 (Simulation time: 1 hr 35 min 25 sec) 
Heartbeat CPU 0 instructions: 148000000 cycles: 766459280 heartbeat IPC: 0.163652 cumulative IPC: 0.13346 (Simulation time: 1 hr 35 min 31 sec) 
Heartbeat CPU 0 instructions: 149000000 cycles: 775302024 heartbeat IPC: 0.113087 cumulative IPC: 0.133217 (Simulation time: 1 hr 35 min 37 sec) 
Heartbeat CPU 0 instructions: 150000001 cycles: 781842584 heartbeat IPC: 0.152892 cumulative IPC: 0.133389 (Simulation time: 1 hr 35 min 43 sec) 
Finished CPU 0 instructions: 100000000 cycles: 749687825 cummulative IPC: 0.133389 (Simulation time: 1 hr 35 min 43 sec) 

ChampSim completed all CPUs

Region of Interest Statistics

CPU 0 cummulative IPC: 0.133389 instructions: 100000000 cycles: 749687825
LLC TOTAL     ACCESS:    9036533  HIT:    1926676  MISS:    7109857
LLC LOAD      ACCESS:    1898998  HIT:     425185  MISS:    1473813
LLC RFO       ACCESS:    1963585  HIT:     311972  MISS:    1651613
LLC PREFETCH  ACCESS:    2282808  HIT:     407362  MISS:    1875446
LLC WRITEBACK ACCESS:    2891142  HIT:     782157  MISS:    2108985
OPTgen accesses: 368522
OPTgen hits: 56607
OPTgen hit rate: 15.3605


