
*** ChampSim Multicore Out-of-Order Simulator ***

Warmup Instructions: 50000000
Simulation Instructions: 100000000
Configuration: 2
Number of CPUs: 1
LLC sets: 2048
LLC ways: 16
Off-chip DRAM Channels: 1 Width: 64-bit Data Rate: 1600 MT/s

CPU 0 runs /datasets/cs240c-wi22-a00-public/data/Assignment2-gz/GemsFDTD_109B.trace.gz
CPU 0 L1D next line prefetcher
CPU 0 L2C IP-based stride prefetcher
Initialize Hawkeye state
Heartbeat CPU 0 instructions: 1000002 cycles: 579772 heartbeat IPC: 1.72482 cumulative IPC: 1.72482 (Simulation time: 0 hr 0 min 42 sec) 
Heartbeat CPU 0 instructions: 2000001 cycles: 1159543 heartbeat IPC: 1.72482 cumulative IPC: 1.72482 (Simulation time: 0 hr 1 min 34 sec) 
Heartbeat CPU 0 instructions: 3000000 cycles: 1738735 heartbeat IPC: 1.72654 cumulative IPC: 1.72539 (Simulation time: 0 hr 2 min 14 sec) 
Heartbeat CPU 0 instructions: 4000000 cycles: 2317756 heartbeat IPC: 1.72705 cumulative IPC: 1.72581 (Simulation time: 0 hr 2 min 59 sec) 
Heartbeat CPU 0 instructions: 5000000 cycles: 2897609 heartbeat IPC: 1.72458 cumulative IPC: 1.72556 (Simulation time: 0 hr 3 min 44 sec) 
Heartbeat CPU 0 instructions: 6000002 cycles: 3478347 heartbeat IPC: 1.72195 cumulative IPC: 1.72496 (Simulation time: 0 hr 4 min 28 sec) 
Heartbeat CPU 0 instructions: 7000001 cycles: 4059058 heartbeat IPC: 1.72203 cumulative IPC: 1.72454 (Simulation time: 0 hr 5 min 11 sec) 
Heartbeat CPU 0 instructions: 8000000 cycles: 4639255 heartbeat IPC: 1.72355 cumulative IPC: 1.72441 (Simulation time: 0 hr 5 min 50 sec) 
Heartbeat CPU 0 instructions: 9000002 cycles: 5219446 heartbeat IPC: 1.72357 cumulative IPC: 1.72432 (Simulation time: 0 hr 6 min 29 sec) 
Heartbeat CPU 0 instructions: 10000001 cycles: 5799625 heartbeat IPC: 1.7236 cumulative IPC: 1.72425 (Simulation time: 0 hr 7 min 11 sec) 
Heartbeat CPU 0 instructions: 11000000 cycles: 6379479 heartbeat IPC: 1.72457 cumulative IPC: 1.72428 (Simulation time: 0 hr 7 min 54 sec) 
Heartbeat CPU 0 instructions: 12000000 cycles: 6959369 heartbeat IPC: 1.72447 cumulative IPC: 1.72429 (Simulation time: 0 hr 8 min 38 sec) 
Heartbeat CPU 0 instructions: 13000001 cycles: 7539495 heartbeat IPC: 1.72377 cumulative IPC: 1.72425 (Simulation time: 0 hr 9 min 20 sec) 
Heartbeat CPU 0 instructions: 14000003 cycles: 8119479 heartbeat IPC: 1.72419 cumulative IPC: 1.72425 (Simulation time: 0 hr 10 min 4 sec) 
Heartbeat CPU 0 instructions: 15000000 cycles: 8699604 heartbeat IPC: 1.72376 cumulative IPC: 1.72422 (Simulation time: 0 hr 10 min 54 sec) 
Heartbeat CPU 0 instructions: 16000000 cycles: 9279740 heartbeat IPC: 1.72373 cumulative IPC: 1.72419 (Simulation time: 0 hr 11 min 43 sec) 
Heartbeat CPU 0 instructions: 17000002 cycles: 9859947 heartbeat IPC: 1.72353 cumulative IPC: 1.72415 (Simulation time: 0 hr 12 min 28 sec) 
Heartbeat CPU 0 instructions: 18000003 cycles: 10439857 heartbeat IPC: 1.72441 cumulative IPC: 1.72416 (Simulation time: 0 hr 13 min 8 sec) 
Heartbeat CPU 0 instructions: 19000000 cycles: 11019737 heartbeat IPC: 1.72449 cumulative IPC: 1.72418 (Simulation time: 0 hr 13 min 50 sec) 
Heartbeat CPU 0 instructions: 20000000 cycles: 11596681 heartbeat IPC: 1.73327 cumulative IPC: 1.72463 (Simulation time: 0 hr 14 min 28 sec) 
Heartbeat CPU 0 instructions: 21000000 cycles: 12041820 heartbeat IPC: 2.24649 cumulative IPC: 1.74392 (Simulation time: 0 hr 15 min 1 sec) 
Heartbeat CPU 0 instructions: 22000000 cycles: 12574012 heartbeat IPC: 1.87902 cumulative IPC: 1.74964 (Simulation time: 0 hr 15 min 35 sec) 
Heartbeat CPU 0 instructions: 23000000 cycles: 13023458 heartbeat IPC: 2.22496 cumulative IPC: 1.76604 (Simulation time: 0 hr 16 min 9 sec) 
Heartbeat CPU 0 instructions: 24000000 cycles: 13565327 heartbeat IPC: 1.84546 cumulative IPC: 1.76922 (Simulation time: 0 hr 16 min 42 sec) 
Heartbeat CPU 0 instructions: 25000001 cycles: 14024410 heartbeat IPC: 2.17826 cumulative IPC: 1.78261 (Simulation time: 0 hr 17 min 15 sec) 
Heartbeat CPU 0 instructions: 26000000 cycles: 14554639 heartbeat IPC: 1.88598 cumulative IPC: 1.78637 (Simulation time: 0 hr 17 min 47 sec) 
Heartbeat CPU 0 instructions: 27000000 cycles: 15030611 heartbeat IPC: 2.10096 cumulative IPC: 1.79633 (Simulation time: 0 hr 18 min 18 sec) 
Heartbeat CPU 0 instructions: 28000000 cycles: 15533658 heartbeat IPC: 1.98789 cumulative IPC: 1.80254 (Simulation time: 0 hr 18 min 50 sec) 
Heartbeat CPU 0 instructions: 29000000 cycles: 16006628 heartbeat IPC: 2.1143 cumulative IPC: 1.81175 (Simulation time: 0 hr 19 min 20 sec) 
Heartbeat CPU 0 instructions: 30000001 cycles: 16526668 heartbeat IPC: 1.92293 cumulative IPC: 1.81525 (Simulation time: 0 hr 19 min 52 sec) 
Heartbeat CPU 0 instructions: 31000001 cycles: 17027395 heartbeat IPC: 1.9971 cumulative IPC: 1.8206 (Simulation time: 0 hr 20 min 22 sec) 
Heartbeat CPU 0 instructions: 32000000 cycles: 17509592 heartbeat IPC: 2.07384 cumulative IPC: 1.82757 (Simulation time: 0 hr 20 min 51 sec) 
Heartbeat CPU 0 instructions: 33000003 cycles: 18012596 heartbeat IPC: 1.98806 cumulative IPC: 1.83205 (Simulation time: 0 hr 21 min 19 sec) 
Heartbeat CPU 0 instructions: 34000002 cycles: 18492480 heartbeat IPC: 2.08383 cumulative IPC: 1.83859 (Simulation time: 0 hr 21 min 55 sec) 
Heartbeat CPU 0 instructions: 35000002 cycles: 18995195 heartbeat IPC: 1.9892 cumulative IPC: 1.84257 (Simulation time: 0 hr 22 min 25 sec) 
Heartbeat CPU 0 instructions: 36000000 cycles: 19487341 heartbeat IPC: 2.03191 cumulative IPC: 1.84735 (Simulation time: 0 hr 22 min 56 sec) 
Heartbeat CPU 0 instructions: 37000000 cycles: 19902388 heartbeat IPC: 2.40937 cumulative IPC: 1.85907 (Simulation time: 0 hr 23 min 27 sec) 
Heartbeat CPU 0 instructions: 38000001 cycles: 20317433 heartbeat IPC: 2.40938 cumulative IPC: 1.87032 (Simulation time: 0 hr 24 min 3 sec) 
Heartbeat CPU 0 instructions: 39000000 cycles: 20732419 heartbeat IPC: 2.40972 cumulative IPC: 1.88111 (Simulation time: 0 hr 24 min 34 sec) 
Heartbeat CPU 0 instructions: 40000000 cycles: 21147428 heartbeat IPC: 2.40959 cumulative IPC: 1.89148 (Simulation time: 0 hr 25 min 9 sec) 
Heartbeat CPU 0 instructions: 41000000 cycles: 21658168 heartbeat IPC: 1.95794 cumulative IPC: 1.89305 (Simulation time: 0 hr 25 min 41 sec) 
Heartbeat CPU 0 instructions: 42000000 cycles: 22073185 heartbeat IPC: 2.40954 cumulative IPC: 1.90276 (Simulation time: 0 hr 26 min 14 sec) 
Heartbeat CPU 0 instructions: 43000000 cycles: 22488238 heartbeat IPC: 2.40933 cumulative IPC: 1.91211 (Simulation time: 0 hr 26 min 47 sec) 
Heartbeat CPU 0 instructions: 44000000 cycles: 22903190 heartbeat IPC: 2.40992 cumulative IPC: 1.92113 (Simulation time: 0 hr 27 min 18 sec) 
Heartbeat CPU 0 instructions: 45000000 cycles: 23318199 heartbeat IPC: 2.40959 cumulative IPC: 1.92982 (Simulation time: 0 hr 27 min 52 sec) 
Heartbeat CPU 0 instructions: 46000003 cycles: 23728662 heartbeat IPC: 2.43628 cumulative IPC: 1.93858 (Simulation time: 0 hr 28 min 20 sec) 
Heartbeat CPU 0 instructions: 47000001 cycles: 24362540 heartbeat IPC: 1.57759 cumulative IPC: 1.92919 (Simulation time: 0 hr 28 min 43 sec) 
Heartbeat CPU 0 instructions: 48000000 cycles: 24963340 heartbeat IPC: 1.66445 cumulative IPC: 1.92282 (Simulation time: 0 hr 29 min 10 sec) 
Heartbeat CPU 0 instructions: 49000003 cycles: 25557317 heartbeat IPC: 1.68357 cumulative IPC: 1.91726 (Simulation time: 0 hr 29 min 59 sec) 
Heartbeat CPU 0 instructions: 50000001 cycles: 26223626 heartbeat IPC: 1.5008 cumulative IPC: 1.90668 (Simulation time: 0 hr 30 min 32 sec) 

Warmup complete CPU 0 instructions: 50000001 cycles: 26223626 (Simulation time: 0 hr 30 min 32 sec) 

Heartbeat CPU 0 instructions: 51000001 cycles: 27724589 heartbeat IPC: 0.666239 cumulative IPC: 0.666239 (Simulation time: 0 hr 31 min 11 sec) 
Heartbeat CPU 0 instructions: 52000000 cycles: 29297726 heartbeat IPC: 0.635672 cumulative IPC: 0.650597 (Simulation time: 0 hr 31 min 56 sec) 
Heartbeat CPU 0 instructions: 53000000 cycles: 30910459 heartbeat IPC: 0.620065 cumulative IPC: 0.640091 (Simulation time: 0 hr 32 min 44 sec) 
Heartbeat CPU 0 instructions: 54000000 cycles: 32527329 heartbeat IPC: 0.618479 cumulative IPC: 0.634548 (Simulation time: 0 hr 33 min 37 sec) 
Heartbeat CPU 0 instructions: 55000000 cycles: 34127947 heartbeat IPC: 0.624759 cumulative IPC: 0.632565 (Simulation time: 0 hr 34 min 22 sec) 
Heartbeat CPU 0 instructions: 56000000 cycles: 35734564 heartbeat IPC: 0.622426 cumulative IPC: 0.630853 (Simulation time: 0 hr 35 min 9 sec) 
Heartbeat CPU 0 instructions: 57000003 cycles: 37378774 heartbeat IPC: 0.608197 cumulative IPC: 0.627513 (Simulation time: 0 hr 35 min 57 sec) 
Heartbeat CPU 0 instructions: 58000002 cycles: 38990686 heartbeat IPC: 0.620381 cumulative IPC: 0.626613 (Simulation time: 0 hr 36 min 51 sec) 
Heartbeat CPU 0 instructions: 59000002 cycles: 40620023 heartbeat IPC: 0.613747 cumulative IPC: 0.625156 (Simulation time: 0 hr 37 min 38 sec) 
Heartbeat CPU 0 instructions: 60000000 cycles: 42238368 heartbeat IPC: 0.617914 cumulative IPC: 0.624425 (Simulation time: 0 hr 38 min 29 sec) 
Heartbeat CPU 0 instructions: 61000000 cycles: 43835947 heartbeat IPC: 0.625947 cumulative IPC: 0.624563 (Simulation time: 0 hr 39 min 25 sec) 
Heartbeat CPU 0 instructions: 62000000 cycles: 45433413 heartbeat IPC: 0.625991 cumulative IPC: 0.624682 (Simulation time: 0 hr 40 min 10 sec) 
Heartbeat CPU 0 instructions: 63000001 cycles: 47044609 heartbeat IPC: 0.620658 cumulative IPC: 0.62437 (Simulation time: 0 hr 41 min 1 sec) 
Heartbeat CPU 0 instructions: 64000000 cycles: 48681600 heartbeat IPC: 0.610876 cumulative IPC: 0.623387 (Simulation time: 0 hr 42 min 0 sec) 
Heartbeat CPU 0 instructions: 65000003 cycles: 50319344 heartbeat IPC: 0.610598 cumulative IPC: 0.622517 (Simulation time: 0 hr 42 min 54 sec) 
Heartbeat CPU 0 instructions: 66000001 cycles: 51971480 heartbeat IPC: 0.605276 cumulative IPC: 0.621411 (Simulation time: 0 hr 43 min 35 sec) 
Heartbeat CPU 0 instructions: 67000001 cycles: 53589273 heartbeat IPC: 0.618126 cumulative IPC: 0.621217 (Simulation time: 0 hr 44 min 11 sec) 
Heartbeat CPU 0 instructions: 68000000 cycles: 55225213 heartbeat IPC: 0.611269 cumulative IPC: 0.620656 (Simulation time: 0 hr 44 min 53 sec) 
Heartbeat CPU 0 instructions: 69000000 cycles: 56862131 heartbeat IPC: 0.610904 cumulative IPC: 0.620135 (Simulation time: 0 hr 45 min 38 sec) 
Heartbeat CPU 0 instructions: 70000003 cycles: 58461972 heartbeat IPC: 0.625064 cumulative IPC: 0.620379 (Simulation time: 0 hr 46 min 15 sec) 
Heartbeat CPU 0 instructions: 71000003 cycles: 60094625 heartbeat IPC: 0.6125 cumulative IPC: 0.619999 (Simulation time: 0 hr 46 min 55 sec) 
Heartbeat CPU 0 instructions: 72000000 cycles: 61705666 heartbeat IPC: 0.620715 cumulative IPC: 0.620032 (Simulation time: 0 hr 47 min 46 sec) 
Heartbeat CPU 0 instructions: 73000002 cycles: 63343095 heartbeat IPC: 0.610715 cumulative IPC: 0.619621 (Simulation time: 0 hr 48 min 33 sec) 
Heartbeat CPU 0 instructions: 74000000 cycles: 64982808 heartbeat IPC: 0.609862 cumulative IPC: 0.619208 (Simulation time: 0 hr 49 min 18 sec) 
Heartbeat CPU 0 instructions: 75000000 cycles: 66628063 heartbeat IPC: 0.607809 cumulative IPC: 0.618744 (Simulation time: 0 hr 50 min 5 sec) 
Heartbeat CPU 0 instructions: 76000000 cycles: 68236636 heartbeat IPC: 0.621669 cumulative IPC: 0.618856 (Simulation time: 0 hr 50 min 49 sec) 
Heartbeat CPU 0 instructions: 77000003 cycles: 69889987 heartbeat IPC: 0.604834 cumulative IPC: 0.618325 (Simulation time: 0 hr 51 min 36 sec) 
Heartbeat CPU 0 instructions: 78000001 cycles: 71511588 heartbeat IPC: 0.616673 cumulative IPC: 0.618266 (Simulation time: 0 hr 52 min 25 sec) 
Heartbeat CPU 0 instructions: 79000001 cycles: 73116968 heartbeat IPC: 0.622905 cumulative IPC: 0.618425 (Simulation time: 0 hr 53 min 12 sec) 
Heartbeat CPU 0 instructions: 80000000 cycles: 74736771 heartbeat IPC: 0.617358 cumulative IPC: 0.618389 (Simulation time: 0 hr 54 min 3 sec) 
Heartbeat CPU 0 instructions: 81000001 cycles: 76363443 heartbeat IPC: 0.614753 cumulative IPC: 0.618271 (Simulation time: 0 hr 54 min 52 sec) 
Heartbeat CPU 0 instructions: 82000000 cycles: 77983739 heartbeat IPC: 0.617171 cumulative IPC: 0.618237 (Simulation time: 0 hr 55 min 49 sec) 
Heartbeat CPU 0 instructions: 83000001 cycles: 79595709 heartbeat IPC: 0.62036 cumulative IPC: 0.618301 (Simulation time: 0 hr 56 min 37 sec) 
Heartbeat CPU 0 instructions: 84000000 cycles: 81200685 heartbeat IPC: 0.623062 cumulative IPC: 0.61844 (Simulation time: 0 hr 57 min 26 sec) 
Heartbeat CPU 0 instructions: 85000001 cycles: 82841455 heartbeat IPC: 0.609471 cumulative IPC: 0.61818 (Simulation time: 0 hr 58 min 15 sec) 
Heartbeat CPU 0 instructions: 86000000 cycles: 84472582 heartbeat IPC: 0.613072 cumulative IPC: 0.618037 (Simulation time: 0 hr 59 min 4 sec) 
Heartbeat CPU 0 instructions: 87000002 cycles: 86099583 heartbeat IPC: 0.614629 cumulative IPC: 0.617944 (Simulation time: 0 hr 59 min 54 sec) 
Heartbeat CPU 0 instructions: 88000000 cycles: 87742566 heartbeat IPC: 0.608648 cumulative IPC: 0.617696 (Simulation time: 1 hr 0 min 46 sec) 
Heartbeat CPU 0 instructions: 89000003 cycles: 89402879 heartbeat IPC: 0.602298 cumulative IPC: 0.617291 (Simulation time: 1 hr 1 min 36 sec) 
Heartbeat CPU 0 instructions: 90000000 cycles: 91060959 heartbeat IPC: 0.603105 cumulative IPC: 0.616929 (Simulation time: 1 hr 2 min 27 sec) 
Heartbeat CPU 0 instructions: 91000002 cycles: 92713503 heartbeat IPC: 0.605129 cumulative IPC: 0.616635 (Simulation time: 1 hr 3 min 17 sec) 
Heartbeat CPU 0 instructions: 92000000 cycles: 94342966 heartbeat IPC: 0.613698 cumulative IPC: 0.616565 (Simulation time: 1 hr 4 min 6 sec) 
Heartbeat CPU 0 instructions: 93000001 cycles: 95979015 heartbeat IPC: 0.611229 cumulative IPC: 0.61644 (Simulation time: 1 hr 4 min 50 sec) 
Heartbeat CPU 0 instructions: 94000000 cycles: 97603940 heartbeat IPC: 0.615412 cumulative IPC: 0.616416 (Simulation time: 1 hr 5 min 37 sec) 
Heartbeat CPU 0 instructions: 95000002 cycles: 99216762 heartbeat IPC: 0.620032 cumulative IPC: 0.616496 (Simulation time: 1 hr 6 min 20 sec) 
Heartbeat CPU 0 instructions: 96000000 cycles: 100842910 heartbeat IPC: 0.614949 cumulative IPC: 0.616463 (Simulation time: 1 hr 7 min 2 sec) 
Heartbeat CPU 0 instructions: 97000002 cycles: 102470882 heartbeat IPC: 0.614262 cumulative IPC: 0.616416 (Simulation time: 1 hr 7 min 48 sec) 
Heartbeat CPU 0 instructions: 98000001 cycles: 104112564 heartbeat IPC: 0.609131 cumulative IPC: 0.616262 (Simulation time: 1 hr 8 min 33 sec) 
Heartbeat CPU 0 instructions: 99000001 cycles: 105709617 heartbeat IPC: 0.626153 cumulative IPC: 0.616461 (Simulation time: 1 hr 9 min 14 sec) 
Heartbeat CPU 0 instructions: 100000000 cycles: 107352122 heartbeat IPC: 0.608826 cumulative IPC: 0.616306 (Simulation time: 1 hr 9 min 54 sec) 
Heartbeat CPU 0 instructions: 101000001 cycles: 108999831 heartbeat IPC: 0.606904 cumulative IPC: 0.616119 (Simulation time: 1 hr 10 min 37 sec) 
Heartbeat CPU 0 instructions: 102000000 cycles: 110639990 heartbeat IPC: 0.609696 cumulative IPC: 0.615994 (Simulation time: 1 hr 11 min 13 sec) 
Heartbeat CPU 0 instructions: 103000000 cycles: 112261706 heartbeat IPC: 0.616631 cumulative IPC: 0.616006 (Simulation time: 1 hr 11 min 48 sec) 
Heartbeat CPU 0 instructions: 104000000 cycles: 113902514 heartbeat IPC: 0.609456 cumulative IPC: 0.615884 (Simulation time: 1 hr 12 min 23 sec) 
Heartbeat CPU 0 instructions: 105000000 cycles: 115551550 heartbeat IPC: 0.606415 cumulative IPC: 0.615709 (Simulation time: 1 hr 12 min 57 sec) 
Heartbeat CPU 0 instructions: 106000001 cycles: 117186595 heartbeat IPC: 0.611605 cumulative IPC: 0.615635 (Simulation time: 1 hr 13 min 29 sec) 
Heartbeat CPU 0 instructions: 107000001 cycles: 118823484 heartbeat IPC: 0.610915 cumulative IPC: 0.615552 (Simulation time: 1 hr 14 min 2 sec) 
Heartbeat CPU 0 instructions: 108000000 cycles: 120466794 heartbeat IPC: 0.608527 cumulative IPC: 0.615429 (Simulation time: 1 hr 14 min 33 sec) 
Heartbeat CPU 0 instructions: 109000003 cycles: 122069412 heartbeat IPC: 0.623981 cumulative IPC: 0.615572 (Simulation time: 1 hr 15 min 5 sec) 
Heartbeat CPU 0 instructions: 110000002 cycles: 123690433 heartbeat IPC: 0.616895 cumulative IPC: 0.615594 (Simulation time: 1 hr 15 min 36 sec) 
Heartbeat CPU 0 instructions: 111000000 cycles: 125297603 heartbeat IPC: 0.62221 cumulative IPC: 0.615702 (Simulation time: 1 hr 16 min 8 sec) 
Heartbeat CPU 0 instructions: 112000000 cycles: 126917000 heartbeat IPC: 0.617514 cumulative IPC: 0.615731 (Simulation time: 1 hr 16 min 38 sec) 
Heartbeat CPU 0 instructions: 113000000 cycles: 128521862 heartbeat IPC: 0.623107 cumulative IPC: 0.615846 (Simulation time: 1 hr 17 min 7 sec) 
Heartbeat CPU 0 instructions: 114000000 cycles: 130128423 heartbeat IPC: 0.622448 cumulative IPC: 0.615948 (Simulation time: 1 hr 17 min 35 sec) 
Heartbeat CPU 0 instructions: 115000001 cycles: 131767007 heartbeat IPC: 0.610284 cumulative IPC: 0.615861 (Simulation time: 1 hr 18 min 3 sec) 
Heartbeat CPU 0 instructions: 116000000 cycles: 133373260 heartbeat IPC: 0.622566 cumulative IPC: 0.615961 (Simulation time: 1 hr 18 min 29 sec) 
Heartbeat CPU 0 instructions: 117000002 cycles: 134990287 heartbeat IPC: 0.61842 cumulative IPC: 0.615998 (Simulation time: 1 hr 18 min 55 sec) 
Heartbeat CPU 0 instructions: 118000003 cycles: 136619877 heartbeat IPC: 0.613652 cumulative IPC: 0.615963 (Simulation time: 1 hr 19 min 22 sec) 
Heartbeat CPU 0 instructions: 119000000 cycles: 138251994 heartbeat IPC: 0.612699 cumulative IPC: 0.615915 (Simulation time: 1 hr 19 min 50 sec) 
Heartbeat CPU 0 instructions: 120000000 cycles: 139909052 heartbeat IPC: 0.603479 cumulative IPC: 0.615734 (Simulation time: 1 hr 20 min 16 sec) 
Heartbeat CPU 0 instructions: 121000003 cycles: 141516300 heartbeat IPC: 0.622183 cumulative IPC: 0.615824 (Simulation time: 1 hr 20 min 40 sec) 
Heartbeat CPU 0 instructions: 122000003 cycles: 143152013 heartbeat IPC: 0.611354 cumulative IPC: 0.615762 (Simulation time: 1 hr 21 min 5 sec) 
Heartbeat CPU 0 instructions: 123000000 cycles: 144805173 heartbeat IPC: 0.6049 cumulative IPC: 0.61561 (Simulation time: 1 hr 21 min 30 sec) 
Heartbeat CPU 0 instructions: 124000000 cycles: 146426110 heartbeat IPC: 0.616927 cumulative IPC: 0.615628 (Simulation time: 1 hr 21 min 54 sec) 
Heartbeat CPU 0 instructions: 125000000 cycles: 148038847 heartbeat IPC: 0.620064 cumulative IPC: 0.615687 (Simulation time: 1 hr 22 min 18 sec) 
Heartbeat CPU 0 instructions: 126000001 cycles: 149647233 heartbeat IPC: 0.621742 cumulative IPC: 0.615766 (Simulation time: 1 hr 22 min 42 sec) 
Heartbeat CPU 0 instructions: 127000003 cycles: 151293766 heartbeat IPC: 0.607338 cumulative IPC: 0.615655 (Simulation time: 1 hr 23 min 5 sec) 
Heartbeat CPU 0 instructions: 128000000 cycles: 152935119 heartbeat IPC: 0.609252 cumulative IPC: 0.615572 (Simulation time: 1 hr 23 min 28 sec) 
Heartbeat CPU 0 instructions: 129000002 cycles: 154535794 heartbeat IPC: 0.624738 cumulative IPC: 0.615686 (Simulation time: 1 hr 23 min 49 sec) 
Heartbeat CPU 0 instructions: 130000000 cycles: 156176857 heartbeat IPC: 0.60936 cumulative IPC: 0.615606 (Simulation time: 1 hr 24 min 9 sec) 
Heartbeat CPU 0 instructions: 131000001 cycles: 157781149 heartbeat IPC: 0.623329 cumulative IPC: 0.6157 (Simulation time: 1 hr 24 min 27 sec) 
Heartbeat CPU 0 instructions: 132000000 cycles: 159425924 heartbeat IPC: 0.607985 cumulative IPC: 0.615605 (Simulation time: 1 hr 24 min 45 sec) 
Heartbeat CPU 0 instructions: 133000001 cycles: 161086867 heartbeat IPC: 0.602068 cumulative IPC: 0.615438 (Simulation time: 1 hr 25 min 4 sec) 
Heartbeat CPU 0 instructions: 134000003 cycles: 162740692 heartbeat IPC: 0.60466 cumulative IPC: 0.615308 (Simulation time: 1 hr 25 min 22 sec) 
Heartbeat CPU 0 instructions: 135000000 cycles: 164374236 heartbeat IPC: 0.612164 cumulative IPC: 0.615271 (Simulation time: 1 hr 25 min 39 sec) 
Heartbeat CPU 0 instructions: 136000000 cycles: 166002236 heartbeat IPC: 0.614251 cumulative IPC: 0.615259 (Simulation time: 1 hr 25 min 55 sec) 
Heartbeat CPU 0 instructions: 137000001 cycles: 167655256 heartbeat IPC: 0.604954 cumulative IPC: 0.615138 (Simulation time: 1 hr 26 min 10 sec) 
Heartbeat CPU 0 instructions: 138000002 cycles: 169279954 heartbeat IPC: 0.6155 cumulative IPC: 0.615142 (Simulation time: 1 hr 26 min 25 sec) 
Heartbeat CPU 0 instructions: 139000003 cycles: 170909998 heartbeat IPC: 0.613481 cumulative IPC: 0.615124 (Simulation time: 1 hr 26 min 40 sec) 
Heartbeat CPU 0 instructions: 140000000 cycles: 172553914 heartbeat IPC: 0.608302 cumulative IPC: 0.615047 (Simulation time: 1 hr 26 min 54 sec) 
Heartbeat CPU 0 instructions: 141000003 cycles: 174168557 heartbeat IPC: 0.619334 cumulative IPC: 0.615094 (Simulation time: 1 hr 27 min 8 sec) 
Heartbeat CPU 0 instructions: 142000001 cycles: 175802736 heartbeat IPC: 0.611927 cumulative IPC: 0.615059 (Simulation time: 1 hr 27 min 22 sec) 
Heartbeat CPU 0 instructions: 143000001 cycles: 177424082 heartbeat IPC: 0.616772 cumulative IPC: 0.615077 (Simulation time: 1 hr 27 min 35 sec) 
Heartbeat CPU 0 instructions: 144000000 cycles: 179040119 heartbeat IPC: 0.618797 cumulative IPC: 0.615117 (Simulation time: 1 hr 27 min 48 sec) 
Heartbeat CPU 0 instructions: 145000003 cycles: 180666380 heartbeat IPC: 0.614909 cumulative IPC: 0.615115 (Simulation time: 1 hr 28 min 1 sec) 
Heartbeat CPU 0 instructions: 146000000 cycles: 182288612 heartbeat IPC: 0.616433 cumulative IPC: 0.615128 (Simulation time: 1 hr 28 min 13 sec) 
Heartbeat CPU 0 instructions: 147000001 cycles: 183955890 heartbeat IPC: 0.599781 cumulative IPC: 0.614966 (Simulation time: 1 hr 28 min 25 sec) 
Heartbeat CPU 0 instructions: 148000000 cycles: 185588910 heartbeat IPC: 0.612362 cumulative IPC: 0.614939 (Simulation time: 1 hr 28 min 36 sec) 
Heartbeat CPU 0 instructions: 149000002 cycles: 187226407 heartbeat IPC: 0.610689 cumulative IPC: 0.614896 (Simulation time: 1 hr 28 min 48 sec) 
Heartbeat CPU 0 instructions: 150000000 cycles: 188887041 heartbeat IPC: 0.602178 cumulative IPC: 0.614766 (Simulation time: 1 hr 28 min 59 sec) 
Finished CPU 0 instructions: 100000003 cycles: 162663416 cummulative IPC: 0.614766 (Simulation time: 1 hr 28 min 59 sec) 

ChampSim completed all CPUs

Region of Interest Statistics

CPU 0 cummulative IPC: 0.614766 instructions: 100000003 cycles: 162663416
LLC TOTAL     ACCESS:    5406446  HIT:     139065  MISS:    5267381
LLC LOAD      ACCESS:     222883  HIT:      12462  MISS:     210421
LLC RFO       ACCESS:          0  HIT:          0  MISS:          0
LLC PREFETCH  ACCESS:    3748524  HIT:      16229  MISS:    3732295
LLC WRITEBACK ACCESS:    1435039  HIT:     110374  MISS:    1324665
OPTgen accesses: 41300
OPTgen hits: 5406
OPTgen hit rate: 13.0896


