
*** ChampSim Multicore Out-of-Order Simulator ***

Warmup Instructions: 50000000
Simulation Instructions: 100000000
Configuration: 2
Number of CPUs: 1
LLC sets: 2048
LLC ways: 16
Off-chip DRAM Channels: 1 Width: 64-bit Data Rate: 1600 MT/s

CPU 0 runs /datasets/cs240c-wi22-a00-public/data/Assignment2-gz/mcf_250B.trace.gz
CPU 0 L1D next line prefetcher
CPU 0 L2C IP-based stride prefetcher
Initialize Hawkeye state
Heartbeat CPU 0 instructions: 1000000 cycles: 531288 heartbeat IPC: 1.88222 cumulative IPC: 1.88222 (Simulation time: 0 hr 0 min 42 sec) 
Heartbeat CPU 0 instructions: 2000003 cycles: 1044582 heartbeat IPC: 1.94821 cumulative IPC: 1.91464 (Simulation time: 0 hr 1 min 30 sec) 
Heartbeat CPU 0 instructions: 3000002 cycles: 1541457 heartbeat IPC: 2.01258 cumulative IPC: 1.94621 (Simulation time: 0 hr 2 min 20 sec) 
Heartbeat CPU 0 instructions: 4000000 cycles: 2053136 heartbeat IPC: 1.95435 cumulative IPC: 1.94824 (Simulation time: 0 hr 3 min 4 sec) 
Heartbeat CPU 0 instructions: 5000002 cycles: 2559572 heartbeat IPC: 1.97459 cumulative IPC: 1.95345 (Simulation time: 0 hr 3 min 49 sec) 
Heartbeat CPU 0 instructions: 6000002 cycles: 3065169 heartbeat IPC: 1.97786 cumulative IPC: 1.95748 (Simulation time: 0 hr 4 min 34 sec) 
Heartbeat CPU 0 instructions: 7000002 cycles: 3606267 heartbeat IPC: 1.84809 cumulative IPC: 1.94107 (Simulation time: 0 hr 5 min 23 sec) 
Heartbeat CPU 0 instructions: 8000000 cycles: 4121305 heartbeat IPC: 1.9416 cumulative IPC: 1.94113 (Simulation time: 0 hr 6 min 13 sec) 
Heartbeat CPU 0 instructions: 9000002 cycles: 4635674 heartbeat IPC: 1.94413 cumulative IPC: 1.94147 (Simulation time: 0 hr 7 min 0 sec) 
Heartbeat CPU 0 instructions: 10000000 cycles: 5147055 heartbeat IPC: 1.95549 cumulative IPC: 1.94286 (Simulation time: 0 hr 7 min 46 sec) 
Heartbeat CPU 0 instructions: 11000001 cycles: 5659600 heartbeat IPC: 1.95105 cumulative IPC: 1.9436 (Simulation time: 0 hr 8 min 33 sec) 
Heartbeat CPU 0 instructions: 12000000 cycles: 6193097 heartbeat IPC: 1.87442 cumulative IPC: 1.93764 (Simulation time: 0 hr 9 min 15 sec) 
Heartbeat CPU 0 instructions: 13000001 cycles: 6713001 heartbeat IPC: 1.92343 cumulative IPC: 1.93654 (Simulation time: 0 hr 10 min 2 sec) 
Heartbeat CPU 0 instructions: 14000003 cycles: 7225926 heartbeat IPC: 1.94961 cumulative IPC: 1.93747 (Simulation time: 0 hr 10 min 52 sec) 
Heartbeat CPU 0 instructions: 15000002 cycles: 7739035 heartbeat IPC: 1.9489 cumulative IPC: 1.93823 (Simulation time: 0 hr 11 min 46 sec) 
Heartbeat CPU 0 instructions: 16000000 cycles: 8248400 heartbeat IPC: 1.96322 cumulative IPC: 1.93977 (Simulation time: 0 hr 12 min 34 sec) 
Heartbeat CPU 0 instructions: 17000000 cycles: 8760329 heartbeat IPC: 1.9534 cumulative IPC: 1.94057 (Simulation time: 0 hr 13 min 21 sec) 
Heartbeat CPU 0 instructions: 18000002 cycles: 9269887 heartbeat IPC: 1.96249 cumulative IPC: 1.94177 (Simulation time: 0 hr 14 min 6 sec) 
Heartbeat CPU 0 instructions: 19000001 cycles: 9781742 heartbeat IPC: 1.95368 cumulative IPC: 1.94239 (Simulation time: 0 hr 14 min 50 sec) 
Heartbeat CPU 0 instructions: 20000000 cycles: 10292739 heartbeat IPC: 1.95696 cumulative IPC: 1.94312 (Simulation time: 0 hr 15 min 37 sec) 
Heartbeat CPU 0 instructions: 21000001 cycles: 10799961 heartbeat IPC: 1.97153 cumulative IPC: 1.94445 (Simulation time: 0 hr 16 min 26 sec) 
Heartbeat CPU 0 instructions: 22000000 cycles: 11304648 heartbeat IPC: 1.98142 cumulative IPC: 1.9461 (Simulation time: 0 hr 17 min 14 sec) 
Heartbeat CPU 0 instructions: 23000003 cycles: 11813608 heartbeat IPC: 1.9648 cumulative IPC: 1.94691 (Simulation time: 0 hr 17 min 59 sec) 
Heartbeat CPU 0 instructions: 24000000 cycles: 12320668 heartbeat IPC: 1.97215 cumulative IPC: 1.94795 (Simulation time: 0 hr 18 min 46 sec) 
Heartbeat CPU 0 instructions: 25000002 cycles: 12830040 heartbeat IPC: 1.96321 cumulative IPC: 1.94855 (Simulation time: 0 hr 19 min 34 sec) 
Heartbeat CPU 0 instructions: 26000000 cycles: 13343749 heartbeat IPC: 1.94662 cumulative IPC: 1.94848 (Simulation time: 0 hr 20 min 19 sec) 
Heartbeat CPU 0 instructions: 27000003 cycles: 13858164 heartbeat IPC: 1.94396 cumulative IPC: 1.94831 (Simulation time: 0 hr 21 min 4 sec) 
Heartbeat CPU 0 instructions: 28000000 cycles: 14372614 heartbeat IPC: 1.94382 cumulative IPC: 1.94815 (Simulation time: 0 hr 21 min 58 sec) 
Heartbeat CPU 0 instructions: 29000000 cycles: 14887422 heartbeat IPC: 1.94247 cumulative IPC: 1.94795 (Simulation time: 0 hr 22 min 46 sec) 
Heartbeat CPU 0 instructions: 30000000 cycles: 15401645 heartbeat IPC: 1.94468 cumulative IPC: 1.94784 (Simulation time: 0 hr 23 min 31 sec) 
Heartbeat CPU 0 instructions: 31000000 cycles: 15915152 heartbeat IPC: 1.94739 cumulative IPC: 1.94783 (Simulation time: 0 hr 24 min 17 sec) 
Heartbeat CPU 0 instructions: 32000000 cycles: 16423366 heartbeat IPC: 1.96768 cumulative IPC: 1.94844 (Simulation time: 0 hr 25 min 6 sec) 
Heartbeat CPU 0 instructions: 33000002 cycles: 16936307 heartbeat IPC: 1.94955 cumulative IPC: 1.94848 (Simulation time: 0 hr 25 min 56 sec) 
Heartbeat CPU 0 instructions: 34000000 cycles: 17450279 heartbeat IPC: 1.94563 cumulative IPC: 1.94839 (Simulation time: 0 hr 26 min 43 sec) 
Heartbeat CPU 0 instructions: 35000000 cycles: 17975528 heartbeat IPC: 1.90386 cumulative IPC: 1.94709 (Simulation time: 0 hr 27 min 27 sec) 
Heartbeat CPU 0 instructions: 36000000 cycles: 18504672 heartbeat IPC: 1.88984 cumulative IPC: 1.94545 (Simulation time: 0 hr 28 min 12 sec) 
Heartbeat CPU 0 instructions: 37000002 cycles: 19017739 heartbeat IPC: 1.94907 cumulative IPC: 1.94555 (Simulation time: 0 hr 29 min 1 sec) 
Heartbeat CPU 0 instructions: 38000000 cycles: 19530891 heartbeat IPC: 1.94874 cumulative IPC: 1.94564 (Simulation time: 0 hr 29 min 51 sec) 
Heartbeat CPU 0 instructions: 39000002 cycles: 20044290 heartbeat IPC: 1.94781 cumulative IPC: 1.94569 (Simulation time: 0 hr 30 min 36 sec) 
Heartbeat CPU 0 instructions: 40000000 cycles: 20558819 heartbeat IPC: 1.94352 cumulative IPC: 1.94564 (Simulation time: 0 hr 31 min 21 sec) 
Heartbeat CPU 0 instructions: 41000000 cycles: 21073351 heartbeat IPC: 1.94351 cumulative IPC: 1.94559 (Simulation time: 0 hr 32 min 5 sec) 
Heartbeat CPU 0 instructions: 42000001 cycles: 21588579 heartbeat IPC: 1.94089 cumulative IPC: 1.94547 (Simulation time: 0 hr 32 min 52 sec) 
Heartbeat CPU 0 instructions: 43000000 cycles: 22101498 heartbeat IPC: 1.94962 cumulative IPC: 1.94557 (Simulation time: 0 hr 33 min 42 sec) 
Heartbeat CPU 0 instructions: 44000000 cycles: 22614466 heartbeat IPC: 1.94944 cumulative IPC: 1.94566 (Simulation time: 0 hr 34 min 32 sec) 
Heartbeat CPU 0 instructions: 45000001 cycles: 23128387 heartbeat IPC: 1.94583 cumulative IPC: 1.94566 (Simulation time: 0 hr 35 min 16 sec) 
Heartbeat CPU 0 instructions: 46000002 cycles: 23642382 heartbeat IPC: 1.94555 cumulative IPC: 1.94566 (Simulation time: 0 hr 35 min 59 sec) 
Heartbeat CPU 0 instructions: 47000002 cycles: 24156667 heartbeat IPC: 1.94445 cumulative IPC: 1.94563 (Simulation time: 0 hr 36 min 44 sec) 
Heartbeat CPU 0 instructions: 48000000 cycles: 24670643 heartbeat IPC: 1.94561 cumulative IPC: 1.94563 (Simulation time: 0 hr 37 min 29 sec) 
Heartbeat CPU 0 instructions: 49000000 cycles: 25184500 heartbeat IPC: 1.94607 cumulative IPC: 1.94564 (Simulation time: 0 hr 38 min 15 sec) 
Heartbeat CPU 0 instructions: 50000002 cycles: 25697941 heartbeat IPC: 1.94765 cumulative IPC: 1.94568 (Simulation time: 0 hr 39 min 5 sec) 

Warmup complete CPU 0 instructions: 50000002 cycles: 25697941 (Simulation time: 0 hr 39 min 5 sec) 

Heartbeat CPU 0 instructions: 51000002 cycles: 35190434 heartbeat IPC: 0.105346 cumulative IPC: 0.105346 (Simulation time: 0 hr 40 min 10 sec) 
Heartbeat CPU 0 instructions: 52000000 cycles: 44349371 heartbeat IPC: 0.109183 cumulative IPC: 0.10723 (Simulation time: 0 hr 41 min 13 sec) 
Heartbeat CPU 0 instructions: 53000000 cycles: 53952198 heartbeat IPC: 0.104136 cumulative IPC: 0.106179 (Simulation time: 0 hr 42 min 20 sec) 
Heartbeat CPU 0 instructions: 54000000 cycles: 63107374 heartbeat IPC: 0.109228 cumulative IPC: 0.106925 (Simulation time: 0 hr 43 min 22 sec) 
Heartbeat CPU 0 instructions: 55000000 cycles: 72327034 heartbeat IPC: 0.108464 cumulative IPC: 0.107229 (Simulation time: 0 hr 44 min 25 sec) 
Heartbeat CPU 0 instructions: 56000000 cycles: 81905709 heartbeat IPC: 0.104399 cumulative IPC: 0.106747 (Simulation time: 0 hr 45 min 24 sec) 
Heartbeat CPU 0 instructions: 57000000 cycles: 91687543 heartbeat IPC: 0.10223 cumulative IPC: 0.106077 (Simulation time: 0 hr 46 min 27 sec) 
Heartbeat CPU 0 instructions: 58000000 cycles: 100939974 heartbeat IPC: 0.10808 cumulative IPC: 0.106324 (Simulation time: 0 hr 47 min 31 sec) 
Heartbeat CPU 0 instructions: 59000001 cycles: 110095565 heartbeat IPC: 0.109223 cumulative IPC: 0.106638 (Simulation time: 0 hr 48 min 33 sec) 
Heartbeat CPU 0 instructions: 60000000 cycles: 119474823 heartbeat IPC: 0.106618 cumulative IPC: 0.106636 (Simulation time: 0 hr 49 min 40 sec) 
Heartbeat CPU 0 instructions: 61000001 cycles: 128707589 heartbeat IPC: 0.10831 cumulative IPC: 0.106786 (Simulation time: 0 hr 50 min 53 sec) 
Heartbeat CPU 0 instructions: 62000000 cycles: 136358410 heartbeat IPC: 0.130705 cumulative IPC: 0.10844 (Simulation time: 0 hr 51 min 55 sec) 
Heartbeat CPU 0 instructions: 63000001 cycles: 145073541 heartbeat IPC: 0.114743 cumulative IPC: 0.1089 (Simulation time: 0 hr 53 min 1 sec) 
Heartbeat CPU 0 instructions: 64000000 cycles: 154285838 heartbeat IPC: 0.10855 cumulative IPC: 0.108875 (Simulation time: 0 hr 54 min 10 sec) 
Heartbeat CPU 0 instructions: 65000000 cycles: 163040413 heartbeat IPC: 0.114226 cumulative IPC: 0.109216 (Simulation time: 0 hr 55 min 10 sec) 
Heartbeat CPU 0 instructions: 66000000 cycles: 172303744 heartbeat IPC: 0.107953 cumulative IPC: 0.109136 (Simulation time: 0 hr 56 min 20 sec) 
Heartbeat CPU 0 instructions: 67000000 cycles: 181412654 heartbeat IPC: 0.109783 cumulative IPC: 0.109174 (Simulation time: 0 hr 57 min 27 sec) 
Heartbeat CPU 0 instructions: 68000000 cycles: 190606733 heartbeat IPC: 0.108766 cumulative IPC: 0.109151 (Simulation time: 0 hr 58 min 34 sec) 
Heartbeat CPU 0 instructions: 69000000 cycles: 199916016 heartbeat IPC: 0.10742 cumulative IPC: 0.109059 (Simulation time: 0 hr 59 min 36 sec) 
Heartbeat CPU 0 instructions: 70000000 cycles: 209007117 heartbeat IPC: 0.109998 cumulative IPC: 0.109105 (Simulation time: 1 hr 0 min 46 sec) 
Heartbeat CPU 0 instructions: 71000000 cycles: 217998235 heartbeat IPC: 0.111221 cumulative IPC: 0.109204 (Simulation time: 1 hr 1 min 50 sec) 
Heartbeat CPU 0 instructions: 72000000 cycles: 227159266 heartbeat IPC: 0.109158 cumulative IPC: 0.109202 (Simulation time: 1 hr 2 min 56 sec) 
Heartbeat CPU 0 instructions: 73000001 cycles: 236408665 heartbeat IPC: 0.108115 cumulative IPC: 0.109154 (Simulation time: 1 hr 4 min 2 sec) 
Heartbeat CPU 0 instructions: 74000001 cycles: 245572495 heartbeat IPC: 0.109125 cumulative IPC: 0.109153 (Simulation time: 1 hr 5 min 3 sec) 
Heartbeat CPU 0 instructions: 75000002 cycles: 254512169 heartbeat IPC: 0.111861 cumulative IPC: 0.109259 (Simulation time: 1 hr 6 min 2 sec) 
Heartbeat CPU 0 instructions: 76000000 cycles: 263913107 heartbeat IPC: 0.106372 cumulative IPC: 0.109145 (Simulation time: 1 hr 7 min 3 sec) 
Heartbeat CPU 0 instructions: 77000003 cycles: 278079434 heartbeat IPC: 0.0705901 cumulative IPC: 0.106981 (Simulation time: 1 hr 8 min 17 sec) 
Heartbeat CPU 0 instructions: 78000000 cycles: 288228768 heartbeat IPC: 0.0985283 cumulative IPC: 0.106654 (Simulation time: 1 hr 9 min 20 sec) 
Heartbeat CPU 0 instructions: 79000000 cycles: 297328481 heartbeat IPC: 0.109894 cumulative IPC: 0.106763 (Simulation time: 1 hr 10 min 19 sec) 
Heartbeat CPU 0 instructions: 80000000 cycles: 306153799 heartbeat IPC: 0.11331 cumulative IPC: 0.106969 (Simulation time: 1 hr 11 min 16 sec) 
Heartbeat CPU 0 instructions: 81000001 cycles: 314917124 heartbeat IPC: 0.114112 cumulative IPC: 0.107185 (Simulation time: 1 hr 12 min 5 sec) 
Heartbeat CPU 0 instructions: 82000001 cycles: 323157742 heartbeat IPC: 0.12135 cumulative IPC: 0.107578 (Simulation time: 1 hr 12 min 51 sec) 
Heartbeat CPU 0 instructions: 83000002 cycles: 330710581 heartbeat IPC: 0.132401 cumulative IPC: 0.108192 (Simulation time: 1 hr 13 min 35 sec) 
Heartbeat CPU 0 instructions: 84000000 cycles: 338174679 heartbeat IPC: 0.133974 cumulative IPC: 0.108808 (Simulation time: 1 hr 14 min 16 sec) 
Heartbeat CPU 0 instructions: 85000000 cycles: 346188022 heartbeat IPC: 0.124792 cumulative IPC: 0.109208 (Simulation time: 1 hr 14 min 59 sec) 
Heartbeat CPU 0 instructions: 86000001 cycles: 353976248 heartbeat IPC: 0.128399 cumulative IPC: 0.109663 (Simulation time: 1 hr 15 min 42 sec) 
Heartbeat CPU 0 instructions: 87000001 cycles: 367372678 heartbeat IPC: 0.0746468 cumulative IPC: 0.10829 (Simulation time: 1 hr 16 min 37 sec) 
Heartbeat CPU 0 instructions: 88000000 cycles: 377575327 heartbeat IPC: 0.0980137 cumulative IPC: 0.107992 (Simulation time: 1 hr 17 min 21 sec) 
Heartbeat CPU 0 instructions: 89000001 cycles: 385770767 heartbeat IPC: 0.122019 cumulative IPC: 0.108311 (Simulation time: 1 hr 17 min 59 sec) 
Heartbeat CPU 0 instructions: 90000001 cycles: 392595721 heartbeat IPC: 0.146521 cumulative IPC: 0.109022 (Simulation time: 1 hr 18 min 34 sec) 
Heartbeat CPU 0 instructions: 91000000 cycles: 402699541 heartbeat IPC: 0.0989724 cumulative IPC: 0.108753 (Simulation time: 1 hr 19 min 12 sec) 
Heartbeat CPU 0 instructions: 92000000 cycles: 411067828 heartbeat IPC: 0.119499 cumulative IPC: 0.108986 (Simulation time: 1 hr 19 min 49 sec) 
Heartbeat CPU 0 instructions: 93000000 cycles: 420533765 heartbeat IPC: 0.105642 cumulative IPC: 0.108906 (Simulation time: 1 hr 20 min 25 sec) 
Heartbeat CPU 0 instructions: 94000000 cycles: 429773302 heartbeat IPC: 0.108231 cumulative IPC: 0.108891 (Simulation time: 1 hr 21 min 1 sec) 
Heartbeat CPU 0 instructions: 95000000 cycles: 438848294 heartbeat IPC: 0.110193 cumulative IPC: 0.108919 (Simulation time: 1 hr 21 min 36 sec) 
Heartbeat CPU 0 instructions: 96000000 cycles: 448299556 heartbeat IPC: 0.105806 cumulative IPC: 0.10885 (Simulation time: 1 hr 22 min 11 sec) 
Heartbeat CPU 0 instructions: 97000000 cycles: 457908845 heartbeat IPC: 0.104066 cumulative IPC: 0.108743 (Simulation time: 1 hr 22 min 46 sec) 
Heartbeat CPU 0 instructions: 98000000 cycles: 467304030 heartbeat IPC: 0.106437 cumulative IPC: 0.108694 (Simulation time: 1 hr 23 min 20 sec) 
Heartbeat CPU 0 instructions: 99000000 cycles: 476734856 heartbeat IPC: 0.106035 cumulative IPC: 0.108639 (Simulation time: 1 hr 23 min 52 sec) 
Heartbeat CPU 0 instructions: 100000000 cycles: 486315935 heartbeat IPC: 0.104372 cumulative IPC: 0.10855 (Simulation time: 1 hr 24 min 20 sec) 
Heartbeat CPU 0 instructions: 101000002 cycles: 495692543 heartbeat IPC: 0.106649 cumulative IPC: 0.108512 (Simulation time: 1 hr 24 min 46 sec) 
Heartbeat CPU 0 instructions: 102000002 cycles: 505292883 heartbeat IPC: 0.104163 cumulative IPC: 0.108425 (Simulation time: 1 hr 25 min 13 sec) 
Heartbeat CPU 0 instructions: 103000000 cycles: 515226437 heartbeat IPC: 0.100669 cumulative IPC: 0.108267 (Simulation time: 1 hr 25 min 37 sec) 
Heartbeat CPU 0 instructions: 104000000 cycles: 525043865 heartbeat IPC: 0.10186 cumulative IPC: 0.108141 (Simulation time: 1 hr 26 min 0 sec) 
Heartbeat CPU 0 instructions: 105000000 cycles: 534422593 heartbeat IPC: 0.106624 cumulative IPC: 0.108113 (Simulation time: 1 hr 26 min 21 sec) 
Heartbeat CPU 0 instructions: 106000003 cycles: 543846749 heartbeat IPC: 0.106111 cumulative IPC: 0.108077 (Simulation time: 1 hr 26 min 42 sec) 
Heartbeat CPU 0 instructions: 107000003 cycles: 553279474 heartbeat IPC: 0.106014 cumulative IPC: 0.10804 (Simulation time: 1 hr 27 min 1 sec) 
Heartbeat CPU 0 instructions: 108000000 cycles: 562431031 heartbeat IPC: 0.109271 cumulative IPC: 0.108061 (Simulation time: 1 hr 27 min 19 sec) 
Heartbeat CPU 0 instructions: 109000000 cycles: 571578651 heartbeat IPC: 0.109318 cumulative IPC: 0.108082 (Simulation time: 1 hr 27 min 36 sec) 
Heartbeat CPU 0 instructions: 110000000 cycles: 581355361 heartbeat IPC: 0.102284 cumulative IPC: 0.10798 (Simulation time: 1 hr 27 min 53 sec) 
Heartbeat CPU 0 instructions: 111000000 cycles: 590465238 heartbeat IPC: 0.109771 cumulative IPC: 0.108009 (Simulation time: 1 hr 28 min 10 sec) 
Heartbeat CPU 0 instructions: 112000000 cycles: 599576805 heartbeat IPC: 0.109751 cumulative IPC: 0.108037 (Simulation time: 1 hr 28 min 27 sec) 
Heartbeat CPU 0 instructions: 113000001 cycles: 608975208 heartbeat IPC: 0.106401 cumulative IPC: 0.10801 (Simulation time: 1 hr 28 min 43 sec) 
Heartbeat CPU 0 instructions: 114000000 cycles: 618602098 heartbeat IPC: 0.103876 cumulative IPC: 0.107943 (Simulation time: 1 hr 28 min 58 sec) 
Heartbeat CPU 0 instructions: 115000000 cycles: 627913744 heartbeat IPC: 0.107392 cumulative IPC: 0.107935 (Simulation time: 1 hr 29 min 11 sec) 
Heartbeat CPU 0 instructions: 116000000 cycles: 637099020 heartbeat IPC: 0.10887 cumulative IPC: 0.107949 (Simulation time: 1 hr 29 min 23 sec) 
Heartbeat CPU 0 instructions: 117000001 cycles: 646601802 heartbeat IPC: 0.105232 cumulative IPC: 0.107907 (Simulation time: 1 hr 29 min 34 sec) 
Heartbeat CPU 0 instructions: 118000000 cycles: 655848600 heartbeat IPC: 0.108145 cumulative IPC: 0.107911 (Simulation time: 1 hr 29 min 45 sec) 
Heartbeat CPU 0 instructions: 119000000 cycles: 664985524 heartbeat IPC: 0.109446 cumulative IPC: 0.107933 (Simulation time: 1 hr 29 min 56 sec) 
Heartbeat CPU 0 instructions: 120000000 cycles: 674050574 heartbeat IPC: 0.110314 cumulative IPC: 0.107966 (Simulation time: 1 hr 30 min 8 sec) 
Heartbeat CPU 0 instructions: 121000000 cycles: 683432897 heartbeat IPC: 0.106583 cumulative IPC: 0.107946 (Simulation time: 1 hr 30 min 18 sec) 
Heartbeat CPU 0 instructions: 122000001 cycles: 692775679 heartbeat IPC: 0.107035 cumulative IPC: 0.107933 (Simulation time: 1 hr 30 min 30 sec) 
Heartbeat CPU 0 instructions: 123000002 cycles: 701836044 heartbeat IPC: 0.110371 cumulative IPC: 0.107966 (Simulation time: 1 hr 30 min 41 sec) 
Heartbeat CPU 0 instructions: 124000000 cycles: 711372059 heartbeat IPC: 0.104865 cumulative IPC: 0.107923 (Simulation time: 1 hr 30 min 52 sec) 
Heartbeat CPU 0 instructions: 125000001 cycles: 720975494 heartbeat IPC: 0.10413 cumulative IPC: 0.107871 (Simulation time: 1 hr 31 min 1 sec) 
Heartbeat CPU 0 instructions: 126000002 cycles: 730251925 heartbeat IPC: 0.1078 cumulative IPC: 0.10787 (Simulation time: 1 hr 31 min 9 sec) 
Heartbeat CPU 0 instructions: 127000000 cycles: 739553178 heartbeat IPC: 0.107512 cumulative IPC: 0.107865 (Simulation time: 1 hr 31 min 18 sec) 
Heartbeat CPU 0 instructions: 128000000 cycles: 749194390 heartbeat IPC: 0.103721 cumulative IPC: 0.10781 (Simulation time: 1 hr 31 min 27 sec) 
Heartbeat CPU 0 instructions: 129000001 cycles: 758752183 heartbeat IPC: 0.104627 cumulative IPC: 0.107768 (Simulation time: 1 hr 31 min 36 sec) 
Heartbeat CPU 0 instructions: 130000000 cycles: 768203789 heartbeat IPC: 0.105802 cumulative IPC: 0.107743 (Simulation time: 1 hr 31 min 44 sec) 
Heartbeat CPU 0 instructions: 131000000 cycles: 777695223 heartbeat IPC: 0.105358 cumulative IPC: 0.107713 (Simulation time: 1 hr 31 min 53 sec) 
Heartbeat CPU 0 instructions: 132000000 cycles: 787136883 heartbeat IPC: 0.105914 cumulative IPC: 0.107691 (Simulation time: 1 hr 32 min 1 sec) 
Heartbeat CPU 0 instructions: 133000000 cycles: 796142686 heartbeat IPC: 0.11104 cumulative IPC: 0.10773 (Simulation time: 1 hr 32 min 9 sec) 
Heartbeat CPU 0 instructions: 134000002 cycles: 805263683 heartbeat IPC: 0.109637 cumulative IPC: 0.107752 (Simulation time: 1 hr 32 min 17 sec) 
Heartbeat CPU 0 instructions: 135000002 cycles: 814740283 heartbeat IPC: 0.105523 cumulative IPC: 0.107726 (Simulation time: 1 hr 32 min 25 sec) 
Heartbeat CPU 0 instructions: 136000000 cycles: 824073386 heartbeat IPC: 0.107145 cumulative IPC: 0.107719 (Simulation time: 1 hr 32 min 33 sec) 
Heartbeat CPU 0 instructions: 137000000 cycles: 833284384 heartbeat IPC: 0.108566 cumulative IPC: 0.107728 (Simulation time: 1 hr 32 min 40 sec) 
Heartbeat CPU 0 instructions: 138000000 cycles: 842435992 heartbeat IPC: 0.10927 cumulative IPC: 0.107746 (Simulation time: 1 hr 32 min 48 sec) 
Heartbeat CPU 0 instructions: 139000001 cycles: 851767019 heartbeat IPC: 0.107169 cumulative IPC: 0.107739 (Simulation time: 1 hr 32 min 55 sec) 
Heartbeat CPU 0 instructions: 140000000 cycles: 860982977 heartbeat IPC: 0.108507 cumulative IPC: 0.107748 (Simulation time: 1 hr 33 min 2 sec) 
Heartbeat CPU 0 instructions: 141000002 cycles: 874624333 heartbeat IPC: 0.0733066 cumulative IPC: 0.107194 (Simulation time: 1 hr 33 min 11 sec) 
Heartbeat CPU 0 instructions: 142000002 cycles: 885105838 heartbeat IPC: 0.0954061 cumulative IPC: 0.10705 (Simulation time: 1 hr 33 min 19 sec) 
Heartbeat CPU 0 instructions: 143000001 cycles: 894276483 heartbeat IPC: 0.109043 cumulative IPC: 0.107071 (Simulation time: 1 hr 33 min 27 sec) 
Heartbeat CPU 0 instructions: 144000000 cycles: 903137852 heartbeat IPC: 0.112849 cumulative IPC: 0.10713 (Simulation time: 1 hr 33 min 34 sec) 
Heartbeat CPU 0 instructions: 145000000 cycles: 912317360 heartbeat IPC: 0.108938 cumulative IPC: 0.107149 (Simulation time: 1 hr 33 min 42 sec) 
Heartbeat CPU 0 instructions: 146000001 cycles: 921401973 heartbeat IPC: 0.110076 cumulative IPC: 0.107178 (Simulation time: 1 hr 33 min 49 sec) 
Heartbeat CPU 0 instructions: 147000001 cycles: 930247459 heartbeat IPC: 0.113052 cumulative IPC: 0.107236 (Simulation time: 1 hr 33 min 55 sec) 
Heartbeat CPU 0 instructions: 148000000 cycles: 939015710 heartbeat IPC: 0.114048 cumulative IPC: 0.107301 (Simulation time: 1 hr 34 min 1 sec) 
Heartbeat CPU 0 instructions: 149000001 cycles: 947264502 heartbeat IPC: 0.12123 cumulative IPC: 0.107426 (Simulation time: 1 hr 34 min 7 sec) 
Heartbeat CPU 0 instructions: 150000001 cycles: 956070163 heartbeat IPC: 0.113563 cumulative IPC: 0.107484 (Simulation time: 1 hr 34 min 13 sec) 
Finished CPU 0 instructions: 100000001 cycles: 930372271 cummulative IPC: 0.107484 (Simulation time: 1 hr 34 min 13 sec) 

ChampSim completed all CPUs

Region of Interest Statistics

CPU 0 cummulative IPC: 0.107484 instructions: 100000001 cycles: 930372271
LLC TOTAL     ACCESS:   27039658  HIT:   14657133  MISS:   12382525
LLC LOAD      ACCESS:   11746826  HIT:    8660947  MISS:    3085879
LLC RFO       ACCESS:      20880  HIT:       6997  MISS:      13883
LLC PREFETCH  ACCESS:   14998538  HIT:    5798839  MISS:    9199699
LLC WRITEBACK ACCESS:     273414  HIT:     190350  MISS:      83064
OPTgen accesses: 1130664
OPTgen hits: 787492
OPTgen hit rate: 69.6486


