
*** ChampSim Multicore Out-of-Order Simulator ***

Warmup Instructions: 50000000
Simulation Instructions: 100000000
Configuration: 2
Number of CPUs: 1
LLC sets: 2048
LLC ways: 16
Off-chip DRAM Channels: 1 Width: 64-bit Data Rate: 1600 MT/s

CPU 0 runs /datasets/cs240c-wi22-a00-public/data/Assignment2-gz/astar_23B.trace.gz
CPU 0 L1D next line prefetcher
CPU 0 L2C IP-based stride prefetcher
Initialize Hawkeye state
Heartbeat CPU 0 instructions: 1000000 cycles: 359879 heartbeat IPC: 2.77871 cumulative IPC: 2.77871 (Simulation time: 0 hr 0 min 53 sec) 
Heartbeat CPU 0 instructions: 2000001 cycles: 720526 heartbeat IPC: 2.7728 cumulative IPC: 2.77575 (Simulation time: 0 hr 1 min 51 sec) 
Heartbeat CPU 0 instructions: 3000000 cycles: 1079273 heartbeat IPC: 2.78748 cumulative IPC: 2.77965 (Simulation time: 0 hr 2 min 47 sec) 
Heartbeat CPU 0 instructions: 4000000 cycles: 1440527 heartbeat IPC: 2.76814 cumulative IPC: 2.77676 (Simulation time: 0 hr 3 min 46 sec) 
Heartbeat CPU 0 instructions: 5000000 cycles: 1802467 heartbeat IPC: 2.76289 cumulative IPC: 2.77398 (Simulation time: 0 hr 4 min 42 sec) 
Heartbeat CPU 0 instructions: 6000002 cycles: 2163938 heartbeat IPC: 2.76648 cumulative IPC: 2.77272 (Simulation time: 0 hr 5 min 41 sec) 
Heartbeat CPU 0 instructions: 7000002 cycles: 2525230 heartbeat IPC: 2.76784 cumulative IPC: 2.77203 (Simulation time: 0 hr 6 min 42 sec) 
Heartbeat CPU 0 instructions: 8000000 cycles: 2887928 heartbeat IPC: 2.75711 cumulative IPC: 2.77015 (Simulation time: 0 hr 7 min 36 sec) 
Heartbeat CPU 0 instructions: 9000000 cycles: 3250651 heartbeat IPC: 2.75692 cumulative IPC: 2.76868 (Simulation time: 0 hr 8 min 34 sec) 
Heartbeat CPU 0 instructions: 10000003 cycles: 3615275 heartbeat IPC: 2.74256 cumulative IPC: 2.76604 (Simulation time: 0 hr 9 min 31 sec) 
Heartbeat CPU 0 instructions: 11000000 cycles: 3979349 heartbeat IPC: 2.74669 cumulative IPC: 2.76427 (Simulation time: 0 hr 10 min 30 sec) 
Heartbeat CPU 0 instructions: 12000000 cycles: 4343839 heartbeat IPC: 2.74356 cumulative IPC: 2.76253 (Simulation time: 0 hr 11 min 25 sec) 
Heartbeat CPU 0 instructions: 13000001 cycles: 4706292 heartbeat IPC: 2.75898 cumulative IPC: 2.76226 (Simulation time: 0 hr 12 min 23 sec) 
Heartbeat CPU 0 instructions: 14000003 cycles: 5069126 heartbeat IPC: 2.75609 cumulative IPC: 2.76182 (Simulation time: 0 hr 13 min 17 sec) 
Heartbeat CPU 0 instructions: 15000003 cycles: 5431737 heartbeat IPC: 2.75778 cumulative IPC: 2.76155 (Simulation time: 0 hr 14 min 12 sec) 
Heartbeat CPU 0 instructions: 16000000 cycles: 5794079 heartbeat IPC: 2.75982 cumulative IPC: 2.76144 (Simulation time: 0 hr 15 min 11 sec) 
Heartbeat CPU 0 instructions: 17000000 cycles: 6155218 heartbeat IPC: 2.76902 cumulative IPC: 2.76188 (Simulation time: 0 hr 16 min 2 sec) 
Heartbeat CPU 0 instructions: 18000001 cycles: 6515401 heartbeat IPC: 2.77637 cumulative IPC: 2.76269 (Simulation time: 0 hr 17 min 1 sec) 
Heartbeat CPU 0 instructions: 19000002 cycles: 6876081 heartbeat IPC: 2.77254 cumulative IPC: 2.7632 (Simulation time: 0 hr 18 min 1 sec) 
Heartbeat CPU 0 instructions: 20000000 cycles: 7236080 heartbeat IPC: 2.77778 cumulative IPC: 2.76393 (Simulation time: 0 hr 18 min 58 sec) 
Heartbeat CPU 0 instructions: 21000001 cycles: 7596996 heartbeat IPC: 2.77073 cumulative IPC: 2.76425 (Simulation time: 0 hr 19 min 56 sec) 
Heartbeat CPU 0 instructions: 22000000 cycles: 7959016 heartbeat IPC: 2.76228 cumulative IPC: 2.76416 (Simulation time: 0 hr 20 min 53 sec) 
Heartbeat CPU 0 instructions: 23000000 cycles: 8320246 heartbeat IPC: 2.76832 cumulative IPC: 2.76434 (Simulation time: 0 hr 21 min 51 sec) 
Heartbeat CPU 0 instructions: 24000000 cycles: 8681047 heartbeat IPC: 2.77161 cumulative IPC: 2.76464 (Simulation time: 0 hr 22 min 46 sec) 
Heartbeat CPU 0 instructions: 25000001 cycles: 9041636 heartbeat IPC: 2.77324 cumulative IPC: 2.76499 (Simulation time: 0 hr 23 min 47 sec) 
Heartbeat CPU 0 instructions: 26000002 cycles: 9402745 heartbeat IPC: 2.76925 cumulative IPC: 2.76515 (Simulation time: 0 hr 24 min 45 sec) 
Heartbeat CPU 0 instructions: 27000000 cycles: 9763247 heartbeat IPC: 2.7739 cumulative IPC: 2.76547 (Simulation time: 0 hr 25 min 40 sec) 
Heartbeat CPU 0 instructions: 28000000 cycles: 10124528 heartbeat IPC: 2.76793 cumulative IPC: 2.76556 (Simulation time: 0 hr 26 min 39 sec) 
Heartbeat CPU 0 instructions: 29000000 cycles: 10486020 heartbeat IPC: 2.76631 cumulative IPC: 2.76559 (Simulation time: 0 hr 27 min 36 sec) 
Heartbeat CPU 0 instructions: 30000000 cycles: 10848182 heartbeat IPC: 2.7612 cumulative IPC: 2.76544 (Simulation time: 0 hr 28 min 36 sec) 
Heartbeat CPU 0 instructions: 31000001 cycles: 11209351 heartbeat IPC: 2.76879 cumulative IPC: 2.76555 (Simulation time: 0 hr 29 min 33 sec) 
Heartbeat CPU 0 instructions: 32000000 cycles: 11570071 heartbeat IPC: 2.77223 cumulative IPC: 2.76576 (Simulation time: 0 hr 30 min 26 sec) 
Heartbeat CPU 0 instructions: 33000002 cycles: 11930995 heartbeat IPC: 2.77067 cumulative IPC: 2.76591 (Simulation time: 0 hr 31 min 21 sec) 
Heartbeat CPU 0 instructions: 34000001 cycles: 12292619 heartbeat IPC: 2.7653 cumulative IPC: 2.76589 (Simulation time: 0 hr 32 min 20 sec) 
Heartbeat CPU 0 instructions: 35000000 cycles: 12653326 heartbeat IPC: 2.77233 cumulative IPC: 2.76607 (Simulation time: 0 hr 33 min 19 sec) 
Heartbeat CPU 0 instructions: 36000000 cycles: 13013165 heartbeat IPC: 2.77902 cumulative IPC: 2.76643 (Simulation time: 0 hr 34 min 15 sec) 
Heartbeat CPU 0 instructions: 37000000 cycles: 13372990 heartbeat IPC: 2.77913 cumulative IPC: 2.76677 (Simulation time: 0 hr 35 min 9 sec) 
Heartbeat CPU 0 instructions: 38000003 cycles: 13733040 heartbeat IPC: 2.7774 cumulative IPC: 2.76705 (Simulation time: 0 hr 36 min 6 sec) 
Heartbeat CPU 0 instructions: 39000003 cycles: 14093656 heartbeat IPC: 2.77303 cumulative IPC: 2.7672 (Simulation time: 0 hr 37 min 3 sec) 
Heartbeat CPU 0 instructions: 40000000 cycles: 14453907 heartbeat IPC: 2.77583 cumulative IPC: 2.76742 (Simulation time: 0 hr 38 min 2 sec) 
Heartbeat CPU 0 instructions: 41000002 cycles: 14814028 heartbeat IPC: 2.77685 cumulative IPC: 2.76765 (Simulation time: 0 hr 38 min 57 sec) 
Heartbeat CPU 0 instructions: 42000003 cycles: 15175840 heartbeat IPC: 2.76387 cumulative IPC: 2.76756 (Simulation time: 0 hr 39 min 52 sec) 
Heartbeat CPU 0 instructions: 43000003 cycles: 15537030 heartbeat IPC: 2.76863 cumulative IPC: 2.76758 (Simulation time: 0 hr 40 min 54 sec) 
Heartbeat CPU 0 instructions: 44000000 cycles: 15899954 heartbeat IPC: 2.75539 cumulative IPC: 2.7673 (Simulation time: 0 hr 41 min 57 sec) 
Heartbeat CPU 0 instructions: 45000002 cycles: 16264071 heartbeat IPC: 2.74638 cumulative IPC: 2.76683 (Simulation time: 0 hr 42 min 56 sec) 
Heartbeat CPU 0 instructions: 46000001 cycles: 16628097 heartbeat IPC: 2.74705 cumulative IPC: 2.7664 (Simulation time: 0 hr 43 min 53 sec) 
Heartbeat CPU 0 instructions: 47000002 cycles: 16991910 heartbeat IPC: 2.74867 cumulative IPC: 2.76602 (Simulation time: 0 hr 44 min 50 sec) 
Heartbeat CPU 0 instructions: 48000000 cycles: 17354289 heartbeat IPC: 2.75954 cumulative IPC: 2.76589 (Simulation time: 0 hr 45 min 44 sec) 
Heartbeat CPU 0 instructions: 49000000 cycles: 17716496 heartbeat IPC: 2.76085 cumulative IPC: 2.76578 (Simulation time: 0 hr 46 min 36 sec) 
Heartbeat CPU 0 instructions: 50000000 cycles: 18078305 heartbeat IPC: 2.76389 cumulative IPC: 2.76575 (Simulation time: 0 hr 47 min 32 sec) 

Warmup complete CPU 0 instructions: 50000004 cycles: 18078306 (Simulation time: 0 hr 47 min 32 sec) 

Heartbeat CPU 0 instructions: 51000001 cycles: 21808494 heartbeat IPC: 0.268083 cumulative IPC: 0.268082 (Simulation time: 0 hr 48 min 24 sec) 
Heartbeat CPU 0 instructions: 52000000 cycles: 25781018 heartbeat IPC: 0.251729 cumulative IPC: 0.259648 (Simulation time: 0 hr 49 min 23 sec) 
Heartbeat CPU 0 instructions: 53000000 cycles: 28590015 heartbeat IPC: 0.355999 cumulative IPC: 0.285396 (Simulation time: 0 hr 50 min 19 sec) 
Heartbeat CPU 0 instructions: 54000002 cycles: 31448687 heartbeat IPC: 0.349813 cumulative IPC: 0.299169 (Simulation time: 0 hr 51 min 17 sec) 
Heartbeat CPU 0 instructions: 55000002 cycles: 34262167 heartbeat IPC: 0.355432 cumulative IPC: 0.30895 (Simulation time: 0 hr 52 min 7 sec) 
Heartbeat CPU 0 instructions: 56000000 cycles: 37024952 heartbeat IPC: 0.361953 cumulative IPC: 0.316679 (Simulation time: 0 hr 52 min 59 sec) 
Heartbeat CPU 0 instructions: 57000000 cycles: 39616922 heartbeat IPC: 0.385807 cumulative IPC: 0.324997 (Simulation time: 0 hr 53 min 51 sec) 
Heartbeat CPU 0 instructions: 58000001 cycles: 42189373 heartbeat IPC: 0.388735 cumulative IPC: 0.331798 (Simulation time: 0 hr 54 min 45 sec) 
Heartbeat CPU 0 instructions: 59000000 cycles: 44958547 heartbeat IPC: 0.361118 cumulative IPC: 0.334818 (Simulation time: 0 hr 55 min 40 sec) 
Heartbeat CPU 0 instructions: 60000000 cycles: 47533527 heartbeat IPC: 0.388353 cumulative IPC: 0.339498 (Simulation time: 0 hr 56 min 34 sec) 
Heartbeat CPU 0 instructions: 61000000 cycles: 50026458 heartbeat IPC: 0.401134 cumulative IPC: 0.344308 (Simulation time: 0 hr 57 min 29 sec) 
Heartbeat CPU 0 instructions: 62000003 cycles: 52495041 heartbeat IPC: 0.405092 cumulative IPC: 0.348668 (Simulation time: 0 hr 58 min 27 sec) 
Heartbeat CPU 0 instructions: 63000000 cycles: 55112787 heartbeat IPC: 0.382007 cumulative IPC: 0.351024 (Simulation time: 0 hr 59 min 21 sec) 
Heartbeat CPU 0 instructions: 64000000 cycles: 57637392 heartbeat IPC: 0.396102 cumulative IPC: 0.353901 (Simulation time: 1 hr 0 min 18 sec) 
Heartbeat CPU 0 instructions: 65000000 cycles: 60083442 heartbeat IPC: 0.408822 cumulative IPC: 0.357099 (Simulation time: 1 hr 1 min 16 sec) 
Heartbeat CPU 0 instructions: 66000000 cycles: 62546821 heartbeat IPC: 0.405946 cumulative IPC: 0.359805 (Simulation time: 1 hr 2 min 9 sec) 
Heartbeat CPU 0 instructions: 67000000 cycles: 65021369 heartbeat IPC: 0.404114 cumulative IPC: 0.362141 (Simulation time: 1 hr 3 min 6 sec) 
Heartbeat CPU 0 instructions: 68000000 cycles: 67413927 heartbeat IPC: 0.417963 cumulative IPC: 0.364848 (Simulation time: 1 hr 4 min 1 sec) 
Heartbeat CPU 0 instructions: 69000000 cycles: 69997608 heartbeat IPC: 0.387045 cumulative IPC: 0.365952 (Simulation time: 1 hr 4 min 52 sec) 
Heartbeat CPU 0 instructions: 70000000 cycles: 72537179 heartbeat IPC: 0.393767 cumulative IPC: 0.36725 (Simulation time: 1 hr 5 min 45 sec) 
Heartbeat CPU 0 instructions: 71000001 cycles: 75134098 heartbeat IPC: 0.385072 cumulative IPC: 0.368061 (Simulation time: 1 hr 6 min 38 sec) 
Heartbeat CPU 0 instructions: 72000000 cycles: 77759700 heartbeat IPC: 0.380865 cumulative IPC: 0.368624 (Simulation time: 1 hr 7 min 32 sec) 
Heartbeat CPU 0 instructions: 73000001 cycles: 80262725 heartbeat IPC: 0.399517 cumulative IPC: 0.369868 (Simulation time: 1 hr 8 min 24 sec) 
Heartbeat CPU 0 instructions: 74000002 cycles: 82510245 heartbeat IPC: 0.444935 cumulative IPC: 0.372486 (Simulation time: 1 hr 9 min 15 sec) 
Heartbeat CPU 0 instructions: 75000002 cycles: 84998910 heartbeat IPC: 0.401822 cumulative IPC: 0.373577 (Simulation time: 1 hr 10 min 1 sec) 
Heartbeat CPU 0 instructions: 76000000 cycles: 87490591 heartbeat IPC: 0.401335 cumulative IPC: 0.374573 (Simulation time: 1 hr 10 min 47 sec) 
Heartbeat CPU 0 instructions: 77000000 cycles: 90551650 heartbeat IPC: 0.326684 cumulative IPC: 0.372551 (Simulation time: 1 hr 11 min 30 sec) 
Heartbeat CPU 0 instructions: 78000003 cycles: 93566369 heartbeat IPC: 0.331707 cumulative IPC: 0.37092 (Simulation time: 1 hr 12 min 12 sec) 
Heartbeat CPU 0 instructions: 79000001 cycles: 96013301 heartbeat IPC: 0.408674 cumulative IPC: 0.372105 (Simulation time: 1 hr 12 min 51 sec) 
Heartbeat CPU 0 instructions: 80000000 cycles: 98583657 heartbeat IPC: 0.389051 cumulative IPC: 0.372646 (Simulation time: 1 hr 13 min 29 sec) 
Heartbeat CPU 0 instructions: 81000001 cycles: 101182162 heartbeat IPC: 0.384837 cumulative IPC: 0.373027 (Simulation time: 1 hr 14 min 8 sec) 
Heartbeat CPU 0 instructions: 82000002 cycles: 103724082 heartbeat IPC: 0.393404 cumulative IPC: 0.373632 (Simulation time: 1 hr 14 min 48 sec) 
Heartbeat CPU 0 instructions: 83000002 cycles: 106155377 heartbeat IPC: 0.411303 cumulative IPC: 0.374672 (Simulation time: 1 hr 15 min 24 sec) 
Heartbeat CPU 0 instructions: 84000000 cycles: 108628598 heartbeat IPC: 0.40433 cumulative IPC: 0.375482 (Simulation time: 1 hr 16 min 2 sec) 
Heartbeat CPU 0 instructions: 85000000 cycles: 111125794 heartbeat IPC: 0.400449 cumulative IPC: 0.376152 (Simulation time: 1 hr 16 min 36 sec) 
Heartbeat CPU 0 instructions: 86000001 cycles: 113529360 heartbeat IPC: 0.416049 cumulative IPC: 0.377157 (Simulation time: 1 hr 17 min 6 sec) 
Heartbeat CPU 0 instructions: 87000000 cycles: 115897981 heartbeat IPC: 0.422186 cumulative IPC: 0.378247 (Simulation time: 1 hr 17 min 38 sec) 
Heartbeat CPU 0 instructions: 88000000 cycles: 118413721 heartbeat IPC: 0.397497 cumulative IPC: 0.37873 (Simulation time: 1 hr 18 min 12 sec) 
Heartbeat CPU 0 instructions: 89000000 cycles: 120954751 heartbeat IPC: 0.393541 cumulative IPC: 0.379095 (Simulation time: 1 hr 18 min 41 sec) 
Heartbeat CPU 0 instructions: 90000001 cycles: 123436880 heartbeat IPC: 0.40288 cumulative IPC: 0.379656 (Simulation time: 1 hr 19 min 5 sec) 
Heartbeat CPU 0 instructions: 91000000 cycles: 125875533 heartbeat IPC: 0.410062 cumulative IPC: 0.380344 (Simulation time: 1 hr 19 min 36 sec) 
Heartbeat CPU 0 instructions: 92000000 cycles: 128805521 heartbeat IPC: 0.341298 cumulative IPC: 0.379311 (Simulation time: 1 hr 20 min 0 sec) 
Heartbeat CPU 0 instructions: 93000000 cycles: 131335240 heartbeat IPC: 0.395301 cumulative IPC: 0.379668 (Simulation time: 1 hr 20 min 27 sec) 
Heartbeat CPU 0 instructions: 94000003 cycles: 133872208 heartbeat IPC: 0.394172 cumulative IPC: 0.379985 (Simulation time: 1 hr 20 min 51 sec) 
Heartbeat CPU 0 instructions: 95000000 cycles: 136300201 heartbeat IPC: 0.411862 cumulative IPC: 0.38064 (Simulation time: 1 hr 21 min 17 sec) 
Heartbeat CPU 0 instructions: 96000000 cycles: 138812494 heartbeat IPC: 0.398043 cumulative IPC: 0.381002 (Simulation time: 1 hr 21 min 38 sec) 
Heartbeat CPU 0 instructions: 97000000 cycles: 141241913 heartbeat IPC: 0.411621 cumulative IPC: 0.381606 (Simulation time: 1 hr 21 min 59 sec) 
Heartbeat CPU 0 instructions: 98000000 cycles: 143763755 heartbeat IPC: 0.396536 cumulative IPC: 0.381906 (Simulation time: 1 hr 22 min 24 sec) 
Heartbeat CPU 0 instructions: 99000002 cycles: 146729617 heartbeat IPC: 0.337171 cumulative IPC: 0.380874 (Simulation time: 1 hr 22 min 48 sec) 
Heartbeat CPU 0 instructions: 100000000 cycles: 149489708 heartbeat IPC: 0.362306 cumulative IPC: 0.380484 (Simulation time: 1 hr 23 min 11 sec) 
Heartbeat CPU 0 instructions: 101000000 cycles: 152423227 heartbeat IPC: 0.340888 cumulative IPC: 0.37962 (Simulation time: 1 hr 23 min 31 sec) 
Heartbeat CPU 0 instructions: 102000001 cycles: 155888558 heartbeat IPC: 0.288573 cumulative IPC: 0.37733 (Simulation time: 1 hr 23 min 50 sec) 
Heartbeat CPU 0 instructions: 103000002 cycles: 159360122 heartbeat IPC: 0.288055 cumulative IPC: 0.375137 (Simulation time: 1 hr 24 min 7 sec) 
Heartbeat CPU 0 instructions: 104000000 cycles: 162464790 heartbeat IPC: 0.322095 cumulative IPC: 0.373996 (Simulation time: 1 hr 24 min 24 sec) 
Heartbeat CPU 0 instructions: 105000001 cycles: 165267851 heartbeat IPC: 0.356753 cumulative IPC: 0.373668 (Simulation time: 1 hr 24 min 41 sec) 
Heartbeat CPU 0 instructions: 106000001 cycles: 167877401 heartbeat IPC: 0.383208 cumulative IPC: 0.373834 (Simulation time: 1 hr 24 min 56 sec) 
Heartbeat CPU 0 instructions: 107000002 cycles: 170647861 heartbeat IPC: 0.360951 cumulative IPC: 0.3736 (Simulation time: 1 hr 25 min 10 sec) 
Heartbeat CPU 0 instructions: 108000000 cycles: 173568116 heartbeat IPC: 0.342435 cumulative IPC: 0.373015 (Simulation time: 1 hr 25 min 24 sec) 
Heartbeat CPU 0 instructions: 109000003 cycles: 176622283 heartbeat IPC: 0.327422 cumulative IPC: 0.372137 (Simulation time: 1 hr 25 min 39 sec) 
Heartbeat CPU 0 instructions: 110000003 cycles: 179615260 heartbeat IPC: 0.334116 cumulative IPC: 0.371432 (Simulation time: 1 hr 25 min 53 sec) 
Heartbeat CPU 0 instructions: 111000001 cycles: 182756502 heartbeat IPC: 0.318345 cumulative IPC: 0.370419 (Simulation time: 1 hr 26 min 4 sec) 
Heartbeat CPU 0 instructions: 112000000 cycles: 185942194 heartbeat IPC: 0.313903 cumulative IPC: 0.369347 (Simulation time: 1 hr 26 min 16 sec) 
Heartbeat CPU 0 instructions: 113000001 cycles: 188819503 heartbeat IPC: 0.347547 cumulative IPC: 0.368979 (Simulation time: 1 hr 26 min 28 sec) 
Heartbeat CPU 0 instructions: 114000000 cycles: 191554955 heartbeat IPC: 0.36557 cumulative IPC: 0.368926 (Simulation time: 1 hr 26 min 42 sec) 
Heartbeat CPU 0 instructions: 115000000 cycles: 194295587 heartbeat IPC: 0.364879 cumulative IPC: 0.368863 (Simulation time: 1 hr 26 min 54 sec) 
Heartbeat CPU 0 instructions: 116000000 cycles: 196997626 heartbeat IPC: 0.370091 cumulative IPC: 0.368881 (Simulation time: 1 hr 27 min 5 sec) 
Heartbeat CPU 0 instructions: 117000001 cycles: 199347158 heartbeat IPC: 0.425617 cumulative IPC: 0.369617 (Simulation time: 1 hr 27 min 16 sec) 
Heartbeat CPU 0 instructions: 118000002 cycles: 201633909 heartbeat IPC: 0.437302 cumulative IPC: 0.37046 (Simulation time: 1 hr 27 min 27 sec) 
Heartbeat CPU 0 instructions: 119000002 cycles: 204155176 heartbeat IPC: 0.396626 cumulative IPC: 0.370814 (Simulation time: 1 hr 27 min 38 sec) 
Heartbeat CPU 0 instructions: 120000000 cycles: 206910461 heartbeat IPC: 0.362938 cumulative IPC: 0.3707 (Simulation time: 1 hr 27 min 48 sec) 
Heartbeat CPU 0 instructions: 121000002 cycles: 209616637 heartbeat IPC: 0.369526 cumulative IPC: 0.370683 (Simulation time: 1 hr 27 min 57 sec) 
Heartbeat CPU 0 instructions: 122000001 cycles: 212556644 heartbeat IPC: 0.340135 cumulative IPC: 0.370221 (Simulation time: 1 hr 28 min 6 sec) 
Heartbeat CPU 0 instructions: 123000000 cycles: 215824410 heartbeat IPC: 0.306019 cumulative IPC: 0.36916 (Simulation time: 1 hr 28 min 16 sec) 
Heartbeat CPU 0 instructions: 124000000 cycles: 219367595 heartbeat IPC: 0.282232 cumulative IPC: 0.36763 (Simulation time: 1 hr 28 min 25 sec) 
Heartbeat CPU 0 instructions: 125000002 cycles: 222915857 heartbeat IPC: 0.281829 cumulative IPC: 0.366144 (Simulation time: 1 hr 28 min 35 sec) 
Heartbeat CPU 0 instructions: 126000000 cycles: 226840120 heartbeat IPC: 0.254824 cumulative IPC: 0.364051 (Simulation time: 1 hr 28 min 44 sec) 
Heartbeat CPU 0 instructions: 127000002 cycles: 231030836 heartbeat IPC: 0.238623 cumulative IPC: 0.361583 (Simulation time: 1 hr 28 min 53 sec) 
Heartbeat CPU 0 instructions: 128000000 cycles: 235162571 heartbeat IPC: 0.242029 cumulative IPC: 0.359307 (Simulation time: 1 hr 29 min 1 sec) 
Heartbeat CPU 0 instructions: 129000003 cycles: 239357855 heartbeat IPC: 0.238364 cumulative IPC: 0.357014 (Simulation time: 1 hr 29 min 9 sec) 
Heartbeat CPU 0 instructions: 130000003 cycles: 243486424 heartbeat IPC: 0.242215 cumulative IPC: 0.354912 (Simulation time: 1 hr 29 min 16 sec) 
Heartbeat CPU 0 instructions: 131000000 cycles: 247397017 heartbeat IPC: 0.255715 cumulative IPC: 0.35322 (Simulation time: 1 hr 29 min 22 sec) 
Heartbeat CPU 0 instructions: 132000000 cycles: 251490178 heartbeat IPC: 0.24431 cumulative IPC: 0.35131 (Simulation time: 1 hr 29 min 30 sec) 
Heartbeat CPU 0 instructions: 133000002 cycles: 255477314 heartbeat IPC: 0.250807 cumulative IPC: 0.349622 (Simulation time: 1 hr 29 min 37 sec) 
Heartbeat CPU 0 instructions: 134000000 cycles: 259477236 heartbeat IPC: 0.250004 cumulative IPC: 0.347972 (Simulation time: 1 hr 29 min 44 sec) 
Heartbeat CPU 0 instructions: 135000001 cycles: 263681509 heartbeat IPC: 0.237853 cumulative IPC: 0.346087 (Simulation time: 1 hr 29 min 51 sec) 
Heartbeat CPU 0 instructions: 136000000 cycles: 268158625 heartbeat IPC: 0.223358 cumulative IPC: 0.34389 (Simulation time: 1 hr 29 min 58 sec) 
Heartbeat CPU 0 instructions: 137000000 cycles: 272787301 heartbeat IPC: 0.216045 cumulative IPC: 0.341566 (Simulation time: 1 hr 30 min 5 sec) 
Heartbeat CPU 0 instructions: 138000000 cycles: 276634422 heartbeat IPC: 0.259935 cumulative IPC: 0.340352 (Simulation time: 1 hr 30 min 11 sec) 
Heartbeat CPU 0 instructions: 139000001 cycles: 278921417 heartbeat IPC: 0.437255 cumulative IPC: 0.341201 (Simulation time: 1 hr 30 min 18 sec) 
Heartbeat CPU 0 instructions: 140000000 cycles: 281497367 heartbeat IPC: 0.388206 cumulative IPC: 0.341661 (Simulation time: 1 hr 30 min 23 sec) 
Heartbeat CPU 0 instructions: 141000000 cycles: 283646448 heartbeat IPC: 0.465315 cumulative IPC: 0.342662 (Simulation time: 1 hr 30 min 29 sec) 
Heartbeat CPU 0 instructions: 142000000 cycles: 286007956 heartbeat IPC: 0.423458 cumulative IPC: 0.343374 (Simulation time: 1 hr 30 min 35 sec) 
Heartbeat CPU 0 instructions: 143000000 cycles: 288574302 heartbeat IPC: 0.389659 cumulative IPC: 0.343813 (Simulation time: 1 hr 30 min 40 sec) 
Heartbeat CPU 0 instructions: 144000000 cycles: 291104931 heartbeat IPC: 0.395159 cumulative IPC: 0.344289 (Simulation time: 1 hr 30 min 46 sec) 
Heartbeat CPU 0 instructions: 145000000 cycles: 293516039 heartbeat IPC: 0.414747 cumulative IPC: 0.344906 (Simulation time: 1 hr 30 min 51 sec) 
Heartbeat CPU 0 instructions: 146000001 cycles: 296303559 heartbeat IPC: 0.358742 cumulative IPC: 0.345044 (Simulation time: 1 hr 30 min 56 sec) 
Heartbeat CPU 0 instructions: 147000001 cycles: 298967873 heartbeat IPC: 0.375331 cumulative IPC: 0.345331 (Simulation time: 1 hr 31 min 2 sec) 
Heartbeat CPU 0 instructions: 148000000 cycles: 301648663 heartbeat IPC: 0.373024 cumulative IPC: 0.345593 (Simulation time: 1 hr 31 min 6 sec) 
Heartbeat CPU 0 instructions: 149000002 cycles: 304233848 heartbeat IPC: 0.38682 cumulative IPC: 0.345966 (Simulation time: 1 hr 31 min 12 sec) 
Heartbeat CPU 0 instructions: 150000001 cycles: 307431280 heartbeat IPC: 0.312751 cumulative IPC: 0.345599 (Simulation time: 1 hr 31 min 17 sec) 
Finished CPU 0 instructions: 100000000 cycles: 289352992 cummulative IPC: 0.345599 (Simulation time: 1 hr 31 min 17 sec) 

ChampSim completed all CPUs

Region of Interest Statistics

CPU 0 cummulative IPC: 0.345599 instructions: 100000000 cycles: 289352992
LLC TOTAL     ACCESS:    5177828  HIT:    4881572  MISS:     296256
LLC LOAD      ACCESS:    2110913  HIT:    2000781  MISS:     110132
LLC RFO       ACCESS:      25553  HIT:      25009  MISS:        544
LLC PREFETCH  ACCESS:    2248605  HIT:    2065589  MISS:     183016
LLC WRITEBACK ACCESS:     792757  HIT:     790193  MISS:       2564
OPTgen accesses: 202364
OPTgen hits: 257841
OPTgen hit rate: 127.414


