
*** ChampSim Multicore Out-of-Order Simulator ***

Warmup Instructions: 50000000
Simulation Instructions: 100000000
Configuration: 2
Number of CPUs: 1
LLC sets: 2048
LLC ways: 16
Off-chip DRAM Channels: 1 Width: 64-bit Data Rate: 1600 MT/s

CPU 0 runs /datasets/cs240c-wi22-a00-public/data/Assignment2-gz/cactusADM_1039B.trace.gz
CPU 0 L1D next line prefetcher
CPU 0 L2C IP-based stride prefetcher
Initialize Hawkeye state
Heartbeat CPU 0 instructions: 1000000 cycles: 595518 heartbeat IPC: 1.67921 cumulative IPC: 1.67921 (Simulation time: 0 hr 0 min 38 sec) 
Heartbeat CPU 0 instructions: 2000002 cycles: 1190937 heartbeat IPC: 1.67949 cumulative IPC: 1.67935 (Simulation time: 0 hr 1 min 15 sec) 
Heartbeat CPU 0 instructions: 3000003 cycles: 1786622 heartbeat IPC: 1.67874 cumulative IPC: 1.67915 (Simulation time: 0 hr 1 min 53 sec) 
Heartbeat CPU 0 instructions: 4000000 cycles: 2382046 heartbeat IPC: 1.67947 cumulative IPC: 1.67923 (Simulation time: 0 hr 2 min 26 sec) 
Heartbeat CPU 0 instructions: 5000001 cycles: 2977457 heartbeat IPC: 1.67951 cumulative IPC: 1.67929 (Simulation time: 0 hr 3 min 2 sec) 
Heartbeat CPU 0 instructions: 6000002 cycles: 3572930 heartbeat IPC: 1.67934 cumulative IPC: 1.67929 (Simulation time: 0 hr 3 min 37 sec) 
Heartbeat CPU 0 instructions: 7000000 cycles: 4168306 heartbeat IPC: 1.67961 cumulative IPC: 1.67934 (Simulation time: 0 hr 4 min 12 sec) 
Heartbeat CPU 0 instructions: 8000000 cycles: 4763681 heartbeat IPC: 1.67961 cumulative IPC: 1.67937 (Simulation time: 0 hr 4 min 50 sec) 
Heartbeat CPU 0 instructions: 9000002 cycles: 5359336 heartbeat IPC: 1.67883 cumulative IPC: 1.67931 (Simulation time: 0 hr 5 min 26 sec) 
Heartbeat CPU 0 instructions: 10000003 cycles: 5974113 heartbeat IPC: 1.62661 cumulative IPC: 1.67389 (Simulation time: 0 hr 6 min 2 sec) 
Heartbeat CPU 0 instructions: 11000002 cycles: 6713288 heartbeat IPC: 1.35286 cumulative IPC: 1.63854 (Simulation time: 0 hr 6 min 44 sec) 
Heartbeat CPU 0 instructions: 12000000 cycles: 7308730 heartbeat IPC: 1.67942 cumulative IPC: 1.64187 (Simulation time: 0 hr 7 min 22 sec) 
Heartbeat CPU 0 instructions: 13000002 cycles: 7904248 heartbeat IPC: 1.67921 cumulative IPC: 1.64469 (Simulation time: 0 hr 7 min 57 sec) 
Heartbeat CPU 0 instructions: 14000000 cycles: 8499903 heartbeat IPC: 1.67882 cumulative IPC: 1.64708 (Simulation time: 0 hr 8 min 32 sec) 
Heartbeat CPU 0 instructions: 15000000 cycles: 9094972 heartbeat IPC: 1.68048 cumulative IPC: 1.64926 (Simulation time: 0 hr 9 min 10 sec) 
Heartbeat CPU 0 instructions: 16000000 cycles: 9690554 heartbeat IPC: 1.67903 cumulative IPC: 1.65109 (Simulation time: 0 hr 9 min 48 sec) 
Heartbeat CPU 0 instructions: 17000003 cycles: 10286095 heartbeat IPC: 1.67915 cumulative IPC: 1.65272 (Simulation time: 0 hr 10 min 31 sec) 
Heartbeat CPU 0 instructions: 18000001 cycles: 10881628 heartbeat IPC: 1.67916 cumulative IPC: 1.65416 (Simulation time: 0 hr 11 min 13 sec) 
Heartbeat CPU 0 instructions: 19000002 cycles: 11477004 heartbeat IPC: 1.67961 cumulative IPC: 1.65548 (Simulation time: 0 hr 11 min 52 sec) 
Heartbeat CPU 0 instructions: 20000000 cycles: 12072426 heartbeat IPC: 1.67948 cumulative IPC: 1.65667 (Simulation time: 0 hr 12 min 29 sec) 
Heartbeat CPU 0 instructions: 21000002 cycles: 12668113 heartbeat IPC: 1.67874 cumulative IPC: 1.65771 (Simulation time: 0 hr 13 min 4 sec) 
Heartbeat CPU 0 instructions: 22000002 cycles: 13263536 heartbeat IPC: 1.67948 cumulative IPC: 1.65868 (Simulation time: 0 hr 13 min 41 sec) 
Heartbeat CPU 0 instructions: 23000002 cycles: 13858966 heartbeat IPC: 1.67946 cumulative IPC: 1.65958 (Simulation time: 0 hr 14 min 20 sec) 
Heartbeat CPU 0 instructions: 24000000 cycles: 14615969 heartbeat IPC: 1.321 cumulative IPC: 1.64204 (Simulation time: 0 hr 15 min 3 sec) 
Heartbeat CPU 0 instructions: 25000002 cycles: 15211249 heartbeat IPC: 1.67989 cumulative IPC: 1.64352 (Simulation time: 0 hr 15 min 38 sec) 
Heartbeat CPU 0 instructions: 26000001 cycles: 15806345 heartbeat IPC: 1.6804 cumulative IPC: 1.64491 (Simulation time: 0 hr 16 min 16 sec) 
Heartbeat CPU 0 instructions: 27000000 cycles: 16401603 heartbeat IPC: 1.67994 cumulative IPC: 1.64618 (Simulation time: 0 hr 16 min 52 sec) 
Heartbeat CPU 0 instructions: 28000000 cycles: 16996840 heartbeat IPC: 1.68 cumulative IPC: 1.64737 (Simulation time: 0 hr 17 min 29 sec) 
Heartbeat CPU 0 instructions: 29000000 cycles: 17592311 heartbeat IPC: 1.67934 cumulative IPC: 1.64845 (Simulation time: 0 hr 18 min 11 sec) 
Heartbeat CPU 0 instructions: 30000002 cycles: 18187474 heartbeat IPC: 1.68022 cumulative IPC: 1.64949 (Simulation time: 0 hr 18 min 47 sec) 
Heartbeat CPU 0 instructions: 31000001 cycles: 18782983 heartbeat IPC: 1.67923 cumulative IPC: 1.65043 (Simulation time: 0 hr 19 min 23 sec) 
Heartbeat CPU 0 instructions: 32000000 cycles: 19377933 heartbeat IPC: 1.68081 cumulative IPC: 1.65136 (Simulation time: 0 hr 20 min 1 sec) 
Heartbeat CPU 0 instructions: 33000001 cycles: 19973338 heartbeat IPC: 1.67953 cumulative IPC: 1.6522 (Simulation time: 0 hr 20 min 39 sec) 
Heartbeat CPU 0 instructions: 34000003 cycles: 20568365 heartbeat IPC: 1.6806 cumulative IPC: 1.65302 (Simulation time: 0 hr 21 min 14 sec) 
Heartbeat CPU 0 instructions: 35000001 cycles: 21163758 heartbeat IPC: 1.67956 cumulative IPC: 1.65377 (Simulation time: 0 hr 21 min 50 sec) 
Heartbeat CPU 0 instructions: 36000000 cycles: 21759147 heartbeat IPC: 1.67957 cumulative IPC: 1.65448 (Simulation time: 0 hr 22 min 26 sec) 
Heartbeat CPU 0 instructions: 37000002 cycles: 22517535 heartbeat IPC: 1.31859 cumulative IPC: 1.64316 (Simulation time: 0 hr 23 min 8 sec) 
Heartbeat CPU 0 instructions: 38000000 cycles: 23112668 heartbeat IPC: 1.68029 cumulative IPC: 1.64412 (Simulation time: 0 hr 23 min 44 sec) 
Heartbeat CPU 0 instructions: 39000002 cycles: 23707876 heartbeat IPC: 1.68009 cumulative IPC: 1.64502 (Simulation time: 0 hr 24 min 21 sec) 
Heartbeat CPU 0 instructions: 40000000 cycles: 24303103 heartbeat IPC: 1.68003 cumulative IPC: 1.64588 (Simulation time: 0 hr 24 min 56 sec) 
Heartbeat CPU 0 instructions: 41000003 cycles: 24898533 heartbeat IPC: 1.67946 cumulative IPC: 1.64668 (Simulation time: 0 hr 25 min 32 sec) 
Heartbeat CPU 0 instructions: 42000001 cycles: 25493702 heartbeat IPC: 1.68019 cumulative IPC: 1.64747 (Simulation time: 0 hr 26 min 6 sec) 
Heartbeat CPU 0 instructions: 43000000 cycles: 26089081 heartbeat IPC: 1.6796 cumulative IPC: 1.6482 (Simulation time: 0 hr 26 min 41 sec) 
Heartbeat CPU 0 instructions: 44000000 cycles: 26684169 heartbeat IPC: 1.68042 cumulative IPC: 1.64892 (Simulation time: 0 hr 27 min 17 sec) 
Heartbeat CPU 0 instructions: 45000000 cycles: 27279636 heartbeat IPC: 1.67935 cumulative IPC: 1.64958 (Simulation time: 0 hr 27 min 53 sec) 
Heartbeat CPU 0 instructions: 46000003 cycles: 27874821 heartbeat IPC: 1.68015 cumulative IPC: 1.65023 (Simulation time: 0 hr 28 min 32 sec) 
Heartbeat CPU 0 instructions: 47000002 cycles: 28469959 heartbeat IPC: 1.68028 cumulative IPC: 1.65086 (Simulation time: 0 hr 29 min 8 sec) 
Heartbeat CPU 0 instructions: 48000000 cycles: 29064954 heartbeat IPC: 1.68068 cumulative IPC: 1.65147 (Simulation time: 0 hr 29 min 43 sec) 
Heartbeat CPU 0 instructions: 49000001 cycles: 29660346 heartbeat IPC: 1.67957 cumulative IPC: 1.65204 (Simulation time: 0 hr 30 min 20 sec) 
Heartbeat CPU 0 instructions: 50000000 cycles: 30418503 heartbeat IPC: 1.31899 cumulative IPC: 1.64374 (Simulation time: 0 hr 31 min 8 sec) 

Warmup complete CPU 0 instructions: 50000004 cycles: 30418504 (Simulation time: 0 hr 31 min 8 sec) 

Heartbeat CPU 0 instructions: 51000003 cycles: 32183886 heartbeat IPC: 0.566451 cumulative IPC: 0.566449 (Simulation time: 0 hr 31 min 46 sec) 
Heartbeat CPU 0 instructions: 52000000 cycles: 33957292 heartbeat IPC: 0.563885 cumulative IPC: 0.565164 (Simulation time: 0 hr 32 min 29 sec) 
Heartbeat CPU 0 instructions: 53000003 cycles: 35729824 heartbeat IPC: 0.564166 cumulative IPC: 0.564831 (Simulation time: 0 hr 33 min 9 sec) 
Heartbeat CPU 0 instructions: 54000002 cycles: 37446051 heartbeat IPC: 0.582673 cumulative IPC: 0.569188 (Simulation time: 0 hr 33 min 53 sec) 
Heartbeat CPU 0 instructions: 55000001 cycles: 39172772 heartbeat IPC: 0.579132 cumulative IPC: 0.57115 (Simulation time: 0 hr 34 min 31 sec) 
Heartbeat CPU 0 instructions: 56000000 cycles: 40944318 heartbeat IPC: 0.564478 cumulative IPC: 0.570027 (Simulation time: 0 hr 35 min 9 sec) 
Heartbeat CPU 0 instructions: 57000000 cycles: 42720313 heartbeat IPC: 0.563065 cumulative IPC: 0.569022 (Simulation time: 0 hr 35 min 53 sec) 
Heartbeat CPU 0 instructions: 58000000 cycles: 44485859 heartbeat IPC: 0.566397 cumulative IPC: 0.568692 (Simulation time: 0 hr 36 min 30 sec) 
Heartbeat CPU 0 instructions: 59000002 cycles: 46173619 heartbeat IPC: 0.592502 cumulative IPC: 0.571243 (Simulation time: 0 hr 37 min 19 sec) 
Heartbeat CPU 0 instructions: 60000000 cycles: 47933837 heartbeat IPC: 0.56811 cumulative IPC: 0.570928 (Simulation time: 0 hr 37 min 58 sec) 
Heartbeat CPU 0 instructions: 61000001 cycles: 49709001 heartbeat IPC: 0.563329 cumulative IPC: 0.570229 (Simulation time: 0 hr 38 min 35 sec) 
Heartbeat CPU 0 instructions: 62000000 cycles: 51483117 heartbeat IPC: 0.56366 cumulative IPC: 0.569676 (Simulation time: 0 hr 39 min 12 sec) 
Heartbeat CPU 0 instructions: 63000001 cycles: 57769362 heartbeat IPC: 0.159078 cumulative IPC: 0.475305 (Simulation time: 0 hr 40 min 2 sec) 
Heartbeat CPU 0 instructions: 64000000 cycles: 60046648 heartbeat IPC: 0.439119 cumulative IPC: 0.472524 (Simulation time: 0 hr 41 min 8 sec) 
Heartbeat CPU 0 instructions: 65000002 cycles: 61818922 heartbeat IPC: 0.564248 cumulative IPC: 0.477701 (Simulation time: 0 hr 42 min 21 sec) 
Heartbeat CPU 0 instructions: 66000001 cycles: 63591908 heartbeat IPC: 0.56402 cumulative IPC: 0.482314 (Simulation time: 0 hr 43 min 31 sec) 
Heartbeat CPU 0 instructions: 67000003 cycles: 65359120 heartbeat IPC: 0.565864 cumulative IPC: 0.48654 (Simulation time: 0 hr 44 min 44 sec) 
Heartbeat CPU 0 instructions: 68000000 cycles: 67086474 heartbeat IPC: 0.578918 cumulative IPC: 0.490892 (Simulation time: 0 hr 45 min 53 sec) 
Heartbeat CPU 0 instructions: 69000003 cycles: 68864538 heartbeat IPC: 0.562411 cumulative IPC: 0.494199 (Simulation time: 0 hr 47 min 3 sec) 
Heartbeat CPU 0 instructions: 70000002 cycles: 70636677 heartbeat IPC: 0.564289 cumulative IPC: 0.497288 (Simulation time: 0 hr 48 min 13 sec) 
Heartbeat CPU 0 instructions: 71000000 cycles: 72410694 heartbeat IPC: 0.563691 cumulative IPC: 0.500093 (Simulation time: 0 hr 49 min 23 sec) 
Heartbeat CPU 0 instructions: 72000000 cycles: 74156992 heartbeat IPC: 0.57264 cumulative IPC: 0.502989 (Simulation time: 0 hr 50 min 32 sec) 
Heartbeat CPU 0 instructions: 73000001 cycles: 75858461 heartbeat IPC: 0.587728 cumulative IPC: 0.506162 (Simulation time: 0 hr 51 min 42 sec) 
Heartbeat CPU 0 instructions: 74000003 cycles: 77626989 heartbeat IPC: 0.565443 cumulative IPC: 0.508383 (Simulation time: 0 hr 52 min 55 sec) 
Heartbeat CPU 0 instructions: 75000002 cycles: 79401621 heartbeat IPC: 0.563497 cumulative IPC: 0.51038 (Simulation time: 0 hr 54 min 1 sec) 
Heartbeat CPU 0 instructions: 76000000 cycles: 84730266 heartbeat IPC: 0.187665 cumulative IPC: 0.478718 (Simulation time: 0 hr 55 min 23 sec) 
Heartbeat CPU 0 instructions: 77000001 cycles: 87930172 heartbeat IPC: 0.31251 cumulative IPC: 0.46947 (Simulation time: 0 hr 56 min 40 sec) 
Heartbeat CPU 0 instructions: 78000000 cycles: 89680168 heartbeat IPC: 0.571429 cumulative IPC: 0.472481 (Simulation time: 0 hr 57 min 51 sec) 
Heartbeat CPU 0 instructions: 79000002 cycles: 91450876 heartbeat IPC: 0.564747 cumulative IPC: 0.475158 (Simulation time: 0 hr 59 min 1 sec) 
Heartbeat CPU 0 instructions: 80000000 cycles: 93222795 heartbeat IPC: 0.564359 cumulative IPC: 0.477674 (Simulation time: 1 hr 0 min 14 sec) 
Heartbeat CPU 0 instructions: 81000002 cycles: 94972318 heartbeat IPC: 0.571586 cumulative IPC: 0.480219 (Simulation time: 1 hr 1 min 25 sec) 
Heartbeat CPU 0 instructions: 82000002 cycles: 96668712 heartbeat IPC: 0.589486 cumulative IPC: 0.483017 (Simulation time: 1 hr 2 min 35 sec) 
Heartbeat CPU 0 instructions: 83000003 cycles: 98436319 heartbeat IPC: 0.565737 cumulative IPC: 0.485167 (Simulation time: 1 hr 3 min 34 sec) 
Heartbeat CPU 0 instructions: 84000000 cycles: 100208564 heartbeat IPC: 0.564254 cumulative IPC: 0.487175 (Simulation time: 1 hr 4 min 47 sec) 
Heartbeat CPU 0 instructions: 85000002 cycles: 101981038 heartbeat IPC: 0.564184 cumulative IPC: 0.489083 (Simulation time: 1 hr 5 min 56 sec) 
Heartbeat CPU 0 instructions: 86000003 cycles: 103697483 heartbeat IPC: 0.5826 cumulative IPC: 0.491273 (Simulation time: 1 hr 7 min 5 sec) 
Heartbeat CPU 0 instructions: 87000000 cycles: 105441032 heartbeat IPC: 0.573541 cumulative IPC: 0.493185 (Simulation time: 1 hr 8 min 14 sec) 
Heartbeat CPU 0 instructions: 88000000 cycles: 107211598 heartbeat IPC: 0.564791 cumulative IPC: 0.494836 (Simulation time: 1 hr 9 min 23 sec) 
Heartbeat CPU 0 instructions: 89000001 cycles: 111600147 heartbeat IPC: 0.227866 cumulative IPC: 0.480404 (Simulation time: 1 hr 10 min 32 sec) 
Heartbeat CPU 0 instructions: 90000002 cycles: 115775806 heartbeat IPC: 0.239483 cumulative IPC: 0.468618 (Simulation time: 1 hr 11 min 40 sec) 
Heartbeat CPU 0 instructions: 91000000 cycles: 117471686 heartbeat IPC: 0.589663 cumulative IPC: 0.470976 (Simulation time: 1 hr 12 min 31 sec) 
Heartbeat CPU 0 instructions: 92000000 cycles: 119237091 heartbeat IPC: 0.566442 cumulative IPC: 0.472874 (Simulation time: 1 hr 13 min 24 sec) 
Heartbeat CPU 0 instructions: 93000001 cycles: 121008200 heartbeat IPC: 0.564619 cumulative IPC: 0.474668 (Simulation time: 1 hr 14 min 11 sec) 
Heartbeat CPU 0 instructions: 94000003 cycles: 122784013 heartbeat IPC: 0.563123 cumulative IPC: 0.476368 (Simulation time: 1 hr 15 min 0 sec) 
Heartbeat CPU 0 instructions: 95000001 cycles: 124506308 heartbeat IPC: 0.580619 cumulative IPC: 0.478277 (Simulation time: 1 hr 15 min 50 sec) 
Heartbeat CPU 0 instructions: 96000000 cycles: 126228424 heartbeat IPC: 0.58068 cumulative IPC: 0.480117 (Simulation time: 1 hr 16 min 37 sec) 
Heartbeat CPU 0 instructions: 97000002 cycles: 127999330 heartbeat IPC: 0.564684 cumulative IPC: 0.481652 (Simulation time: 1 hr 17 min 21 sec) 
Heartbeat CPU 0 instructions: 98000000 cycles: 129773656 heartbeat IPC: 0.563593 cumulative IPC: 0.483115 (Simulation time: 1 hr 18 min 4 sec) 
Heartbeat CPU 0 instructions: 99000002 cycles: 131542943 heartbeat IPC: 0.565201 cumulative IPC: 0.484551 (Simulation time: 1 hr 18 min 39 sec) 
Heartbeat CPU 0 instructions: 100000000 cycles: 133235608 heartbeat IPC: 0.590783 cumulative IPC: 0.4863 (Simulation time: 1 hr 19 min 18 sec) 
Heartbeat CPU 0 instructions: 101000002 cycles: 134991749 heartbeat IPC: 0.569431 cumulative IPC: 0.487696 (Simulation time: 1 hr 19 min 50 sec) 
Heartbeat CPU 0 instructions: 102000000 cycles: 138366036 heartbeat IPC: 0.296358 cumulative IPC: 0.481715 (Simulation time: 1 hr 20 min 26 sec) 
Heartbeat CPU 0 instructions: 103000002 cycles: 143545978 heartbeat IPC: 0.193053 cumulative IPC: 0.468498 (Simulation time: 1 hr 21 min 3 sec) 
Heartbeat CPU 0 instructions: 104000000 cycles: 145274018 heartbeat IPC: 0.578689 cumulative IPC: 0.470156 (Simulation time: 1 hr 21 min 33 sec) 
Heartbeat CPU 0 instructions: 105000002 cycles: 146991604 heartbeat IPC: 0.582214 cumulative IPC: 0.471807 (Simulation time: 1 hr 22 min 6 sec) 
Heartbeat CPU 0 instructions: 106000001 cycles: 148765650 heartbeat IPC: 0.563683 cumulative IPC: 0.473184 (Simulation time: 1 hr 22 min 35 sec) 
Heartbeat CPU 0 instructions: 107000003 cycles: 150537495 heartbeat IPC: 0.564385 cumulative IPC: 0.474529 (Simulation time: 1 hr 23 min 8 sec) 
Heartbeat CPU 0 instructions: 108000000 cycles: 152306864 heartbeat IPC: 0.565172 cumulative IPC: 0.475845 (Simulation time: 1 hr 23 min 36 sec) 
Heartbeat CPU 0 instructions: 109000003 cycles: 154006248 heartbeat IPC: 0.58845 cumulative IPC: 0.477394 (Simulation time: 1 hr 24 min 0 sec) 
Heartbeat CPU 0 instructions: 110000002 cycles: 155757263 heartbeat IPC: 0.571097 cumulative IPC: 0.478703 (Simulation time: 1 hr 24 min 24 sec) 
Heartbeat CPU 0 instructions: 111000002 cycles: 157530149 heartbeat IPC: 0.564052 cumulative IPC: 0.479893 (Simulation time: 1 hr 24 min 45 sec) 
Heartbeat CPU 0 instructions: 112000000 cycles: 159302587 heartbeat IPC: 0.564193 cumulative IPC: 0.481052 (Simulation time: 1 hr 25 min 7 sec) 
Heartbeat CPU 0 instructions: 113000002 cycles: 161060418 heartbeat IPC: 0.568884 cumulative IPC: 0.482234 (Simulation time: 1 hr 25 min 27 sec) 
Heartbeat CPU 0 instructions: 114000002 cycles: 162755016 heartbeat IPC: 0.59011 cumulative IPC: 0.483616 (Simulation time: 1 hr 25 min 46 sec) 
Heartbeat CPU 0 instructions: 115000001 cycles: 165198886 heartbeat IPC: 0.409187 cumulative IPC: 0.482266 (Simulation time: 1 hr 26 min 3 sec) 
Heartbeat CPU 0 instructions: 116000000 cycles: 171308291 heartbeat IPC: 0.163682 cumulative IPC: 0.468451 (Simulation time: 1 hr 26 min 23 sec) 
Heartbeat CPU 0 instructions: 117000003 cycles: 173081255 heartbeat IPC: 0.564029 cumulative IPC: 0.469639 (Simulation time: 1 hr 26 min 39 sec) 
Heartbeat CPU 0 instructions: 118000001 cycles: 174783369 heartbeat IPC: 0.587504 cumulative IPC: 0.471029 (Simulation time: 1 hr 26 min 54 sec) 
Heartbeat CPU 0 instructions: 119000001 cycles: 176527199 heartbeat IPC: 0.57345 cumulative IPC: 0.472251 (Simulation time: 1 hr 27 min 9 sec) 
Heartbeat CPU 0 instructions: 120000000 cycles: 178301419 heartbeat IPC: 0.563627 cumulative IPC: 0.473347 (Simulation time: 1 hr 27 min 23 sec) 
Heartbeat CPU 0 instructions: 121000000 cycles: 180075327 heartbeat IPC: 0.563727 cumulative IPC: 0.474419 (Simulation time: 1 hr 27 min 37 sec) 
Heartbeat CPU 0 instructions: 122000003 cycles: 181836852 heartbeat IPC: 0.567692 cumulative IPC: 0.475504 (Simulation time: 1 hr 27 min 50 sec) 
Heartbeat CPU 0 instructions: 123000002 cycles: 183527021 heartbeat IPC: 0.591656 cumulative IPC: 0.476786 (Simulation time: 1 hr 28 min 3 sec) 
Heartbeat CPU 0 instructions: 124000000 cycles: 185296542 heartbeat IPC: 0.565124 cumulative IPC: 0.477795 (Simulation time: 1 hr 28 min 17 sec) 
Heartbeat CPU 0 instructions: 125000001 cycles: 187067111 heartbeat IPC: 0.564791 cumulative IPC: 0.478779 (Simulation time: 1 hr 28 min 31 sec) 
Heartbeat CPU 0 instructions: 126000000 cycles: 188839665 heartbeat IPC: 0.564157 cumulative IPC: 0.479734 (Simulation time: 1 hr 28 min 44 sec) 
Heartbeat CPU 0 instructions: 127000003 cycles: 190566285 heartbeat IPC: 0.579168 cumulative IPC: 0.480806 (Simulation time: 1 hr 28 min 55 sec) 
Heartbeat CPU 0 instructions: 128000000 cycles: 192341434 heartbeat IPC: 0.563331 cumulative IPC: 0.481711 (Simulation time: 1 hr 29 min 5 sec) 
Heartbeat CPU 0 instructions: 129000001 cycles: 199275198 heartbeat IPC: 0.144222 cumulative IPC: 0.467852 (Simulation time: 1 hr 29 min 16 sec) 
Heartbeat CPU 0 instructions: 130000002 cycles: 208799191 heartbeat IPC: 0.104998 cumulative IPC: 0.448479 (Simulation time: 1 hr 29 min 28 sec) 
Heartbeat CPU 0 instructions: 131000002 cycles: 212753087 heartbeat IPC: 0.252915 cumulative IPC: 0.444238 (Simulation time: 1 hr 29 min 37 sec) 
Heartbeat CPU 0 instructions: 132000000 cycles: 214531285 heartbeat IPC: 0.562366 cumulative IPC: 0.445379 (Simulation time: 1 hr 29 min 46 sec) 
Heartbeat CPU 0 instructions: 133000000 cycles: 216232362 heartbeat IPC: 0.587863 cumulative IPC: 0.446684 (Simulation time: 1 hr 29 min 55 sec) 
Heartbeat CPU 0 instructions: 134000003 cycles: 218002319 heartbeat IPC: 0.564987 cumulative IPC: 0.4478 (Simulation time: 1 hr 30 min 5 sec) 
Heartbeat CPU 0 instructions: 135000002 cycles: 219788210 heartbeat IPC: 0.559944 cumulative IPC: 0.448857 (Simulation time: 1 hr 30 min 14 sec) 
Heartbeat CPU 0 instructions: 136000000 cycles: 221580022 heartbeat IPC: 0.558093 cumulative IPC: 0.449881 (Simulation time: 1 hr 30 min 23 sec) 
Heartbeat CPU 0 instructions: 137000001 cycles: 223331967 heartbeat IPC: 0.570795 cumulative IPC: 0.450979 (Simulation time: 1 hr 30 min 31 sec) 
Heartbeat CPU 0 instructions: 138000001 cycles: 225045064 heartbeat IPC: 0.583738 cumulative IPC: 0.452148 (Simulation time: 1 hr 30 min 38 sec) 
Heartbeat CPU 0 instructions: 139000003 cycles: 226826868 heartbeat IPC: 0.56123 cumulative IPC: 0.453138 (Simulation time: 1 hr 30 min 46 sec) 
Heartbeat CPU 0 instructions: 140000000 cycles: 228618362 heartbeat IPC: 0.558192 cumulative IPC: 0.454087 (Simulation time: 1 hr 30 min 52 sec) 
Heartbeat CPU 0 instructions: 141000003 cycles: 230404449 heartbeat IPC: 0.559885 cumulative IPC: 0.455032 (Simulation time: 1 hr 30 min 59 sec) 
Heartbeat CPU 0 instructions: 142000003 cycles: 232125318 heartbeat IPC: 0.581102 cumulative IPC: 0.456108 (Simulation time: 1 hr 31 min 6 sec) 
Heartbeat CPU 0 instructions: 143000002 cycles: 236050471 heartbeat IPC: 0.254767 cumulative IPC: 0.452264 (Simulation time: 1 hr 31 min 13 sec) 
Heartbeat CPU 0 instructions: 144000000 cycles: 241072580 heartbeat IPC: 0.199119 cumulative IPC: 0.446229 (Simulation time: 1 hr 31 min 20 sec) 
Heartbeat CPU 0 instructions: 145000003 cycles: 242815439 heartbeat IPC: 0.573772 cumulative IPC: 0.447276 (Simulation time: 1 hr 31 min 25 sec) 
Heartbeat CPU 0 instructions: 146000001 cycles: 244523169 heartbeat IPC: 0.585571 cumulative IPC: 0.448379 (Simulation time: 1 hr 31 min 31 sec) 
Heartbeat CPU 0 instructions: 147000001 cycles: 246190242 heartbeat IPC: 0.599854 cumulative IPC: 0.449549 (Simulation time: 1 hr 31 min 37 sec) 
Heartbeat CPU 0 instructions: 148000000 cycles: 247929406 heartbeat IPC: 0.574988 cumulative IPC: 0.450552 (Simulation time: 1 hr 31 min 43 sec) 
Heartbeat CPU 0 instructions: 149000000 cycles: 249670397 heartbeat IPC: 0.574386 cumulative IPC: 0.451535 (Simulation time: 1 hr 31 min 48 sec) 
Heartbeat CPU 0 instructions: 150000002 cycles: 251410566 heartbeat IPC: 0.574658 cumulative IPC: 0.452505 (Simulation time: 1 hr 31 min 54 sec) 
Finished CPU 0 instructions: 100000002 cycles: 220992063 cummulative IPC: 0.452505 (Simulation time: 1 hr 31 min 54 sec) 

ChampSim completed all CPUs

Region of Interest Statistics

CPU 0 cummulative IPC: 0.452505 instructions: 100000002 cycles: 220992063
LLC TOTAL     ACCESS:    1248324  HIT:     118514  MISS:    1129810
LLC LOAD      ACCESS:      34843  HIT:       4106  MISS:      30737
LLC RFO       ACCESS:     290712  HIT:       4382  MISS:     286330
LLC PREFETCH  ACCESS:     630372  HIT:      65120  MISS:     565252
LLC WRITEBACK ACCESS:     292397  HIT:      44906  MISS:     247491
OPTgen accesses: 28923
OPTgen hits: 752
OPTgen hit rate: 2.60001


