
*** ChampSim Multicore Out-of-Order Simulator ***

Warmup Instructions: 50000000
Simulation Instructions: 100000000
Configuration: 2
Number of CPUs: 1
LLC sets: 2048
LLC ways: 16
Off-chip DRAM Channels: 1 Width: 64-bit Data Rate: 1600 MT/s

CPU 0 runs /datasets/cs240c-wi22-a00-public/data/Assignment2-gz/omnetpp_340B.trace.gz
CPU 0 L1D next line prefetcher
CPU 0 L2C IP-based stride prefetcher
Initialize Hawkeye state
Heartbeat CPU 0 instructions: 1000001 cycles: 576949 heartbeat IPC: 1.73326 cumulative IPC: 1.73326 (Simulation time: 0 hr 0 min 40 sec) 
Heartbeat CPU 0 instructions: 2000000 cycles: 1160910 heartbeat IPC: 1.71244 cumulative IPC: 1.72279 (Simulation time: 0 hr 1 min 23 sec) 
Heartbeat CPU 0 instructions: 3000001 cycles: 1758210 heartbeat IPC: 1.6742 cumulative IPC: 1.70628 (Simulation time: 0 hr 2 min 13 sec) 
Heartbeat CPU 0 instructions: 4000000 cycles: 2379311 heartbeat IPC: 1.61004 cumulative IPC: 1.68116 (Simulation time: 0 hr 3 min 5 sec) 
Heartbeat CPU 0 instructions: 5000002 cycles: 2954818 heartbeat IPC: 1.7376 cumulative IPC: 1.69215 (Simulation time: 0 hr 3 min 49 sec) 
Heartbeat CPU 0 instructions: 6000003 cycles: 3556377 heartbeat IPC: 1.66235 cumulative IPC: 1.68711 (Simulation time: 0 hr 4 min 41 sec) 
Heartbeat CPU 0 instructions: 7000003 cycles: 4205868 heartbeat IPC: 1.53967 cumulative IPC: 1.66434 (Simulation time: 0 hr 5 min 25 sec) 
Heartbeat CPU 0 instructions: 8000000 cycles: 4800505 heartbeat IPC: 1.68169 cumulative IPC: 1.66649 (Simulation time: 0 hr 6 min 2 sec) 
Heartbeat CPU 0 instructions: 9000002 cycles: 5434240 heartbeat IPC: 1.57795 cumulative IPC: 1.65617 (Simulation time: 0 hr 6 min 52 sec) 
Heartbeat CPU 0 instructions: 10000002 cycles: 6028786 heartbeat IPC: 1.68196 cumulative IPC: 1.65871 (Simulation time: 0 hr 7 min 41 sec) 
Heartbeat CPU 0 instructions: 11000003 cycles: 6628386 heartbeat IPC: 1.66778 cumulative IPC: 1.65953 (Simulation time: 0 hr 8 min 43 sec) 
Heartbeat CPU 0 instructions: 12000000 cycles: 7230863 heartbeat IPC: 1.65981 cumulative IPC: 1.65955 (Simulation time: 0 hr 9 min 52 sec) 
Heartbeat CPU 0 instructions: 13000002 cycles: 7834380 heartbeat IPC: 1.65696 cumulative IPC: 1.65935 (Simulation time: 0 hr 11 min 4 sec) 
Heartbeat CPU 0 instructions: 14000000 cycles: 8430281 heartbeat IPC: 1.67813 cumulative IPC: 1.66068 (Simulation time: 0 hr 12 min 17 sec) 
Heartbeat CPU 0 instructions: 15000001 cycles: 9021797 heartbeat IPC: 1.69057 cumulative IPC: 1.66264 (Simulation time: 0 hr 13 min 31 sec) 
Heartbeat CPU 0 instructions: 16000000 cycles: 9644906 heartbeat IPC: 1.60485 cumulative IPC: 1.65891 (Simulation time: 0 hr 14 min 41 sec) 
Heartbeat CPU 0 instructions: 17000000 cycles: 10250712 heartbeat IPC: 1.65069 cumulative IPC: 1.65842 (Simulation time: 0 hr 15 min 47 sec) 
Heartbeat CPU 0 instructions: 18000000 cycles: 10871057 heartbeat IPC: 1.61201 cumulative IPC: 1.65577 (Simulation time: 0 hr 16 min 59 sec) 
Heartbeat CPU 0 instructions: 19000000 cycles: 11502833 heartbeat IPC: 1.58284 cumulative IPC: 1.65177 (Simulation time: 0 hr 18 min 14 sec) 
Heartbeat CPU 0 instructions: 20000000 cycles: 12088936 heartbeat IPC: 1.70618 cumulative IPC: 1.65441 (Simulation time: 0 hr 19 min 25 sec) 
Heartbeat CPU 0 instructions: 21000000 cycles: 12686528 heartbeat IPC: 1.67338 cumulative IPC: 1.6553 (Simulation time: 0 hr 20 min 34 sec) 
Heartbeat CPU 0 instructions: 22000001 cycles: 13301078 heartbeat IPC: 1.62721 cumulative IPC: 1.654 (Simulation time: 0 hr 21 min 47 sec) 
Heartbeat CPU 0 instructions: 23000001 cycles: 13923114 heartbeat IPC: 1.60762 cumulative IPC: 1.65193 (Simulation time: 0 hr 22 min 54 sec) 
Heartbeat CPU 0 instructions: 24000000 cycles: 14546026 heartbeat IPC: 1.60536 cumulative IPC: 1.64994 (Simulation time: 0 hr 24 min 4 sec) 
Heartbeat CPU 0 instructions: 25000001 cycles: 15163319 heartbeat IPC: 1.61998 cumulative IPC: 1.64872 (Simulation time: 0 hr 25 min 15 sec) 
Heartbeat CPU 0 instructions: 26000001 cycles: 15754236 heartbeat IPC: 1.69229 cumulative IPC: 1.65035 (Simulation time: 0 hr 26 min 22 sec) 
Heartbeat CPU 0 instructions: 27000000 cycles: 16324979 heartbeat IPC: 1.7521 cumulative IPC: 1.65391 (Simulation time: 0 hr 27 min 32 sec) 
Heartbeat CPU 0 instructions: 28000000 cycles: 16920487 heartbeat IPC: 1.67924 cumulative IPC: 1.6548 (Simulation time: 0 hr 28 min 45 sec) 
Heartbeat CPU 0 instructions: 29000003 cycles: 17544115 heartbeat IPC: 1.60352 cumulative IPC: 1.65298 (Simulation time: 0 hr 29 min 51 sec) 
Heartbeat CPU 0 instructions: 30000003 cycles: 18121181 heartbeat IPC: 1.7329 cumulative IPC: 1.65552 (Simulation time: 0 hr 30 min 57 sec) 
Heartbeat CPU 0 instructions: 31000001 cycles: 18729956 heartbeat IPC: 1.64264 cumulative IPC: 1.6551 (Simulation time: 0 hr 32 min 1 sec) 
Heartbeat CPU 0 instructions: 32000000 cycles: 19335380 heartbeat IPC: 1.65173 cumulative IPC: 1.655 (Simulation time: 0 hr 33 min 11 sec) 
Heartbeat CPU 0 instructions: 33000001 cycles: 19915500 heartbeat IPC: 1.72378 cumulative IPC: 1.657 (Simulation time: 0 hr 34 min 18 sec) 
Heartbeat CPU 0 instructions: 34000001 cycles: 20566401 heartbeat IPC: 1.53633 cumulative IPC: 1.65318 (Simulation time: 0 hr 35 min 24 sec) 
Heartbeat CPU 0 instructions: 35000002 cycles: 21146719 heartbeat IPC: 1.72319 cumulative IPC: 1.6551 (Simulation time: 0 hr 36 min 30 sec) 
Heartbeat CPU 0 instructions: 36000000 cycles: 21756128 heartbeat IPC: 1.64093 cumulative IPC: 1.65471 (Simulation time: 0 hr 37 min 41 sec) 
Heartbeat CPU 0 instructions: 37000002 cycles: 22395524 heartbeat IPC: 1.56398 cumulative IPC: 1.65212 (Simulation time: 0 hr 38 min 44 sec) 
Heartbeat CPU 0 instructions: 38000000 cycles: 22978316 heartbeat IPC: 1.71587 cumulative IPC: 1.65373 (Simulation time: 0 hr 39 min 50 sec) 
Heartbeat CPU 0 instructions: 39000001 cycles: 23646912 heartbeat IPC: 1.49567 cumulative IPC: 1.64926 (Simulation time: 0 hr 41 min 0 sec) 
Heartbeat CPU 0 instructions: 40000000 cycles: 24236716 heartbeat IPC: 1.69548 cumulative IPC: 1.65039 (Simulation time: 0 hr 42 min 5 sec) 
Heartbeat CPU 0 instructions: 41000000 cycles: 24825080 heartbeat IPC: 1.69963 cumulative IPC: 1.65156 (Simulation time: 0 hr 43 min 12 sec) 
Heartbeat CPU 0 instructions: 42000001 cycles: 25452830 heartbeat IPC: 1.59299 cumulative IPC: 1.65011 (Simulation time: 0 hr 44 min 30 sec) 
Heartbeat CPU 0 instructions: 43000003 cycles: 26058749 heartbeat IPC: 1.65039 cumulative IPC: 1.65012 (Simulation time: 0 hr 45 min 36 sec) 
Heartbeat CPU 0 instructions: 44000000 cycles: 26612303 heartbeat IPC: 1.8065 cumulative IPC: 1.65337 (Simulation time: 0 hr 46 min 41 sec) 
Heartbeat CPU 0 instructions: 45000003 cycles: 27171687 heartbeat IPC: 1.78769 cumulative IPC: 1.65614 (Simulation time: 0 hr 47 min 50 sec) 
Heartbeat CPU 0 instructions: 46000001 cycles: 27786711 heartbeat IPC: 1.62595 cumulative IPC: 1.65547 (Simulation time: 0 hr 48 min 54 sec) 
Heartbeat CPU 0 instructions: 47000000 cycles: 28360053 heartbeat IPC: 1.74416 cumulative IPC: 1.65726 (Simulation time: 0 hr 49 min 58 sec) 
Heartbeat CPU 0 instructions: 48000000 cycles: 28961996 heartbeat IPC: 1.66129 cumulative IPC: 1.65734 (Simulation time: 0 hr 51 min 11 sec) 
Heartbeat CPU 0 instructions: 49000000 cycles: 29541609 heartbeat IPC: 1.72529 cumulative IPC: 1.65868 (Simulation time: 0 hr 52 min 19 sec) 
Heartbeat CPU 0 instructions: 50000000 cycles: 30185045 heartbeat IPC: 1.55416 cumulative IPC: 1.65645 (Simulation time: 0 hr 53 min 29 sec) 

Warmup complete CPU 0 instructions: 50000004 cycles: 30185046 (Simulation time: 0 hr 53 min 29 sec) 

Heartbeat CPU 0 instructions: 51000003 cycles: 33954860 heartbeat IPC: 0.265266 cumulative IPC: 0.265265 (Simulation time: 0 hr 54 min 54 sec) 
Heartbeat CPU 0 instructions: 52000000 cycles: 38023392 heartbeat IPC: 0.245788 cumulative IPC: 0.255155 (Simulation time: 0 hr 56 min 33 sec) 
Heartbeat CPU 0 instructions: 53000000 cycles: 42696846 heartbeat IPC: 0.213975 cumulative IPC: 0.239773 (Simulation time: 0 hr 58 min 6 sec) 
Heartbeat CPU 0 instructions: 54000002 cycles: 46873802 heartbeat IPC: 0.239409 cumulative IPC: 0.239682 (Simulation time: 0 hr 59 min 32 sec) 
Heartbeat CPU 0 instructions: 55000001 cycles: 50843936 heartbeat IPC: 0.25188 cumulative IPC: 0.242026 (Simulation time: 1 hr 1 min 7 sec) 
Heartbeat CPU 0 instructions: 56000000 cycles: 55125800 heartbeat IPC: 0.233543 cumulative IPC: 0.24057 (Simulation time: 1 hr 2 min 32 sec) 
Heartbeat CPU 0 instructions: 57000001 cycles: 59230405 heartbeat IPC: 0.243629 cumulative IPC: 0.241002 (Simulation time: 1 hr 3 min 56 sec) 
Heartbeat CPU 0 instructions: 58000000 cycles: 62536865 heartbeat IPC: 0.302438 cumulative IPC: 0.247281 (Simulation time: 1 hr 5 min 13 sec) 
Heartbeat CPU 0 instructions: 59000003 cycles: 66518425 heartbeat IPC: 0.251159 cumulative IPC: 0.247706 (Simulation time: 1 hr 6 min 35 sec) 
Heartbeat CPU 0 instructions: 60000000 cycles: 70910693 heartbeat IPC: 0.227672 cumulative IPC: 0.245545 (Simulation time: 1 hr 8 min 6 sec) 
Heartbeat CPU 0 instructions: 61000001 cycles: 75305258 heartbeat IPC: 0.227554 cumulative IPC: 0.243793 (Simulation time: 1 hr 9 min 30 sec) 
Heartbeat CPU 0 instructions: 62000000 cycles: 79708699 heartbeat IPC: 0.227095 cumulative IPC: 0.242308 (Simulation time: 1 hr 10 min 48 sec) 
Heartbeat CPU 0 instructions: 63000001 cycles: 83508365 heartbeat IPC: 0.263181 cumulative IPC: 0.243796 (Simulation time: 1 hr 11 min 56 sec) 
Heartbeat CPU 0 instructions: 64000000 cycles: 87356803 heartbeat IPC: 0.259845 cumulative IPC: 0.244876 (Simulation time: 1 hr 12 min 59 sec) 
Heartbeat CPU 0 instructions: 65000001 cycles: 90850695 heartbeat IPC: 0.286214 cumulative IPC: 0.247257 (Simulation time: 1 hr 13 min 59 sec) 
Heartbeat CPU 0 instructions: 66000002 cycles: 95003952 heartbeat IPC: 0.240775 cumulative IPC: 0.246842 (Simulation time: 1 hr 14 min 52 sec) 
Heartbeat CPU 0 instructions: 67000002 cycles: 98798262 heartbeat IPC: 0.263553 cumulative IPC: 0.247766 (Simulation time: 1 hr 15 min 51 sec) 
Heartbeat CPU 0 instructions: 68000000 cycles: 102695667 heartbeat IPC: 0.25658 cumulative IPC: 0.248239 (Simulation time: 1 hr 16 min 45 sec) 
Heartbeat CPU 0 instructions: 69000000 cycles: 106870028 heartbeat IPC: 0.239558 cumulative IPC: 0.247767 (Simulation time: 1 hr 17 min 41 sec) 
Heartbeat CPU 0 instructions: 70000001 cycles: 110618471 heartbeat IPC: 0.266778 cumulative IPC: 0.248653 (Simulation time: 1 hr 18 min 27 sec) 
Heartbeat CPU 0 instructions: 71000003 cycles: 114562789 heartbeat IPC: 0.25353 cumulative IPC: 0.248881 (Simulation time: 1 hr 19 min 12 sec) 
Heartbeat CPU 0 instructions: 72000000 cycles: 119076431 heartbeat IPC: 0.22155 cumulative IPC: 0.247493 (Simulation time: 1 hr 20 min 4 sec) 
Heartbeat CPU 0 instructions: 73000002 cycles: 123156817 heartbeat IPC: 0.245075 cumulative IPC: 0.247387 (Simulation time: 1 hr 20 min 41 sec) 
Heartbeat CPU 0 instructions: 74000000 cycles: 127195498 heartbeat IPC: 0.247605 cumulative IPC: 0.247396 (Simulation time: 1 hr 21 min 19 sec) 
Heartbeat CPU 0 instructions: 75000003 cycles: 131349178 heartbeat IPC: 0.240751 cumulative IPC: 0.247123 (Simulation time: 1 hr 21 min 58 sec) 
Heartbeat CPU 0 instructions: 76000000 cycles: 135293239 heartbeat IPC: 0.253545 cumulative IPC: 0.247364 (Simulation time: 1 hr 22 min 37 sec) 
Heartbeat CPU 0 instructions: 77000002 cycles: 140023214 heartbeat IPC: 0.211418 cumulative IPC: 0.245816 (Simulation time: 1 hr 23 min 17 sec) 
Heartbeat CPU 0 instructions: 78000003 cycles: 143931866 heartbeat IPC: 0.255843 cumulative IPC: 0.246161 (Simulation time: 1 hr 23 min 49 sec) 
Heartbeat CPU 0 instructions: 79000002 cycles: 147856045 heartbeat IPC: 0.25483 cumulative IPC: 0.24645 (Simulation time: 1 hr 24 min 16 sec) 
Heartbeat CPU 0 instructions: 80000000 cycles: 151695812 heartbeat IPC: 0.260432 cumulative IPC: 0.246892 (Simulation time: 1 hr 24 min 42 sec) 
Heartbeat CPU 0 instructions: 81000002 cycles: 155832287 heartbeat IPC: 0.241752 cumulative IPC: 0.246722 (Simulation time: 1 hr 25 min 8 sec) 
Heartbeat CPU 0 instructions: 82000000 cycles: 160476815 heartbeat IPC: 0.215307 cumulative IPC: 0.245603 (Simulation time: 1 hr 25 min 31 sec) 
Heartbeat CPU 0 instructions: 83000002 cycles: 164196022 heartbeat IPC: 0.268875 cumulative IPC: 0.246248 (Simulation time: 1 hr 25 min 53 sec) 
Heartbeat CPU 0 instructions: 84000000 cycles: 168120801 heartbeat IPC: 0.254791 cumulative IPC: 0.246492 (Simulation time: 1 hr 26 min 12 sec) 
Heartbeat CPU 0 instructions: 85000000 cycles: 172037970 heartbeat IPC: 0.255286 cumulative IPC: 0.246734 (Simulation time: 1 hr 26 min 30 sec) 
Heartbeat CPU 0 instructions: 86000000 cycles: 176073585 heartbeat IPC: 0.247794 cumulative IPC: 0.246764 (Simulation time: 1 hr 26 min 48 sec) 
Heartbeat CPU 0 instructions: 87000001 cycles: 179807842 heartbeat IPC: 0.267791 cumulative IPC: 0.247288 (Simulation time: 1 hr 27 min 6 sec) 
Heartbeat CPU 0 instructions: 88000000 cycles: 183711363 heartbeat IPC: 0.256179 cumulative IPC: 0.247515 (Simulation time: 1 hr 27 min 22 sec) 
Heartbeat CPU 0 instructions: 89000003 cycles: 187259278 heartbeat IPC: 0.281857 cumulative IPC: 0.24829 (Simulation time: 1 hr 27 min 38 sec) 
Heartbeat CPU 0 instructions: 90000000 cycles: 191202963 heartbeat IPC: 0.253569 cumulative IPC: 0.24842 (Simulation time: 1 hr 27 min 53 sec) 
Heartbeat CPU 0 instructions: 91000001 cycles: 194935259 heartbeat IPC: 0.267932 cumulative IPC: 0.248862 (Simulation time: 1 hr 28 min 9 sec) 
Heartbeat CPU 0 instructions: 92000000 cycles: 199139440 heartbeat IPC: 0.237858 cumulative IPC: 0.248588 (Simulation time: 1 hr 28 min 25 sec) 
Heartbeat CPU 0 instructions: 93000001 cycles: 203762936 heartbeat IPC: 0.216287 cumulative IPC: 0.247727 (Simulation time: 1 hr 28 min 41 sec) 
Heartbeat CPU 0 instructions: 94000001 cycles: 207700872 heartbeat IPC: 0.25394 cumulative IPC: 0.247865 (Simulation time: 1 hr 28 min 56 sec) 
Heartbeat CPU 0 instructions: 95000000 cycles: 211753324 heartbeat IPC: 0.246764 cumulative IPC: 0.247841 (Simulation time: 1 hr 29 min 9 sec) 
Heartbeat CPU 0 instructions: 96000000 cycles: 216165285 heartbeat IPC: 0.226657 cumulative IPC: 0.247338 (Simulation time: 1 hr 29 min 20 sec) 
Heartbeat CPU 0 instructions: 97000000 cycles: 219919933 heartbeat IPC: 0.266337 cumulative IPC: 0.247714 (Simulation time: 1 hr 29 min 31 sec) 
Heartbeat CPU 0 instructions: 98000000 cycles: 224255180 heartbeat IPC: 0.230667 cumulative IPC: 0.247333 (Simulation time: 1 hr 29 min 43 sec) 
Heartbeat CPU 0 instructions: 99000000 cycles: 228822257 heartbeat IPC: 0.218958 cumulative IPC: 0.246681 (Simulation time: 1 hr 29 min 54 sec) 
Heartbeat CPU 0 instructions: 100000000 cycles: 232925004 heartbeat IPC: 0.243739 cumulative IPC: 0.246621 (Simulation time: 1 hr 30 min 4 sec) 
Heartbeat CPU 0 instructions: 101000000 cycles: 236834078 heartbeat IPC: 0.255815 cumulative IPC: 0.246795 (Simulation time: 1 hr 30 min 14 sec) 
Heartbeat CPU 0 instructions: 102000003 cycles: 241134366 heartbeat IPC: 0.232543 cumulative IPC: 0.246505 (Simulation time: 1 hr 30 min 24 sec) 
Heartbeat CPU 0 instructions: 103000000 cycles: 244999381 heartbeat IPC: 0.25873 cumulative IPC: 0.246725 (Simulation time: 1 hr 30 min 34 sec) 
Heartbeat CPU 0 instructions: 104000000 cycles: 248827235 heartbeat IPC: 0.261243 cumulative IPC: 0.246979 (Simulation time: 1 hr 30 min 43 sec) 
Heartbeat CPU 0 instructions: 105000003 cycles: 253011437 heartbeat IPC: 0.238995 cumulative IPC: 0.246829 (Simulation time: 1 hr 30 min 52 sec) 
Heartbeat CPU 0 instructions: 106000001 cycles: 256678471 heartbeat IPC: 0.272699 cumulative IPC: 0.247248 (Simulation time: 1 hr 31 min 0 sec) 
Heartbeat CPU 0 instructions: 107000000 cycles: 260919185 heartbeat IPC: 0.235809 cumulative IPC: 0.247038 (Simulation time: 1 hr 31 min 9 sec) 
Heartbeat CPU 0 instructions: 108000000 cycles: 265044593 heartbeat IPC: 0.2424 cumulative IPC: 0.246956 (Simulation time: 1 hr 31 min 18 sec) 
Heartbeat CPU 0 instructions: 109000000 cycles: 269566690 heartbeat IPC: 0.221136 cumulative IPC: 0.246468 (Simulation time: 1 hr 31 min 25 sec) 
Heartbeat CPU 0 instructions: 110000000 cycles: 273351271 heartbeat IPC: 0.26423 cumulative IPC: 0.246745 (Simulation time: 1 hr 31 min 32 sec) 
Heartbeat CPU 0 instructions: 111000002 cycles: 278032363 heartbeat IPC: 0.213626 cumulative IPC: 0.246119 (Simulation time: 1 hr 31 min 40 sec) 
Heartbeat CPU 0 instructions: 112000000 cycles: 282056402 heartbeat IPC: 0.248506 cumulative IPC: 0.246157 (Simulation time: 1 hr 31 min 47 sec) 
Heartbeat CPU 0 instructions: 113000002 cycles: 285714941 heartbeat IPC: 0.273334 cumulative IPC: 0.246546 (Simulation time: 1 hr 31 min 54 sec) 
Heartbeat CPU 0 instructions: 114000000 cycles: 289157327 heartbeat IPC: 0.290496 cumulative IPC: 0.247131 (Simulation time: 1 hr 32 min 0 sec) 
Heartbeat CPU 0 instructions: 115000000 cycles: 292967713 heartbeat IPC: 0.262441 cumulative IPC: 0.247353 (Simulation time: 1 hr 32 min 6 sec) 
Heartbeat CPU 0 instructions: 116000000 cycles: 297184293 heartbeat IPC: 0.237159 cumulative IPC: 0.247192 (Simulation time: 1 hr 32 min 13 sec) 
Heartbeat CPU 0 instructions: 117000000 cycles: 300985002 heartbeat IPC: 0.263109 cumulative IPC: 0.247415 (Simulation time: 1 hr 32 min 20 sec) 
Heartbeat CPU 0 instructions: 118000000 cycles: 304644749 heartbeat IPC: 0.273243 cumulative IPC: 0.247759 (Simulation time: 1 hr 32 min 26 sec) 
Heartbeat CPU 0 instructions: 119000003 cycles: 308513181 heartbeat IPC: 0.258503 cumulative IPC: 0.247909 (Simulation time: 1 hr 32 min 33 sec) 
Heartbeat CPU 0 instructions: 120000000 cycles: 312276697 heartbeat IPC: 0.265708 cumulative IPC: 0.248146 (Simulation time: 1 hr 32 min 39 sec) 
Heartbeat CPU 0 instructions: 121000001 cycles: 315882624 heartbeat IPC: 0.277321 cumulative IPC: 0.248515 (Simulation time: 1 hr 32 min 45 sec) 
Heartbeat CPU 0 instructions: 122000001 cycles: 319614974 heartbeat IPC: 0.267928 cumulative IPC: 0.248765 (Simulation time: 1 hr 32 min 52 sec) 
Heartbeat CPU 0 instructions: 123000003 cycles: 323310211 heartbeat IPC: 0.270619 cumulative IPC: 0.24904 (Simulation time: 1 hr 32 min 58 sec) 
Heartbeat CPU 0 instructions: 124000000 cycles: 327126196 heartbeat IPC: 0.262055 cumulative IPC: 0.249208 (Simulation time: 1 hr 33 min 4 sec) 
Heartbeat CPU 0 instructions: 125000001 cycles: 330818441 heartbeat IPC: 0.270838 cumulative IPC: 0.249473 (Simulation time: 1 hr 33 min 10 sec) 
Heartbeat CPU 0 instructions: 126000003 cycles: 334422972 heartbeat IPC: 0.277429 cumulative IPC: 0.249804 (Simulation time: 1 hr 33 min 16 sec) 
Heartbeat CPU 0 instructions: 127000001 cycles: 337937766 heartbeat IPC: 0.284511 cumulative IPC: 0.250201 (Simulation time: 1 hr 33 min 22 sec) 
Heartbeat CPU 0 instructions: 128000000 cycles: 341569010 heartbeat IPC: 0.275387 cumulative IPC: 0.250495 (Simulation time: 1 hr 33 min 28 sec) 
Heartbeat CPU 0 instructions: 129000001 cycles: 344948295 heartbeat IPC: 0.295921 cumulative IPC: 0.250982 (Simulation time: 1 hr 33 min 33 sec) 
Heartbeat CPU 0 instructions: 130000000 cycles: 348666341 heartbeat IPC: 0.268958 cumulative IPC: 0.251192 (Simulation time: 1 hr 33 min 38 sec) 
Heartbeat CPU 0 instructions: 131000000 cycles: 352423358 heartbeat IPC: 0.266169 cumulative IPC: 0.251367 (Simulation time: 1 hr 33 min 43 sec) 
Heartbeat CPU 0 instructions: 132000000 cycles: 356266561 heartbeat IPC: 0.2602 cumulative IPC: 0.251471 (Simulation time: 1 hr 33 min 49 sec) 
Heartbeat CPU 0 instructions: 133000003 cycles: 360308426 heartbeat IPC: 0.247411 cumulative IPC: 0.251421 (Simulation time: 1 hr 33 min 54 sec) 
Heartbeat CPU 0 instructions: 134000000 cycles: 364479674 heartbeat IPC: 0.239736 cumulative IPC: 0.251275 (Simulation time: 1 hr 33 min 59 sec) 
Heartbeat CPU 0 instructions: 135000001 cycles: 368349404 heartbeat IPC: 0.258416 cumulative IPC: 0.251357 (Simulation time: 1 hr 34 min 3 sec) 
Heartbeat CPU 0 instructions: 136000000 cycles: 372192226 heartbeat IPC: 0.260225 cumulative IPC: 0.251457 (Simulation time: 1 hr 34 min 8 sec) 
Heartbeat CPU 0 instructions: 137000000 cycles: 376115219 heartbeat IPC: 0.254907 cumulative IPC: 0.251496 (Simulation time: 1 hr 34 min 14 sec) 
Heartbeat CPU 0 instructions: 138000000 cycles: 379990989 heartbeat IPC: 0.258013 cumulative IPC: 0.251568 (Simulation time: 1 hr 34 min 19 sec) 
Heartbeat CPU 0 instructions: 139000000 cycles: 384026510 heartbeat IPC: 0.247799 cumulative IPC: 0.251525 (Simulation time: 1 hr 34 min 25 sec) 
Heartbeat CPU 0 instructions: 140000000 cycles: 387657623 heartbeat IPC: 0.275398 cumulative IPC: 0.251768 (Simulation time: 1 hr 34 min 31 sec) 
Heartbeat CPU 0 instructions: 141000001 cycles: 392136255 heartbeat IPC: 0.223283 cumulative IPC: 0.251415 (Simulation time: 1 hr 34 min 37 sec) 
Heartbeat CPU 0 instructions: 142000000 cycles: 396306641 heartbeat IPC: 0.239786 cumulative IPC: 0.251283 (Simulation time: 1 hr 34 min 43 sec) 
Heartbeat CPU 0 instructions: 143000000 cycles: 400461166 heartbeat IPC: 0.240701 cumulative IPC: 0.251164 (Simulation time: 1 hr 34 min 49 sec) 
Heartbeat CPU 0 instructions: 144000000 cycles: 404477041 heartbeat IPC: 0.249012 cumulative IPC: 0.251141 (Simulation time: 1 hr 34 min 54 sec) 
Heartbeat CPU 0 instructions: 145000001 cycles: 407846039 heartbeat IPC: 0.296824 cumulative IPC: 0.251548 (Simulation time: 1 hr 35 min 0 sec) 
Heartbeat CPU 0 instructions: 146000001 cycles: 412190832 heartbeat IPC: 0.230161 cumulative IPC: 0.251305 (Simulation time: 1 hr 35 min 6 sec) 
Heartbeat CPU 0 instructions: 147000002 cycles: 416521803 heartbeat IPC: 0.230895 cumulative IPC: 0.251076 (Simulation time: 1 hr 35 min 11 sec) 
Heartbeat CPU 0 instructions: 148000000 cycles: 420362178 heartbeat IPC: 0.260391 cumulative IPC: 0.251168 (Simulation time: 1 hr 35 min 17 sec) 
Heartbeat CPU 0 instructions: 149000000 cycles: 424134685 heartbeat IPC: 0.265076 cumulative IPC: 0.251301 (Simulation time: 1 hr 35 min 22 sec) 
Heartbeat CPU 0 instructions: 150000000 cycles: 427343315 heartbeat IPC: 0.311659 cumulative IPC: 0.251789 (Simulation time: 1 hr 35 min 27 sec) 
Finished CPU 0 instructions: 100000000 cycles: 397158270 cummulative IPC: 0.251789 (Simulation time: 1 hr 35 min 27 sec) 

ChampSim completed all CPUs

Region of Interest Statistics

CPU 0 cummulative IPC: 0.251789 instructions: 100000000 cycles: 397158270
LLC TOTAL     ACCESS:    4288083  HIT:    1396964  MISS:    2891119
LLC LOAD      ACCESS:    1518853  HIT:     391039  MISS:    1127814
LLC RFO       ACCESS:     246730  HIT:      84830  MISS:     161900
LLC PREFETCH  ACCESS:    1524961  HIT:     325456  MISS:    1199505
LLC WRITEBACK ACCESS:     997539  HIT:     595639  MISS:     401900
OPTgen accesses: 159471
OPTgen hits: 31780
OPTgen hit rate: 19.9284


