
*** ChampSim Multicore Out-of-Order Simulator ***

Warmup Instructions: 50000000
Simulation Instructions: 100000000
Configuration: 2
Number of CPUs: 1
LLC sets: 2048
LLC ways: 16
Off-chip DRAM Channels: 1 Width: 64-bit Data Rate: 1600 MT/s

CPU 0 runs /datasets/cs240c-wi22-a00-public/data/Assignment2-gz/bzip2_259B.trace.gz
CPU 0 L1D next line prefetcher
CPU 0 L2C IP-based stride prefetcher
Initialize Hawkeye state
Heartbeat CPU 0 instructions: 1000002 cycles: 428875 heartbeat IPC: 2.33169 cumulative IPC: 2.33169 (Simulation time: 0 hr 0 min 30 sec) 
Heartbeat CPU 0 instructions: 2000003 cycles: 861057 heartbeat IPC: 2.31384 cumulative IPC: 2.32273 (Simulation time: 0 hr 0 min 59 sec) 
Heartbeat CPU 0 instructions: 3000001 cycles: 1286790 heartbeat IPC: 2.34889 cumulative IPC: 2.33138 (Simulation time: 0 hr 1 min 27 sec) 
Heartbeat CPU 0 instructions: 4000000 cycles: 1685062 heartbeat IPC: 2.51084 cumulative IPC: 2.3738 (Simulation time: 0 hr 1 min 55 sec) 
Heartbeat CPU 0 instructions: 5000001 cycles: 2103495 heartbeat IPC: 2.38987 cumulative IPC: 2.377 (Simulation time: 0 hr 2 min 30 sec) 
Heartbeat CPU 0 instructions: 6000001 cycles: 2532858 heartbeat IPC: 2.32903 cumulative IPC: 2.36887 (Simulation time: 0 hr 2 min 59 sec) 
Heartbeat CPU 0 instructions: 7000003 cycles: 2961906 heartbeat IPC: 2.33075 cumulative IPC: 2.36334 (Simulation time: 0 hr 3 min 33 sec) 
Heartbeat CPU 0 instructions: 8000000 cycles: 3391719 heartbeat IPC: 2.32659 cumulative IPC: 2.35869 (Simulation time: 0 hr 4 min 3 sec) 
Heartbeat CPU 0 instructions: 9000000 cycles: 3819845 heartbeat IPC: 2.33576 cumulative IPC: 2.35612 (Simulation time: 0 hr 4 min 36 sec) 
Heartbeat CPU 0 instructions: 10000002 cycles: 4193917 heartbeat IPC: 2.67329 cumulative IPC: 2.38441 (Simulation time: 0 hr 5 min 1 sec) 
Heartbeat CPU 0 instructions: 11000003 cycles: 4560316 heartbeat IPC: 2.72927 cumulative IPC: 2.41211 (Simulation time: 0 hr 5 min 24 sec) 
Heartbeat CPU 0 instructions: 12000000 cycles: 5001191 heartbeat IPC: 2.26821 cumulative IPC: 2.39943 (Simulation time: 0 hr 5 min 53 sec) 
Heartbeat CPU 0 instructions: 13000003 cycles: 5458026 heartbeat IPC: 2.18898 cumulative IPC: 2.38181 (Simulation time: 0 hr 6 min 20 sec) 
Heartbeat CPU 0 instructions: 14000002 cycles: 5909700 heartbeat IPC: 2.21398 cumulative IPC: 2.36899 (Simulation time: 0 hr 6 min 52 sec) 
Heartbeat CPU 0 instructions: 15000003 cycles: 6349536 heartbeat IPC: 2.27358 cumulative IPC: 2.36238 (Simulation time: 0 hr 7 min 24 sec) 
Heartbeat CPU 0 instructions: 16000000 cycles: 6790846 heartbeat IPC: 2.26597 cumulative IPC: 2.35611 (Simulation time: 0 hr 7 min 53 sec) 
Heartbeat CPU 0 instructions: 17000003 cycles: 7220650 heartbeat IPC: 2.32665 cumulative IPC: 2.35436 (Simulation time: 0 hr 8 min 20 sec) 
Heartbeat CPU 0 instructions: 18000000 cycles: 7665015 heartbeat IPC: 2.2504 cumulative IPC: 2.34833 (Simulation time: 0 hr 8 min 50 sec) 
Heartbeat CPU 0 instructions: 19000002 cycles: 8147840 heartbeat IPC: 2.07115 cumulative IPC: 2.33191 (Simulation time: 0 hr 9 min 14 sec) 
Heartbeat CPU 0 instructions: 20000000 cycles: 8643307 heartbeat IPC: 2.01829 cumulative IPC: 2.31393 (Simulation time: 0 hr 9 min 37 sec) 
Heartbeat CPU 0 instructions: 21000001 cycles: 9135631 heartbeat IPC: 2.03118 cumulative IPC: 2.29869 (Simulation time: 0 hr 9 min 57 sec) 
Heartbeat CPU 0 instructions: 22000002 cycles: 9619375 heartbeat IPC: 2.06721 cumulative IPC: 2.28705 (Simulation time: 0 hr 10 min 20 sec) 
Heartbeat CPU 0 instructions: 23000003 cycles: 10105036 heartbeat IPC: 2.05905 cumulative IPC: 2.27609 (Simulation time: 0 hr 10 min 44 sec) 
Heartbeat CPU 0 instructions: 24000000 cycles: 10588798 heartbeat IPC: 2.06713 cumulative IPC: 2.26655 (Simulation time: 0 hr 11 min 8 sec) 
Heartbeat CPU 0 instructions: 25000000 cycles: 11074048 heartbeat IPC: 2.06079 cumulative IPC: 2.25753 (Simulation time: 0 hr 11 min 30 sec) 
Heartbeat CPU 0 instructions: 26000003 cycles: 11575480 heartbeat IPC: 1.99429 cumulative IPC: 2.24613 (Simulation time: 0 hr 11 min 52 sec) 
Heartbeat CPU 0 instructions: 27000000 cycles: 12067527 heartbeat IPC: 2.03232 cumulative IPC: 2.23741 (Simulation time: 0 hr 12 min 14 sec) 
Heartbeat CPU 0 instructions: 28000000 cycles: 12555562 heartbeat IPC: 2.04903 cumulative IPC: 2.23009 (Simulation time: 0 hr 12 min 35 sec) 
Heartbeat CPU 0 instructions: 29000000 cycles: 13045175 heartbeat IPC: 2.04243 cumulative IPC: 2.22304 (Simulation time: 0 hr 12 min 56 sec) 
Heartbeat CPU 0 instructions: 30000000 cycles: 13545456 heartbeat IPC: 1.99888 cumulative IPC: 2.21476 (Simulation time: 0 hr 13 min 18 sec) 
Heartbeat CPU 0 instructions: 31000000 cycles: 14108399 heartbeat IPC: 1.77638 cumulative IPC: 2.19727 (Simulation time: 0 hr 13 min 41 sec) 
Heartbeat CPU 0 instructions: 32000000 cycles: 14701297 heartbeat IPC: 1.68663 cumulative IPC: 2.17668 (Simulation time: 0 hr 14 min 8 sec) 
Heartbeat CPU 0 instructions: 33000003 cycles: 15222943 heartbeat IPC: 1.91701 cumulative IPC: 2.16778 (Simulation time: 0 hr 14 min 33 sec) 
Heartbeat CPU 0 instructions: 34000002 cycles: 15623472 heartbeat IPC: 2.4967 cumulative IPC: 2.17621 (Simulation time: 0 hr 14 min 53 sec) 
Heartbeat CPU 0 instructions: 35000003 cycles: 16022693 heartbeat IPC: 2.50488 cumulative IPC: 2.1844 (Simulation time: 0 hr 15 min 17 sec) 
Heartbeat CPU 0 instructions: 36000000 cycles: 16463715 heartbeat IPC: 2.26745 cumulative IPC: 2.18663 (Simulation time: 0 hr 15 min 43 sec) 
Heartbeat CPU 0 instructions: 37000000 cycles: 16855117 heartbeat IPC: 2.55492 cumulative IPC: 2.19518 (Simulation time: 0 hr 16 min 11 sec) 
Heartbeat CPU 0 instructions: 38000000 cycles: 17277530 heartbeat IPC: 2.36735 cumulative IPC: 2.19939 (Simulation time: 0 hr 16 min 41 sec) 
Heartbeat CPU 0 instructions: 39000000 cycles: 17708886 heartbeat IPC: 2.31827 cumulative IPC: 2.20228 (Simulation time: 0 hr 17 min 12 sec) 
Heartbeat CPU 0 instructions: 40000000 cycles: 18130603 heartbeat IPC: 2.37126 cumulative IPC: 2.20621 (Simulation time: 0 hr 17 min 41 sec) 
Heartbeat CPU 0 instructions: 41000001 cycles: 18555133 heartbeat IPC: 2.35555 cumulative IPC: 2.20963 (Simulation time: 0 hr 18 min 10 sec) 
Heartbeat CPU 0 instructions: 42000000 cycles: 18992831 heartbeat IPC: 2.28468 cumulative IPC: 2.21136 (Simulation time: 0 hr 18 min 39 sec) 
Heartbeat CPU 0 instructions: 43000003 cycles: 19425781 heartbeat IPC: 2.30974 cumulative IPC: 2.21355 (Simulation time: 0 hr 19 min 8 sec) 
Heartbeat CPU 0 instructions: 44000000 cycles: 19857758 heartbeat IPC: 2.31493 cumulative IPC: 2.21576 (Simulation time: 0 hr 19 min 37 sec) 
Heartbeat CPU 0 instructions: 45000002 cycles: 20288750 heartbeat IPC: 2.32023 cumulative IPC: 2.21798 (Simulation time: 0 hr 20 min 7 sec) 
Heartbeat CPU 0 instructions: 46000001 cycles: 20720164 heartbeat IPC: 2.31796 cumulative IPC: 2.22006 (Simulation time: 0 hr 20 min 40 sec) 
Heartbeat CPU 0 instructions: 47000003 cycles: 21151524 heartbeat IPC: 2.31825 cumulative IPC: 2.22206 (Simulation time: 0 hr 21 min 10 sec) 
Heartbeat CPU 0 instructions: 48000000 cycles: 21585023 heartbeat IPC: 2.3068 cumulative IPC: 2.22376 (Simulation time: 0 hr 21 min 41 sec) 
Heartbeat CPU 0 instructions: 49000003 cycles: 22023126 heartbeat IPC: 2.28258 cumulative IPC: 2.22493 (Simulation time: 0 hr 22 min 11 sec) 
Heartbeat CPU 0 instructions: 50000003 cycles: 22440925 heartbeat IPC: 2.3935 cumulative IPC: 2.22807 (Simulation time: 0 hr 22 min 40 sec) 

Warmup complete CPU 0 instructions: 50000003 cycles: 22440925 (Simulation time: 0 hr 22 min 40 sec) 

Heartbeat CPU 0 instructions: 51000002 cycles: 23605457 heartbeat IPC: 0.858713 cumulative IPC: 0.858713 (Simulation time: 0 hr 23 min 7 sec) 
Heartbeat CPU 0 instructions: 52000000 cycles: 24723620 heartbeat IPC: 0.894322 cumulative IPC: 0.876156 (Simulation time: 0 hr 23 min 34 sec) 
Heartbeat CPU 0 instructions: 53000001 cycles: 25919675 heartbeat IPC: 0.836083 cumulative IPC: 0.862378 (Simulation time: 0 hr 24 min 1 sec) 
Heartbeat CPU 0 instructions: 54000000 cycles: 27145428 heartbeat IPC: 0.815824 cumulative IPC: 0.850249 (Simulation time: 0 hr 24 min 32 sec) 
Heartbeat CPU 0 instructions: 55000000 cycles: 28297031 heartbeat IPC: 0.868355 cumulative IPC: 0.853809 (Simulation time: 0 hr 24 min 57 sec) 
Heartbeat CPU 0 instructions: 56000000 cycles: 29521796 heartbeat IPC: 0.816483 cumulative IPC: 0.847353 (Simulation time: 0 hr 25 min 24 sec) 
Heartbeat CPU 0 instructions: 57000000 cycles: 30742845 heartbeat IPC: 0.818968 cumulative IPC: 0.843178 (Simulation time: 0 hr 25 min 59 sec) 
Heartbeat CPU 0 instructions: 58000002 cycles: 31775895 heartbeat IPC: 0.968009 cumulative IPC: 0.856992 (Simulation time: 0 hr 26 min 30 sec) 
Heartbeat CPU 0 instructions: 59000000 cycles: 32876791 heartbeat IPC: 0.908349 cumulative IPC: 0.86241 (Simulation time: 0 hr 26 min 57 sec) 
Heartbeat CPU 0 instructions: 60000000 cycles: 34056760 heartbeat IPC: 0.84748 cumulative IPC: 0.860893 (Simulation time: 0 hr 27 min 24 sec) 
Heartbeat CPU 0 instructions: 61000000 cycles: 35200900 heartbeat IPC: 0.874019 cumulative IPC: 0.86207 (Simulation time: 0 hr 27 min 52 sec) 
Heartbeat CPU 0 instructions: 62000002 cycles: 36045090 heartbeat IPC: 1.18457 cumulative IPC: 0.882083 (Simulation time: 0 hr 28 min 19 sec) 
Heartbeat CPU 0 instructions: 63000003 cycles: 36949455 heartbeat IPC: 1.10575 cumulative IPC: 0.896025 (Simulation time: 0 hr 28 min 48 sec) 
Heartbeat CPU 0 instructions: 64000000 cycles: 38017432 heartbeat IPC: 0.936347 cumulative IPC: 0.898789 (Simulation time: 0 hr 29 min 21 sec) 
Heartbeat CPU 0 instructions: 65000003 cycles: 39006625 heartbeat IPC: 1.01093 cumulative IPC: 0.905485 (Simulation time: 0 hr 29 min 54 sec) 
Heartbeat CPU 0 instructions: 66000003 cycles: 39980077 heartbeat IPC: 1.02727 cumulative IPC: 0.912245 (Simulation time: 0 hr 30 min 29 sec) 
Heartbeat CPU 0 instructions: 67000003 cycles: 41065205 heartbeat IPC: 0.92155 cumulative IPC: 0.912787 (Simulation time: 0 hr 31 min 8 sec) 
Heartbeat CPU 0 instructions: 68000000 cycles: 42195031 heartbeat IPC: 0.885089 cumulative IPC: 0.911203 (Simulation time: 0 hr 31 min 43 sec) 
Heartbeat CPU 0 instructions: 69000003 cycles: 43344970 heartbeat IPC: 0.869614 cumulative IPC: 0.908915 (Simulation time: 0 hr 32 min 16 sec) 
Heartbeat CPU 0 instructions: 70000003 cycles: 44636794 heartbeat IPC: 0.774099 cumulative IPC: 0.901069 (Simulation time: 0 hr 32 min 49 sec) 
Heartbeat CPU 0 instructions: 71000000 cycles: 45922751 heartbeat IPC: 0.777629 cumulative IPC: 0.894309 (Simulation time: 0 hr 33 min 24 sec) 
Heartbeat CPU 0 instructions: 72000000 cycles: 47070819 heartbeat IPC: 0.871029 cumulative IPC: 0.893223 (Simulation time: 0 hr 33 min 53 sec) 
Heartbeat CPU 0 instructions: 73000003 cycles: 48427935 heartbeat IPC: 0.736859 cumulative IPC: 0.885058 (Simulation time: 0 hr 34 min 27 sec) 
Heartbeat CPU 0 instructions: 74000001 cycles: 49637065 heartbeat IPC: 0.827039 cumulative IPC: 0.882478 (Simulation time: 0 hr 34 min 59 sec) 
Heartbeat CPU 0 instructions: 75000000 cycles: 50794559 heartbeat IPC: 0.863935 cumulative IPC: 0.881721 (Simulation time: 0 hr 35 min 31 sec) 
Heartbeat CPU 0 instructions: 76000000 cycles: 51894457 heartbeat IPC: 0.909175 cumulative IPC: 0.882746 (Simulation time: 0 hr 36 min 1 sec) 
Heartbeat CPU 0 instructions: 77000003 cycles: 52871152 heartbeat IPC: 1.02386 cumulative IPC: 0.887276 (Simulation time: 0 hr 36 min 30 sec) 
Heartbeat CPU 0 instructions: 78000000 cycles: 53852956 heartbeat IPC: 1.01853 cumulative IPC: 0.891378 (Simulation time: 0 hr 37 min 1 sec) 
Heartbeat CPU 0 instructions: 79000003 cycles: 54973512 heartbeat IPC: 0.892417 cumulative IPC: 0.891414 (Simulation time: 0 hr 37 min 30 sec) 
Heartbeat CPU 0 instructions: 80000000 cycles: 56300439 heartbeat IPC: 0.753619 cumulative IPC: 0.886014 (Simulation time: 0 hr 38 min 2 sec) 
Heartbeat CPU 0 instructions: 81000001 cycles: 57477288 heartbeat IPC: 0.849728 cumulative IPC: 0.884795 (Simulation time: 0 hr 38 min 32 sec) 
Heartbeat CPU 0 instructions: 82000003 cycles: 58607217 heartbeat IPC: 0.885013 cumulative IPC: 0.884802 (Simulation time: 0 hr 39 min 2 sec) 
Heartbeat CPU 0 instructions: 83000002 cycles: 59686726 heartbeat IPC: 0.926346 cumulative IPC: 0.886006 (Simulation time: 0 hr 39 min 36 sec) 
Heartbeat CPU 0 instructions: 84000000 cycles: 60645521 heartbeat IPC: 1.04297 cumulative IPC: 0.889945 (Simulation time: 0 hr 40 min 7 sec) 
Heartbeat CPU 0 instructions: 85000003 cycles: 61604726 heartbeat IPC: 1.04253 cumulative IPC: 0.893682 (Simulation time: 0 hr 40 min 40 sec) 
Heartbeat CPU 0 instructions: 86000003 cycles: 62677817 heartbeat IPC: 0.931887 cumulative IPC: 0.894701 (Simulation time: 0 hr 41 min 15 sec) 
Heartbeat CPU 0 instructions: 87000002 cycles: 63767193 heartbeat IPC: 0.917956 cumulative IPC: 0.895314 (Simulation time: 0 hr 41 min 42 sec) 
Heartbeat CPU 0 instructions: 88000000 cycles: 64898661 heartbeat IPC: 0.883806 cumulative IPC: 0.895008 (Simulation time: 0 hr 42 min 9 sec) 
Heartbeat CPU 0 instructions: 89000002 cycles: 65905030 heartbeat IPC: 0.993673 cumulative IPC: 0.897292 (Simulation time: 0 hr 42 min 34 sec) 
Heartbeat CPU 0 instructions: 90000001 cycles: 67028049 heartbeat IPC: 0.890456 cumulative IPC: 0.89712 (Simulation time: 0 hr 42 min 59 sec) 
Heartbeat CPU 0 instructions: 91000002 cycles: 68141685 heartbeat IPC: 0.89796 cumulative IPC: 0.89714 (Simulation time: 0 hr 43 min 24 sec) 
Heartbeat CPU 0 instructions: 92000000 cycles: 69180203 heartbeat IPC: 0.962909 cumulative IPC: 0.898602 (Simulation time: 0 hr 43 min 49 sec) 
Heartbeat CPU 0 instructions: 93000000 cycles: 70368617 heartbeat IPC: 0.841458 cumulative IPC: 0.897185 (Simulation time: 0 hr 44 min 17 sec) 
Heartbeat CPU 0 instructions: 94000003 cycles: 71544803 heartbeat IPC: 0.850208 cumulative IPC: 0.89606 (Simulation time: 0 hr 44 min 43 sec) 
Heartbeat CPU 0 instructions: 95000002 cycles: 72730844 heartbeat IPC: 0.84314 cumulative IPC: 0.894812 (Simulation time: 0 hr 45 min 8 sec) 
Heartbeat CPU 0 instructions: 96000000 cycles: 73900926 heartbeat IPC: 0.854639 cumulative IPC: 0.893898 (Simulation time: 0 hr 45 min 33 sec) 
Heartbeat CPU 0 instructions: 97000002 cycles: 75117841 heartbeat IPC: 0.821752 cumulative IPC: 0.892231 (Simulation time: 0 hr 45 min 57 sec) 
Heartbeat CPU 0 instructions: 98000000 cycles: 76351195 heartbeat IPC: 0.810796 cumulative IPC: 0.890368 (Simulation time: 0 hr 46 min 21 sec) 
Heartbeat CPU 0 instructions: 99000000 cycles: 77590863 heartbeat IPC: 0.806668 cumulative IPC: 0.888487 (Simulation time: 0 hr 46 min 46 sec) 
Heartbeat CPU 0 instructions: 100000000 cycles: 78832930 heartbeat IPC: 0.80511 cumulative IPC: 0.88665 (Simulation time: 0 hr 47 min 11 sec) 
Heartbeat CPU 0 instructions: 101000003 cycles: 79980688 heartbeat IPC: 0.871266 cumulative IPC: 0.886344 (Simulation time: 0 hr 47 min 37 sec) 
Heartbeat CPU 0 instructions: 102000000 cycles: 81100771 heartbeat IPC: 0.892788 cumulative IPC: 0.886467 (Simulation time: 0 hr 48 min 2 sec) 
Heartbeat CPU 0 instructions: 103000000 cycles: 82202123 heartbeat IPC: 0.907975 cumulative IPC: 0.886863 (Simulation time: 0 hr 48 min 28 sec) 
Heartbeat CPU 0 instructions: 104000000 cycles: 83355380 heartbeat IPC: 0.867109 cumulative IPC: 0.886489 (Simulation time: 0 hr 48 min 52 sec) 
Heartbeat CPU 0 instructions: 105000002 cycles: 84567373 heartbeat IPC: 0.825089 cumulative IPC: 0.885291 (Simulation time: 0 hr 49 min 17 sec) 
Heartbeat CPU 0 instructions: 106000001 cycles: 85700933 heartbeat IPC: 0.882176 cumulative IPC: 0.885235 (Simulation time: 0 hr 49 min 43 sec) 
Heartbeat CPU 0 instructions: 107000000 cycles: 86904208 heartbeat IPC: 0.831064 cumulative IPC: 0.884224 (Simulation time: 0 hr 50 min 9 sec) 
Heartbeat CPU 0 instructions: 108000000 cycles: 88103965 heartbeat IPC: 0.833502 cumulative IPC: 0.883297 (Simulation time: 0 hr 50 min 37 sec) 
Heartbeat CPU 0 instructions: 109000000 cycles: 89116303 heartbeat IPC: 0.987812 cumulative IPC: 0.884884 (Simulation time: 0 hr 51 min 3 sec) 
Heartbeat CPU 0 instructions: 110000000 cycles: 90279229 heartbeat IPC: 0.8599 cumulative IPC: 0.884456 (Simulation time: 0 hr 51 min 29 sec) 
Heartbeat CPU 0 instructions: 111000002 cycles: 91404288 heartbeat IPC: 0.888844 cumulative IPC: 0.884528 (Simulation time: 0 hr 51 min 57 sec) 
Heartbeat CPU 0 instructions: 112000000 cycles: 92552917 heartbeat IPC: 0.870601 cumulative IPC: 0.884299 (Simulation time: 0 hr 52 min 21 sec) 
Heartbeat CPU 0 instructions: 113000003 cycles: 93483249 heartbeat IPC: 1.07489 cumulative IPC: 0.886795 (Simulation time: 0 hr 52 min 44 sec) 
Heartbeat CPU 0 instructions: 114000001 cycles: 94224650 heartbeat IPC: 1.3488 cumulative IPC: 0.891567 (Simulation time: 0 hr 53 min 15 sec) 
Heartbeat CPU 0 instructions: 115000001 cycles: 95311536 heartbeat IPC: 0.92006 cumulative IPC: 0.891992 (Simulation time: 0 hr 53 min 47 sec) 
Heartbeat CPU 0 instructions: 116000000 cycles: 96279416 heartbeat IPC: 1.03318 cumulative IPC: 0.893843 (Simulation time: 0 hr 54 min 18 sec) 
Heartbeat CPU 0 instructions: 117000003 cycles: 97237516 heartbeat IPC: 1.04374 cumulative IPC: 0.895763 (Simulation time: 0 hr 54 min 58 sec) 
Heartbeat CPU 0 instructions: 118000001 cycles: 98187689 heartbeat IPC: 1.05244 cumulative IPC: 0.897728 (Simulation time: 0 hr 55 min 31 sec) 
Heartbeat CPU 0 instructions: 119000001 cycles: 99261414 heartbeat IPC: 0.931337 cumulative IPC: 0.898198 (Simulation time: 0 hr 56 min 4 sec) 
Heartbeat CPU 0 instructions: 120000000 cycles: 100449476 heartbeat IPC: 0.841706 cumulative IPC: 0.897337 (Simulation time: 0 hr 56 min 39 sec) 
Heartbeat CPU 0 instructions: 121000002 cycles: 101596875 heartbeat IPC: 0.871538 cumulative IPC: 0.896964 (Simulation time: 0 hr 57 min 12 sec) 
Heartbeat CPU 0 instructions: 122000000 cycles: 103123789 heartbeat IPC: 0.654914 cumulative IPC: 0.892383 (Simulation time: 0 hr 57 min 44 sec) 
Heartbeat CPU 0 instructions: 123000000 cycles: 104445649 heartbeat IPC: 0.75651 cumulative IPC: 0.890193 (Simulation time: 0 hr 58 min 15 sec) 
Heartbeat CPU 0 instructions: 124000000 cycles: 105712143 heartbeat IPC: 0.789581 cumulative IPC: 0.888662 (Simulation time: 0 hr 58 min 47 sec) 
Heartbeat CPU 0 instructions: 125000001 cycles: 106926185 heartbeat IPC: 0.823696 cumulative IPC: 0.887729 (Simulation time: 0 hr 59 min 17 sec) 
Heartbeat CPU 0 instructions: 126000002 cycles: 107963188 heartbeat IPC: 0.964318 cumulative IPC: 0.888658 (Simulation time: 0 hr 59 min 46 sec) 
Heartbeat CPU 0 instructions: 127000001 cycles: 109021810 heartbeat IPC: 0.944623 cumulative IPC: 0.889342 (Simulation time: 1 hr 0 min 17 sec) 
Heartbeat CPU 0 instructions: 128000000 cycles: 110174230 heartbeat IPC: 0.867738 cumulative IPC: 0.889058 (Simulation time: 1 hr 0 min 45 sec) 
Heartbeat CPU 0 instructions: 129000002 cycles: 111389266 heartbeat IPC: 0.823023 cumulative IPC: 0.888156 (Simulation time: 1 hr 1 min 18 sec) 
Heartbeat CPU 0 instructions: 130000001 cycles: 112711210 heartbeat IPC: 0.756461 cumulative IPC: 0.886227 (Simulation time: 1 hr 1 min 51 sec) 
Heartbeat CPU 0 instructions: 131000003 cycles: 113964867 heartbeat IPC: 0.797668 cumulative IPC: 0.885014 (Simulation time: 1 hr 2 min 23 sec) 
Heartbeat CPU 0 instructions: 132000000 cycles: 115015601 heartbeat IPC: 0.951713 cumulative IPC: 0.885771 (Simulation time: 1 hr 2 min 53 sec) 
Heartbeat CPU 0 instructions: 133000001 cycles: 116022389 heartbeat IPC: 0.993259 cumulative IPC: 0.886928 (Simulation time: 1 hr 3 min 22 sec) 
Heartbeat CPU 0 instructions: 134000002 cycles: 117004380 heartbeat IPC: 1.01834 cumulative IPC: 0.888292 (Simulation time: 1 hr 3 min 52 sec) 
Heartbeat CPU 0 instructions: 135000000 cycles: 118010463 heartbeat IPC: 0.993952 cumulative IPC: 0.889405 (Simulation time: 1 hr 4 min 23 sec) 
Heartbeat CPU 0 instructions: 136000000 cycles: 118938150 heartbeat IPC: 1.07795 cumulative IPC: 0.891217 (Simulation time: 1 hr 4 min 52 sec) 
Heartbeat CPU 0 instructions: 137000000 cycles: 119878908 heartbeat IPC: 1.06297 cumulative IPC: 0.892876 (Simulation time: 1 hr 5 min 20 sec) 
Heartbeat CPU 0 instructions: 138000003 cycles: 120809039 heartbeat IPC: 1.07512 cumulative IPC: 0.894599 (Simulation time: 1 hr 5 min 47 sec) 
Heartbeat CPU 0 instructions: 139000001 cycles: 121886404 heartbeat IPC: 0.928189 cumulative IPC: 0.894963 (Simulation time: 1 hr 6 min 15 sec) 
Heartbeat CPU 0 instructions: 140000000 cycles: 122909435 heartbeat IPC: 0.977486 cumulative IPC: 0.895803 (Simulation time: 1 hr 6 min 41 sec) 
Heartbeat CPU 0 instructions: 141000000 cycles: 123982792 heartbeat IPC: 0.931656 cumulative IPC: 0.896182 (Simulation time: 1 hr 7 min 4 sec) 
Heartbeat CPU 0 instructions: 142000000 cycles: 124900543 heartbeat IPC: 1.08962 cumulative IPC: 0.897915 (Simulation time: 1 hr 7 min 28 sec) 
Heartbeat CPU 0 instructions: 143000001 cycles: 125695068 heartbeat IPC: 1.25861 cumulative IPC: 0.90069 (Simulation time: 1 hr 7 min 55 sec) 
Heartbeat CPU 0 instructions: 144000000 cycles: 126517743 heartbeat IPC: 1.21555 cumulative IPC: 0.903179 (Simulation time: 1 hr 8 min 23 sec) 
Heartbeat CPU 0 instructions: 145000001 cycles: 127514736 heartbeat IPC: 1.00302 cumulative IPC: 0.904126 (Simulation time: 1 hr 8 min 49 sec) 
Heartbeat CPU 0 instructions: 146000000 cycles: 128468089 heartbeat IPC: 1.04893 cumulative IPC: 0.905428 (Simulation time: 1 hr 9 min 17 sec) 
Heartbeat CPU 0 instructions: 147000001 cycles: 129471744 heartbeat IPC: 0.996359 cumulative IPC: 0.906281 (Simulation time: 1 hr 9 min 42 sec) 
Heartbeat CPU 0 instructions: 148000000 cycles: 130449512 heartbeat IPC: 1.02274 cumulative IPC: 0.907335 (Simulation time: 1 hr 10 min 5 sec) 
Heartbeat CPU 0 instructions: 149000003 cycles: 131442487 heartbeat IPC: 1.00708 cumulative IPC: 0.908244 (Simulation time: 1 hr 10 min 28 sec) 
Heartbeat CPU 0 instructions: 150000003 cycles: 132454916 heartbeat IPC: 0.987724 cumulative IPC: 0.908975 (Simulation time: 1 hr 10 min 51 sec) 
Finished CPU 0 instructions: 100000000 cycles: 110013991 cummulative IPC: 0.908975 (Simulation time: 1 hr 10 min 51 sec) 

ChampSim completed all CPUs

Region of Interest Statistics

CPU 0 cummulative IPC: 0.908975 instructions: 100000000 cycles: 110013991
LLC TOTAL     ACCESS:    1666381  HIT:    1311672  MISS:     354709
LLC LOAD      ACCESS:     531448  HIT:     451341  MISS:      80107
LLC RFO       ACCESS:     108423  HIT:      58871  MISS:      49552
LLC PREFETCH  ACCESS:     824410  HIT:     630691  MISS:     193719
LLC WRITEBACK ACCESS:     202100  HIT:     170769  MISS:      31331
OPTgen accesses: 49252
OPTgen hits: 30414
OPTgen hit rate: 61.7518


