
*** ChampSim Multicore Out-of-Order Simulator ***

Warmup Instructions: 50000000
Simulation Instructions: 100000000
Configuration: 2
Number of CPUs: 1
LLC sets: 2048
LLC ways: 16
Off-chip DRAM Channels: 1 Width: 64-bit Data Rate: 1600 MT/s

CPU 0 runs /datasets/cs240c-wi22-a00-public/data/Assignment2-gz/gcc_39B.trace.gz
CPU 0 L1D next line prefetcher
CPU 0 L2C IP-based stride prefetcher
Initialize Hawkeye state
Heartbeat CPU 0 instructions: 1000000 cycles: 510415 heartbeat IPC: 1.95919 cumulative IPC: 1.95919 (Simulation time: 0 hr 0 min 39 sec) 
Heartbeat CPU 0 instructions: 2000002 cycles: 1020477 heartbeat IPC: 1.96055 cumulative IPC: 1.95987 (Simulation time: 0 hr 1 min 14 sec) 
Heartbeat CPU 0 instructions: 3000002 cycles: 1529254 heartbeat IPC: 1.9655 cumulative IPC: 1.96174 (Simulation time: 0 hr 1 min 52 sec) 
Heartbeat CPU 0 instructions: 4000000 cycles: 2038229 heartbeat IPC: 1.96473 cumulative IPC: 1.96249 (Simulation time: 0 hr 2 min 30 sec) 
Heartbeat CPU 0 instructions: 5000003 cycles: 2547014 heartbeat IPC: 1.96547 cumulative IPC: 1.96308 (Simulation time: 0 hr 3 min 10 sec) 
Heartbeat CPU 0 instructions: 6000000 cycles: 3057390 heartbeat IPC: 1.95933 cumulative IPC: 1.96246 (Simulation time: 0 hr 3 min 52 sec) 
Heartbeat CPU 0 instructions: 7000001 cycles: 3565359 heartbeat IPC: 1.96863 cumulative IPC: 1.96334 (Simulation time: 0 hr 4 min 28 sec) 
Heartbeat CPU 0 instructions: 8000000 cycles: 4078805 heartbeat IPC: 1.94762 cumulative IPC: 1.96136 (Simulation time: 0 hr 5 min 3 sec) 
Heartbeat CPU 0 instructions: 9000002 cycles: 4590941 heartbeat IPC: 1.95261 cumulative IPC: 1.96038 (Simulation time: 0 hr 5 min 39 sec) 
Heartbeat CPU 0 instructions: 10000000 cycles: 5101490 heartbeat IPC: 1.95867 cumulative IPC: 1.96021 (Simulation time: 0 hr 6 min 12 sec) 
Heartbeat CPU 0 instructions: 11000002 cycles: 5610505 heartbeat IPC: 1.96458 cumulative IPC: 1.96061 (Simulation time: 0 hr 6 min 48 sec) 
Heartbeat CPU 0 instructions: 12000000 cycles: 6120531 heartbeat IPC: 1.96068 cumulative IPC: 1.96061 (Simulation time: 0 hr 7 min 23 sec) 
Heartbeat CPU 0 instructions: 13000003 cycles: 6631187 heartbeat IPC: 1.95827 cumulative IPC: 1.96043 (Simulation time: 0 hr 8 min 1 sec) 
Heartbeat CPU 0 instructions: 14000003 cycles: 7142092 heartbeat IPC: 1.95731 cumulative IPC: 1.96021 (Simulation time: 0 hr 8 min 36 sec) 
Heartbeat CPU 0 instructions: 15000001 cycles: 7652522 heartbeat IPC: 1.95913 cumulative IPC: 1.96014 (Simulation time: 0 hr 9 min 13 sec) 
Heartbeat CPU 0 instructions: 16000000 cycles: 8161882 heartbeat IPC: 1.96325 cumulative IPC: 1.96033 (Simulation time: 0 hr 9 min 49 sec) 
Heartbeat CPU 0 instructions: 17000000 cycles: 8673439 heartbeat IPC: 1.95482 cumulative IPC: 1.96001 (Simulation time: 0 hr 10 min 25 sec) 
Heartbeat CPU 0 instructions: 18000000 cycles: 9182360 heartbeat IPC: 1.96494 cumulative IPC: 1.96028 (Simulation time: 0 hr 11 min 0 sec) 
Heartbeat CPU 0 instructions: 19000001 cycles: 9694546 heartbeat IPC: 1.95242 cumulative IPC: 1.95986 (Simulation time: 0 hr 11 min 34 sec) 
Heartbeat CPU 0 instructions: 20000000 cycles: 10205237 heartbeat IPC: 1.95813 cumulative IPC: 1.95978 (Simulation time: 0 hr 12 min 8 sec) 
Heartbeat CPU 0 instructions: 21000003 cycles: 10720665 heartbeat IPC: 1.94014 cumulative IPC: 1.95883 (Simulation time: 0 hr 12 min 40 sec) 
Heartbeat CPU 0 instructions: 22000003 cycles: 11230806 heartbeat IPC: 1.96024 cumulative IPC: 1.9589 (Simulation time: 0 hr 13 min 16 sec) 
Heartbeat CPU 0 instructions: 23000003 cycles: 11739123 heartbeat IPC: 1.96728 cumulative IPC: 1.95926 (Simulation time: 0 hr 13 min 50 sec) 
Heartbeat CPU 0 instructions: 24000000 cycles: 12249287 heartbeat IPC: 1.96015 cumulative IPC: 1.9593 (Simulation time: 0 hr 14 min 25 sec) 
Heartbeat CPU 0 instructions: 25000002 cycles: 12758679 heartbeat IPC: 1.96313 cumulative IPC: 1.95945 (Simulation time: 0 hr 14 min 58 sec) 
Heartbeat CPU 0 instructions: 26000001 cycles: 13266889 heartbeat IPC: 1.96769 cumulative IPC: 1.95977 (Simulation time: 0 hr 15 min 31 sec) 
Heartbeat CPU 0 instructions: 27000000 cycles: 13776716 heartbeat IPC: 1.96145 cumulative IPC: 1.95983 (Simulation time: 0 hr 16 min 4 sec) 
Heartbeat CPU 0 instructions: 28000000 cycles: 14286176 heartbeat IPC: 1.96286 cumulative IPC: 1.95994 (Simulation time: 0 hr 16 min 42 sec) 
Heartbeat CPU 0 instructions: 29000001 cycles: 14795515 heartbeat IPC: 1.96333 cumulative IPC: 1.96005 (Simulation time: 0 hr 17 min 15 sec) 
Heartbeat CPU 0 instructions: 30000003 cycles: 15306401 heartbeat IPC: 1.95739 cumulative IPC: 1.95996 (Simulation time: 0 hr 17 min 49 sec) 
Heartbeat CPU 0 instructions: 31000003 cycles: 15821636 heartbeat IPC: 1.94086 cumulative IPC: 1.95934 (Simulation time: 0 hr 18 min 23 sec) 
Heartbeat CPU 0 instructions: 32000000 cycles: 16331092 heartbeat IPC: 1.96287 cumulative IPC: 1.95945 (Simulation time: 0 hr 18 min 55 sec) 
Heartbeat CPU 0 instructions: 33000000 cycles: 16840929 heartbeat IPC: 1.96141 cumulative IPC: 1.95951 (Simulation time: 0 hr 19 min 31 sec) 
Heartbeat CPU 0 instructions: 34000003 cycles: 17351980 heartbeat IPC: 1.95676 cumulative IPC: 1.95943 (Simulation time: 0 hr 20 min 7 sec) 
Heartbeat CPU 0 instructions: 35000001 cycles: 17862389 heartbeat IPC: 1.95921 cumulative IPC: 1.95942 (Simulation time: 0 hr 20 min 45 sec) 
Heartbeat CPU 0 instructions: 36000000 cycles: 18371902 heartbeat IPC: 1.96266 cumulative IPC: 1.95951 (Simulation time: 0 hr 21 min 19 sec) 
Heartbeat CPU 0 instructions: 37000000 cycles: 18884671 heartbeat IPC: 1.9502 cumulative IPC: 1.95926 (Simulation time: 0 hr 21 min 57 sec) 
Heartbeat CPU 0 instructions: 38000001 cycles: 19393410 heartbeat IPC: 1.96565 cumulative IPC: 1.95943 (Simulation time: 0 hr 22 min 34 sec) 
Heartbeat CPU 0 instructions: 39000000 cycles: 19905657 heartbeat IPC: 1.95218 cumulative IPC: 1.95924 (Simulation time: 0 hr 23 min 9 sec) 
Heartbeat CPU 0 instructions: 40000000 cycles: 20415179 heartbeat IPC: 1.96262 cumulative IPC: 1.95933 (Simulation time: 0 hr 23 min 45 sec) 
Heartbeat CPU 0 instructions: 41000001 cycles: 20926967 heartbeat IPC: 1.95394 cumulative IPC: 1.95919 (Simulation time: 0 hr 24 min 22 sec) 
Heartbeat CPU 0 instructions: 42000001 cycles: 21438199 heartbeat IPC: 1.95606 cumulative IPC: 1.95912 (Simulation time: 0 hr 24 min 59 sec) 
Heartbeat CPU 0 instructions: 43000003 cycles: 21952930 heartbeat IPC: 1.94277 cumulative IPC: 1.95874 (Simulation time: 0 hr 25 min 36 sec) 
Heartbeat CPU 0 instructions: 44000000 cycles: 22464905 heartbeat IPC: 1.95321 cumulative IPC: 1.95861 (Simulation time: 0 hr 26 min 11 sec) 
Heartbeat CPU 0 instructions: 45000002 cycles: 22973601 heartbeat IPC: 1.96581 cumulative IPC: 1.95877 (Simulation time: 0 hr 26 min 50 sec) 
Heartbeat CPU 0 instructions: 46000002 cycles: 23484248 heartbeat IPC: 1.9583 cumulative IPC: 1.95876 (Simulation time: 0 hr 27 min 24 sec) 
Heartbeat CPU 0 instructions: 47000000 cycles: 23993880 heartbeat IPC: 1.9622 cumulative IPC: 1.95883 (Simulation time: 0 hr 28 min 1 sec) 
Heartbeat CPU 0 instructions: 48000000 cycles: 24502182 heartbeat IPC: 1.96733 cumulative IPC: 1.95901 (Simulation time: 0 hr 28 min 38 sec) 
Heartbeat CPU 0 instructions: 49000000 cycles: 25012237 heartbeat IPC: 1.96057 cumulative IPC: 1.95904 (Simulation time: 0 hr 29 min 17 sec) 
Heartbeat CPU 0 instructions: 50000000 cycles: 25527631 heartbeat IPC: 1.94026 cumulative IPC: 1.95866 (Simulation time: 0 hr 29 min 53 sec) 

Warmup complete CPU 0 instructions: 50000001 cycles: 25527632 (Simulation time: 0 hr 29 min 53 sec) 

Heartbeat CPU 0 instructions: 51000000 cycles: 26898787 heartbeat IPC: 0.729312 cumulative IPC: 0.729311 (Simulation time: 0 hr 30 min 34 sec) 
Heartbeat CPU 0 instructions: 52000000 cycles: 28280238 heartbeat IPC: 0.723877 cumulative IPC: 0.726584 (Simulation time: 0 hr 31 min 17 sec) 
Heartbeat CPU 0 instructions: 53000003 cycles: 29657675 heartbeat IPC: 0.725988 cumulative IPC: 0.726385 (Simulation time: 0 hr 31 min 59 sec) 
Heartbeat CPU 0 instructions: 54000000 cycles: 31037980 heartbeat IPC: 0.724475 cumulative IPC: 0.725907 (Simulation time: 0 hr 32 min 40 sec) 
Heartbeat CPU 0 instructions: 55000002 cycles: 32417142 heartbeat IPC: 0.725079 cumulative IPC: 0.725741 (Simulation time: 0 hr 33 min 21 sec) 
Heartbeat CPU 0 instructions: 56000000 cycles: 33795184 heartbeat IPC: 0.725666 cumulative IPC: 0.725729 (Simulation time: 0 hr 33 min 59 sec) 
Heartbeat CPU 0 instructions: 57000000 cycles: 35178153 heartbeat IPC: 0.723082 cumulative IPC: 0.725349 (Simulation time: 0 hr 34 min 41 sec) 
Heartbeat CPU 0 instructions: 58000000 cycles: 36561259 heartbeat IPC: 0.72301 cumulative IPC: 0.725056 (Simulation time: 0 hr 35 min 23 sec) 
Heartbeat CPU 0 instructions: 59000000 cycles: 37944274 heartbeat IPC: 0.723058 cumulative IPC: 0.724834 (Simulation time: 0 hr 36 min 3 sec) 
Heartbeat CPU 0 instructions: 60000000 cycles: 39326348 heartbeat IPC: 0.72355 cumulative IPC: 0.724705 (Simulation time: 0 hr 36 min 44 sec) 
Heartbeat CPU 0 instructions: 61000000 cycles: 40705738 heartbeat IPC: 0.724958 cumulative IPC: 0.724728 (Simulation time: 0 hr 37 min 26 sec) 
Heartbeat CPU 0 instructions: 62000000 cycles: 42089736 heartbeat IPC: 0.722544 cumulative IPC: 0.724546 (Simulation time: 0 hr 38 min 5 sec) 
Heartbeat CPU 0 instructions: 63000001 cycles: 43478426 heartbeat IPC: 0.720104 cumulative IPC: 0.724202 (Simulation time: 0 hr 38 min 46 sec) 
Heartbeat CPU 0 instructions: 64000000 cycles: 44869473 heartbeat IPC: 0.718882 cumulative IPC: 0.723819 (Simulation time: 0 hr 39 min 33 sec) 
Heartbeat CPU 0 instructions: 65000000 cycles: 46242910 heartbeat IPC: 0.7281 cumulative IPC: 0.724103 (Simulation time: 0 hr 40 min 21 sec) 
Heartbeat CPU 0 instructions: 66000001 cycles: 47627692 heartbeat IPC: 0.722136 cumulative IPC: 0.72398 (Simulation time: 0 hr 41 min 0 sec) 
Heartbeat CPU 0 instructions: 67000001 cycles: 48995388 heartbeat IPC: 0.731157 cumulative IPC: 0.724398 (Simulation time: 0 hr 41 min 50 sec) 
Heartbeat CPU 0 instructions: 68000000 cycles: 50360544 heartbeat IPC: 0.732516 cumulative IPC: 0.724844 (Simulation time: 0 hr 42 min 30 sec) 
Heartbeat CPU 0 instructions: 69000000 cycles: 51746305 heartbeat IPC: 0.721625 cumulative IPC: 0.724674 (Simulation time: 0 hr 43 min 12 sec) 
Heartbeat CPU 0 instructions: 70000002 cycles: 53113271 heartbeat IPC: 0.731549 cumulative IPC: 0.725015 (Simulation time: 0 hr 43 min 54 sec) 
Heartbeat CPU 0 instructions: 71000000 cycles: 54486109 heartbeat IPC: 0.728417 cumulative IPC: 0.725176 (Simulation time: 0 hr 44 min 34 sec) 
Heartbeat CPU 0 instructions: 72000000 cycles: 55849463 heartbeat IPC: 0.733485 cumulative IPC: 0.72555 (Simulation time: 0 hr 45 min 13 sec) 
Heartbeat CPU 0 instructions: 73000000 cycles: 57214584 heartbeat IPC: 0.732536 cumulative IPC: 0.725851 (Simulation time: 0 hr 45 min 53 sec) 
Heartbeat CPU 0 instructions: 74000000 cycles: 58591449 heartbeat IPC: 0.726288 cumulative IPC: 0.725869 (Simulation time: 0 hr 46 min 33 sec) 
Heartbeat CPU 0 instructions: 75000001 cycles: 59957944 heartbeat IPC: 0.7318 cumulative IPC: 0.726104 (Simulation time: 0 hr 47 min 15 sec) 
Heartbeat CPU 0 instructions: 76000000 cycles: 61343683 heartbeat IPC: 0.721636 cumulative IPC: 0.725931 (Simulation time: 0 hr 47 min 56 sec) 
Heartbeat CPU 0 instructions: 77000003 cycles: 62710191 heartbeat IPC: 0.731794 cumulative IPC: 0.726147 (Simulation time: 0 hr 48 min 40 sec) 
Heartbeat CPU 0 instructions: 78000000 cycles: 64088303 heartbeat IPC: 0.725628 cumulative IPC: 0.726128 (Simulation time: 0 hr 49 min 23 sec) 
Heartbeat CPU 0 instructions: 79000002 cycles: 65465736 heartbeat IPC: 0.72599 cumulative IPC: 0.726124 (Simulation time: 0 hr 50 min 8 sec) 
Heartbeat CPU 0 instructions: 80000000 cycles: 66850092 heartbeat IPC: 0.722356 cumulative IPC: 0.725997 (Simulation time: 0 hr 50 min 50 sec) 
Heartbeat CPU 0 instructions: 81000000 cycles: 68237807 heartbeat IPC: 0.720609 cumulative IPC: 0.725822 (Simulation time: 0 hr 51 min 30 sec) 
Heartbeat CPU 0 instructions: 82000000 cycles: 69619080 heartbeat IPC: 0.72397 cumulative IPC: 0.725764 (Simulation time: 0 hr 52 min 13 sec) 
Heartbeat CPU 0 instructions: 83000000 cycles: 71003478 heartbeat IPC: 0.722336 cumulative IPC: 0.72566 (Simulation time: 0 hr 53 min 4 sec) 
Heartbeat CPU 0 instructions: 84000000 cycles: 72384913 heartbeat IPC: 0.723885 cumulative IPC: 0.725608 (Simulation time: 0 hr 53 min 48 sec) 
Heartbeat CPU 0 instructions: 85000000 cycles: 73760001 heartbeat IPC: 0.727226 cumulative IPC: 0.725654 (Simulation time: 0 hr 54 min 36 sec) 
Heartbeat CPU 0 instructions: 86000001 cycles: 75141572 heartbeat IPC: 0.723814 cumulative IPC: 0.725603 (Simulation time: 0 hr 55 min 18 sec) 
Heartbeat CPU 0 instructions: 87000001 cycles: 76523808 heartbeat IPC: 0.723465 cumulative IPC: 0.725545 (Simulation time: 0 hr 56 min 5 sec) 
Heartbeat CPU 0 instructions: 88000000 cycles: 77903691 heartbeat IPC: 0.724698 cumulative IPC: 0.725522 (Simulation time: 0 hr 56 min 52 sec) 
Heartbeat CPU 0 instructions: 89000003 cycles: 79287259 heartbeat IPC: 0.722771 cumulative IPC: 0.725451 (Simulation time: 0 hr 57 min 36 sec) 
Heartbeat CPU 0 instructions: 90000000 cycles: 80664140 heartbeat IPC: 0.726277 cumulative IPC: 0.725472 (Simulation time: 0 hr 58 min 18 sec) 
Heartbeat CPU 0 instructions: 91000001 cycles: 82056088 heartbeat IPC: 0.718418 cumulative IPC: 0.725298 (Simulation time: 0 hr 58 min 59 sec) 
Heartbeat CPU 0 instructions: 92000000 cycles: 83441305 heartbeat IPC: 0.721908 cumulative IPC: 0.725217 (Simulation time: 0 hr 59 min 46 sec) 
Heartbeat CPU 0 instructions: 93000000 cycles: 84824132 heartbeat IPC: 0.723156 cumulative IPC: 0.725169 (Simulation time: 1 hr 0 min 32 sec) 
Heartbeat CPU 0 instructions: 94000002 cycles: 86203511 heartbeat IPC: 0.724965 cumulative IPC: 0.725165 (Simulation time: 1 hr 1 min 14 sec) 
Heartbeat CPU 0 instructions: 95000001 cycles: 87582627 heartbeat IPC: 0.725101 cumulative IPC: 0.725163 (Simulation time: 1 hr 2 min 3 sec) 
Heartbeat CPU 0 instructions: 96000000 cycles: 88950940 heartbeat IPC: 0.730826 cumulative IPC: 0.725285 (Simulation time: 1 hr 2 min 44 sec) 
Heartbeat CPU 0 instructions: 97000000 cycles: 90321315 heartbeat IPC: 0.729727 cumulative IPC: 0.725379 (Simulation time: 1 hr 3 min 25 sec) 
Heartbeat CPU 0 instructions: 98000003 cycles: 91690932 heartbeat IPC: 0.730133 cumulative IPC: 0.725478 (Simulation time: 1 hr 4 min 7 sec) 
Heartbeat CPU 0 instructions: 99000000 cycles: 93059814 heartbeat IPC: 0.730521 cumulative IPC: 0.72558 (Simulation time: 1 hr 4 min 50 sec) 
Heartbeat CPU 0 instructions: 100000000 cycles: 94421974 heartbeat IPC: 0.734128 cumulative IPC: 0.725749 (Simulation time: 1 hr 5 min 32 sec) 
Heartbeat CPU 0 instructions: 101000000 cycles: 95788018 heartbeat IPC: 0.732041 cumulative IPC: 0.725871 (Simulation time: 1 hr 6 min 14 sec) 
Heartbeat CPU 0 instructions: 102000002 cycles: 97167641 heartbeat IPC: 0.724837 cumulative IPC: 0.725851 (Simulation time: 1 hr 6 min 54 sec) 
Heartbeat CPU 0 instructions: 103000003 cycles: 98536596 heartbeat IPC: 0.730485 cumulative IPC: 0.725938 (Simulation time: 1 hr 7 min 36 sec) 
Heartbeat CPU 0 instructions: 104000000 cycles: 99913018 heartbeat IPC: 0.726519 cumulative IPC: 0.725949 (Simulation time: 1 hr 8 min 17 sec) 
Heartbeat CPU 0 instructions: 105000000 cycles: 101277058 heartbeat IPC: 0.733116 cumulative IPC: 0.726078 (Simulation time: 1 hr 8 min 58 sec) 
Heartbeat CPU 0 instructions: 106000001 cycles: 102658960 heartbeat IPC: 0.723641 cumulative IPC: 0.726034 (Simulation time: 1 hr 9 min 38 sec) 
Heartbeat CPU 0 instructions: 107000000 cycles: 104043838 heartbeat IPC: 0.722085 cumulative IPC: 0.725965 (Simulation time: 1 hr 10 min 17 sec) 
Heartbeat CPU 0 instructions: 108000000 cycles: 105426337 heartbeat IPC: 0.723328 cumulative IPC: 0.725919 (Simulation time: 1 hr 10 min 55 sec) 
Heartbeat CPU 0 instructions: 109000003 cycles: 106821344 heartbeat IPC: 0.716844 cumulative IPC: 0.725763 (Simulation time: 1 hr 11 min 30 sec) 
Heartbeat CPU 0 instructions: 110000001 cycles: 108203791 heartbeat IPC: 0.723354 cumulative IPC: 0.725723 (Simulation time: 1 hr 12 min 2 sec) 
Heartbeat CPU 0 instructions: 111000001 cycles: 109586514 heartbeat IPC: 0.723211 cumulative IPC: 0.725682 (Simulation time: 1 hr 12 min 37 sec) 
Heartbeat CPU 0 instructions: 112000000 cycles: 110968973 heartbeat IPC: 0.723348 cumulative IPC: 0.725644 (Simulation time: 1 hr 13 min 11 sec) 
Heartbeat CPU 0 instructions: 113000003 cycles: 112348545 heartbeat IPC: 0.724865 cumulative IPC: 0.725632 (Simulation time: 1 hr 13 min 44 sec) 
Heartbeat CPU 0 instructions: 114000000 cycles: 113733410 heartbeat IPC: 0.72209 cumulative IPC: 0.725576 (Simulation time: 1 hr 14 min 16 sec) 
Heartbeat CPU 0 instructions: 115000001 cycles: 115121664 heartbeat IPC: 0.72033 cumulative IPC: 0.725495 (Simulation time: 1 hr 14 min 46 sec) 
Heartbeat CPU 0 instructions: 116000000 cycles: 116504331 heartbeat IPC: 0.723239 cumulative IPC: 0.72546 (Simulation time: 1 hr 15 min 17 sec) 
Heartbeat CPU 0 instructions: 117000001 cycles: 117888637 heartbeat IPC: 0.722384 cumulative IPC: 0.725414 (Simulation time: 1 hr 15 min 49 sec) 
Heartbeat CPU 0 instructions: 118000001 cycles: 119270357 heartbeat IPC: 0.723736 cumulative IPC: 0.72539 (Simulation time: 1 hr 16 min 21 sec) 
Heartbeat CPU 0 instructions: 119000001 cycles: 120663055 heartbeat IPC: 0.718031 cumulative IPC: 0.725282 (Simulation time: 1 hr 16 min 49 sec) 
Heartbeat CPU 0 instructions: 120000000 cycles: 122048409 heartbeat IPC: 0.721836 cumulative IPC: 0.725232 (Simulation time: 1 hr 17 min 17 sec) 
Heartbeat CPU 0 instructions: 121000001 cycles: 123431753 heartbeat IPC: 0.722887 cumulative IPC: 0.725199 (Simulation time: 1 hr 17 min 45 sec) 
Heartbeat CPU 0 instructions: 122000001 cycles: 124819769 heartbeat IPC: 0.720453 cumulative IPC: 0.725133 (Simulation time: 1 hr 18 min 12 sec) 
Heartbeat CPU 0 instructions: 123000001 cycles: 126202379 heartbeat IPC: 0.72327 cumulative IPC: 0.725107 (Simulation time: 1 hr 18 min 38 sec) 
Heartbeat CPU 0 instructions: 124000000 cycles: 127578433 heartbeat IPC: 0.726715 cumulative IPC: 0.725129 (Simulation time: 1 hr 19 min 4 sec) 
Heartbeat CPU 0 instructions: 125000000 cycles: 128964944 heartbeat IPC: 0.721235 cumulative IPC: 0.725077 (Simulation time: 1 hr 19 min 30 sec) 
Heartbeat CPU 0 instructions: 126000000 cycles: 130345724 heartbeat IPC: 0.724228 cumulative IPC: 0.725066 (Simulation time: 1 hr 19 min 55 sec) 
Heartbeat CPU 0 instructions: 127000001 cycles: 131721500 heartbeat IPC: 0.726863 cumulative IPC: 0.725089 (Simulation time: 1 hr 20 min 20 sec) 
Heartbeat CPU 0 instructions: 128000000 cycles: 133113513 heartbeat IPC: 0.718383 cumulative IPC: 0.725002 (Simulation time: 1 hr 20 min 45 sec) 
Heartbeat CPU 0 instructions: 129000003 cycles: 134496885 heartbeat IPC: 0.722874 cumulative IPC: 0.724975 (Simulation time: 1 hr 21 min 9 sec) 
Heartbeat CPU 0 instructions: 130000003 cycles: 135877917 heartbeat IPC: 0.724096 cumulative IPC: 0.724964 (Simulation time: 1 hr 21 min 33 sec) 
Heartbeat CPU 0 instructions: 131000002 cycles: 137260266 heartbeat IPC: 0.723406 cumulative IPC: 0.724945 (Simulation time: 1 hr 21 min 57 sec) 
Heartbeat CPU 0 instructions: 132000000 cycles: 138639523 heartbeat IPC: 0.725027 cumulative IPC: 0.724946 (Simulation time: 1 hr 22 min 21 sec) 
Heartbeat CPU 0 instructions: 133000000 cycles: 140020568 heartbeat IPC: 0.724089 cumulative IPC: 0.724936 (Simulation time: 1 hr 22 min 45 sec) 
Heartbeat CPU 0 instructions: 134000000 cycles: 141410977 heartbeat IPC: 0.719213 cumulative IPC: 0.724867 (Simulation time: 1 hr 23 min 8 sec) 
Heartbeat CPU 0 instructions: 135000001 cycles: 142789789 heartbeat IPC: 0.725263 cumulative IPC: 0.724872 (Simulation time: 1 hr 23 min 29 sec) 
Heartbeat CPU 0 instructions: 136000000 cycles: 144172915 heartbeat IPC: 0.722999 cumulative IPC: 0.72485 (Simulation time: 1 hr 23 min 49 sec) 
Heartbeat CPU 0 instructions: 137000000 cycles: 145566307 heartbeat IPC: 0.717673 cumulative IPC: 0.724766 (Simulation time: 1 hr 24 min 7 sec) 
Heartbeat CPU 0 instructions: 138000000 cycles: 146951909 heartbeat IPC: 0.721708 cumulative IPC: 0.724732 (Simulation time: 1 hr 24 min 26 sec) 
Heartbeat CPU 0 instructions: 139000000 cycles: 148336302 heartbeat IPC: 0.722338 cumulative IPC: 0.724705 (Simulation time: 1 hr 24 min 43 sec) 
Heartbeat CPU 0 instructions: 140000000 cycles: 149717639 heartbeat IPC: 0.723936 cumulative IPC: 0.724696 (Simulation time: 1 hr 25 min 1 sec) 
Heartbeat CPU 0 instructions: 141000003 cycles: 151109060 heartbeat IPC: 0.718692 cumulative IPC: 0.724629 (Simulation time: 1 hr 25 min 18 sec) 
Heartbeat CPU 0 instructions: 142000002 cycles: 152484351 heartbeat IPC: 0.727118 cumulative IPC: 0.724656 (Simulation time: 1 hr 25 min 35 sec) 
Heartbeat CPU 0 instructions: 143000001 cycles: 153859746 heartbeat IPC: 0.727063 cumulative IPC: 0.724682 (Simulation time: 1 hr 25 min 51 sec) 
Heartbeat CPU 0 instructions: 144000000 cycles: 155234847 heartbeat IPC: 0.727219 cumulative IPC: 0.724709 (Simulation time: 1 hr 26 min 5 sec) 
Heartbeat CPU 0 instructions: 145000001 cycles: 156598916 heartbeat IPC: 0.733101 cumulative IPC: 0.724796 (Simulation time: 1 hr 26 min 18 sec) 
Heartbeat CPU 0 instructions: 146000001 cycles: 157968748 heartbeat IPC: 0.730017 cumulative IPC: 0.72485 (Simulation time: 1 hr 26 min 32 sec) 
Heartbeat CPU 0 instructions: 147000001 cycles: 159351051 heartbeat IPC: 0.72343 cumulative IPC: 0.724836 (Simulation time: 1 hr 26 min 45 sec) 
Heartbeat CPU 0 instructions: 148000000 cycles: 160720954 heartbeat IPC: 0.729978 cumulative IPC: 0.724888 (Simulation time: 1 hr 26 min 59 sec) 
Heartbeat CPU 0 instructions: 149000000 cycles: 162100529 heartbeat IPC: 0.724861 cumulative IPC: 0.724888 (Simulation time: 1 hr 27 min 11 sec) 
Heartbeat CPU 0 instructions: 150000001 cycles: 163461858 heartbeat IPC: 0.734577 cumulative IPC: 0.724983 (Simulation time: 1 hr 27 min 24 sec) 
Finished CPU 0 instructions: 100000000 cycles: 137934226 cummulative IPC: 0.724983 (Simulation time: 1 hr 27 min 24 sec) 

ChampSim completed all CPUs

Region of Interest Statistics

CPU 0 cummulative IPC: 0.724983 instructions: 100000000 cycles: 137934226
LLC TOTAL     ACCESS:      43227  HIT:       5060  MISS:      38167
LLC LOAD      ACCESS:      13845  HIT:        515  MISS:      13330
LLC RFO       ACCESS:       3359  HIT:          7  MISS:       3352
LLC PREFETCH  ACCESS:      17995  HIT:        566  MISS:      17429
LLC WRITEBACK ACCESS:       8028  HIT:       3972  MISS:       4056
OPTgen accesses: 1615
OPTgen hits: 71
OPTgen hit rate: 4.39628


