
*** ChampSim Multicore Out-of-Order Simulator ***

Warmup Instructions: 50000000
Simulation Instructions: 100000000
Configuration: 2
Number of CPUs: 1
LLC sets: 2048
LLC ways: 16
Off-chip DRAM Channels: 1 Width: 64-bit Data Rate: 1600 MT/s

CPU 0 runs /datasets/cs240c-wi22-a00-public/data/Assignment2-gz/mcf_46B.trace.gz
CPU 0 L1D next line prefetcher
CPU 0 L2C IP-based stride prefetcher
Initialize Hawkeye state
Heartbeat CPU 0 instructions: 1000002 cycles: 492212 heartbeat IPC: 2.03165 cumulative IPC: 2.03165 (Simulation time: 0 hr 0 min 47 sec) 
Heartbeat CPU 0 instructions: 2000002 cycles: 987959 heartbeat IPC: 2.01716 cumulative IPC: 2.02438 (Simulation time: 0 hr 1 min 31 sec) 
Heartbeat CPU 0 instructions: 3000003 cycles: 1514286 heartbeat IPC: 1.89996 cumulative IPC: 1.98113 (Simulation time: 0 hr 2 min 18 sec) 
Heartbeat CPU 0 instructions: 4000000 cycles: 2032551 heartbeat IPC: 1.92951 cumulative IPC: 1.96797 (Simulation time: 0 hr 3 min 19 sec) 
Heartbeat CPU 0 instructions: 5000000 cycles: 2526299 heartbeat IPC: 2.02532 cumulative IPC: 1.97918 (Simulation time: 0 hr 4 min 10 sec) 
Heartbeat CPU 0 instructions: 6000002 cycles: 3029968 heartbeat IPC: 1.98543 cumulative IPC: 1.98022 (Simulation time: 0 hr 4 min 48 sec) 
Heartbeat CPU 0 instructions: 7000001 cycles: 3571914 heartbeat IPC: 1.8452 cumulative IPC: 1.95973 (Simulation time: 0 hr 5 min 43 sec) 
Heartbeat CPU 0 instructions: 8000000 cycles: 4062744 heartbeat IPC: 2.03736 cumulative IPC: 1.96911 (Simulation time: 0 hr 6 min 32 sec) 
Heartbeat CPU 0 instructions: 9000001 cycles: 4546476 heartbeat IPC: 2.06726 cumulative IPC: 1.97956 (Simulation time: 0 hr 7 min 27 sec) 
Heartbeat CPU 0 instructions: 10000001 cycles: 5082567 heartbeat IPC: 1.86535 cumulative IPC: 1.96751 (Simulation time: 0 hr 8 min 22 sec) 
Heartbeat CPU 0 instructions: 11000002 cycles: 5627009 heartbeat IPC: 1.83674 cumulative IPC: 1.95486 (Simulation time: 0 hr 9 min 9 sec) 
Heartbeat CPU 0 instructions: 12000000 cycles: 6105812 heartbeat IPC: 2.08854 cumulative IPC: 1.96534 (Simulation time: 0 hr 9 min 54 sec) 
Heartbeat CPU 0 instructions: 13000000 cycles: 6601515 heartbeat IPC: 2.01734 cumulative IPC: 1.96924 (Simulation time: 0 hr 10 min 46 sec) 
Heartbeat CPU 0 instructions: 14000003 cycles: 7146039 heartbeat IPC: 1.83647 cumulative IPC: 1.95913 (Simulation time: 0 hr 11 min 37 sec) 
Heartbeat CPU 0 instructions: 15000000 cycles: 7623370 heartbeat IPC: 2.09498 cumulative IPC: 1.96763 (Simulation time: 0 hr 12 min 26 sec) 
Heartbeat CPU 0 instructions: 16000000 cycles: 8100867 heartbeat IPC: 2.09425 cumulative IPC: 1.9751 (Simulation time: 0 hr 13 min 15 sec) 
Heartbeat CPU 0 instructions: 17000002 cycles: 8644829 heartbeat IPC: 1.83837 cumulative IPC: 1.96649 (Simulation time: 0 hr 14 min 11 sec) 
Heartbeat CPU 0 instructions: 18000000 cycles: 9132225 heartbeat IPC: 2.05172 cumulative IPC: 1.97104 (Simulation time: 0 hr 14 min 57 sec) 
Heartbeat CPU 0 instructions: 19000002 cycles: 9620659 heartbeat IPC: 2.04736 cumulative IPC: 1.97492 (Simulation time: 0 hr 15 min 40 sec) 
Heartbeat CPU 0 instructions: 20000000 cycles: 10198300 heartbeat IPC: 1.73118 cumulative IPC: 1.96111 (Simulation time: 0 hr 16 min 31 sec) 
Heartbeat CPU 0 instructions: 21000001 cycles: 10744292 heartbeat IPC: 1.83153 cumulative IPC: 1.95453 (Simulation time: 0 hr 17 min 17 sec) 
Heartbeat CPU 0 instructions: 22000002 cycles: 11222969 heartbeat IPC: 2.08909 cumulative IPC: 1.96027 (Simulation time: 0 hr 18 min 0 sec) 
Heartbeat CPU 0 instructions: 23000000 cycles: 11703032 heartbeat IPC: 2.08306 cumulative IPC: 1.9653 (Simulation time: 0 hr 18 min 50 sec) 
Heartbeat CPU 0 instructions: 24000000 cycles: 12234166 heartbeat IPC: 1.88276 cumulative IPC: 1.96172 (Simulation time: 0 hr 19 min 37 sec) 
Heartbeat CPU 0 instructions: 25000002 cycles: 12734185 heartbeat IPC: 1.99993 cumulative IPC: 1.96322 (Simulation time: 0 hr 20 min 20 sec) 
Heartbeat CPU 0 instructions: 26000000 cycles: 13215181 heartbeat IPC: 2.07902 cumulative IPC: 1.96743 (Simulation time: 0 hr 21 min 2 sec) 
Heartbeat CPU 0 instructions: 27000002 cycles: 13728222 heartbeat IPC: 1.94917 cumulative IPC: 1.96675 (Simulation time: 0 hr 21 min 48 sec) 
Heartbeat CPU 0 instructions: 28000000 cycles: 14244984 heartbeat IPC: 1.93512 cumulative IPC: 1.9656 (Simulation time: 0 hr 22 min 35 sec) 
Heartbeat CPU 0 instructions: 29000001 cycles: 14723730 heartbeat IPC: 2.08879 cumulative IPC: 1.96961 (Simulation time: 0 hr 23 min 18 sec) 
Heartbeat CPU 0 instructions: 30000000 cycles: 15220702 heartbeat IPC: 2.01218 cumulative IPC: 1.971 (Simulation time: 0 hr 24 min 4 sec) 
Heartbeat CPU 0 instructions: 31000002 cycles: 15753173 heartbeat IPC: 1.87804 cumulative IPC: 1.96786 (Simulation time: 0 hr 24 min 44 sec) 
Heartbeat CPU 0 instructions: 32000000 cycles: 16232841 heartbeat IPC: 2.08477 cumulative IPC: 1.97131 (Simulation time: 0 hr 25 min 28 sec) 
Heartbeat CPU 0 instructions: 33000000 cycles: 16738252 heartbeat IPC: 1.97859 cumulative IPC: 1.97153 (Simulation time: 0 hr 26 min 20 sec) 
Heartbeat CPU 0 instructions: 34000000 cycles: 17280061 heartbeat IPC: 1.84567 cumulative IPC: 1.96759 (Simulation time: 0 hr 27 min 2 sec) 
Heartbeat CPU 0 instructions: 35000001 cycles: 17769419 heartbeat IPC: 2.0435 cumulative IPC: 1.96968 (Simulation time: 0 hr 27 min 42 sec) 
Heartbeat CPU 0 instructions: 36000000 cycles: 18275988 heartbeat IPC: 1.97406 cumulative IPC: 1.9698 (Simulation time: 0 hr 28 min 25 sec) 
Heartbeat CPU 0 instructions: 37000002 cycles: 18792418 heartbeat IPC: 1.93637 cumulative IPC: 1.96888 (Simulation time: 0 hr 29 min 6 sec) 
Heartbeat CPU 0 instructions: 38000001 cycles: 19306731 heartbeat IPC: 1.94434 cumulative IPC: 1.96823 (Simulation time: 0 hr 29 min 49 sec) 
Heartbeat CPU 0 instructions: 39000000 cycles: 19784059 heartbeat IPC: 2.09499 cumulative IPC: 1.97128 (Simulation time: 0 hr 30 min 29 sec) 
Heartbeat CPU 0 instructions: 40000000 cycles: 20273256 heartbeat IPC: 2.04417 cumulative IPC: 1.97304 (Simulation time: 0 hr 31 min 8 sec) 
Heartbeat CPU 0 instructions: 41000000 cycles: 20813001 heartbeat IPC: 1.85273 cumulative IPC: 1.96992 (Simulation time: 0 hr 31 min 56 sec) 
Heartbeat CPU 0 instructions: 42000001 cycles: 21296906 heartbeat IPC: 2.06652 cumulative IPC: 1.97212 (Simulation time: 0 hr 32 min 40 sec) 
Heartbeat CPU 0 instructions: 43000000 cycles: 21774637 heartbeat IPC: 2.09323 cumulative IPC: 1.97477 (Simulation time: 0 hr 33 min 20 sec) 
Heartbeat CPU 0 instructions: 44000000 cycles: 22307210 heartbeat IPC: 1.87768 cumulative IPC: 1.97246 (Simulation time: 0 hr 34 min 3 sec) 
Heartbeat CPU 0 instructions: 45000001 cycles: 22802096 heartbeat IPC: 2.02067 cumulative IPC: 1.9735 (Simulation time: 0 hr 34 min 43 sec) 
Heartbeat CPU 0 instructions: 46000001 cycles: 23282206 heartbeat IPC: 2.08286 cumulative IPC: 1.97576 (Simulation time: 0 hr 35 min 21 sec) 
Heartbeat CPU 0 instructions: 47000002 cycles: 23794870 heartbeat IPC: 1.9506 cumulative IPC: 1.97522 (Simulation time: 0 hr 36 min 1 sec) 
Heartbeat CPU 0 instructions: 48000000 cycles: 24314587 heartbeat IPC: 1.92412 cumulative IPC: 1.97412 (Simulation time: 0 hr 36 min 42 sec) 
Heartbeat CPU 0 instructions: 49000000 cycles: 24797934 heartbeat IPC: 2.06891 cumulative IPC: 1.97597 (Simulation time: 0 hr 37 min 21 sec) 
Heartbeat CPU 0 instructions: 50000000 cycles: 25289346 heartbeat IPC: 2.03495 cumulative IPC: 1.97712 (Simulation time: 0 hr 38 min 6 sec) 

Warmup complete CPU 0 instructions: 50000004 cycles: 25289347 (Simulation time: 0 hr 38 min 6 sec) 

Heartbeat CPU 0 instructions: 51000001 cycles: 39570278 heartbeat IPC: 0.0700235 cumulative IPC: 0.0700232 (Simulation time: 0 hr 39 min 30 sec) 
Heartbeat CPU 0 instructions: 52000000 cycles: 44272576 heartbeat IPC: 0.212662 cumulative IPC: 0.105356 (Simulation time: 0 hr 40 min 29 sec) 
Heartbeat CPU 0 instructions: 53000000 cycles: 48644769 heartbeat IPC: 0.228718 cumulative IPC: 0.12845 (Simulation time: 0 hr 41 min 22 sec) 
Heartbeat CPU 0 instructions: 54000002 cycles: 64091448 heartbeat IPC: 0.064739 cumulative IPC: 0.103087 (Simulation time: 0 hr 42 min 40 sec) 
Heartbeat CPU 0 instructions: 55000002 cycles: 69488161 heartbeat IPC: 0.185298 cumulative IPC: 0.113125 (Simulation time: 0 hr 43 min 32 sec) 
Heartbeat CPU 0 instructions: 56000000 cycles: 74003417 heartbeat IPC: 0.221471 cumulative IPC: 0.123168 (Simulation time: 0 hr 44 min 27 sec) 
Heartbeat CPU 0 instructions: 57000000 cycles: 87283634 heartbeat IPC: 0.0753 cumulative IPC: 0.112914 (Simulation time: 0 hr 45 min 39 sec) 
Heartbeat CPU 0 instructions: 58000000 cycles: 94941138 heartbeat IPC: 0.130591 cumulative IPC: 0.114857 (Simulation time: 0 hr 46 min 34 sec) 
Heartbeat CPU 0 instructions: 59000002 cycles: 99259951 heartbeat IPC: 0.231546 cumulative IPC: 0.12167 (Simulation time: 0 hr 47 min 23 sec) 
Heartbeat CPU 0 instructions: 60000000 cycles: 111178821 heartbeat IPC: 0.0839004 cumulative IPC: 0.116429 (Simulation time: 0 hr 48 min 38 sec) 
Heartbeat CPU 0 instructions: 61000002 cycles: 120651467 heartbeat IPC: 0.105567 cumulative IPC: 0.11535 (Simulation time: 0 hr 49 min 44 sec) 
Heartbeat CPU 0 instructions: 62000001 cycles: 124964436 heartbeat IPC: 0.231859 cumulative IPC: 0.120391 (Simulation time: 0 hr 50 min 41 sec) 
Heartbeat CPU 0 instructions: 63000001 cycles: 135098455 heartbeat IPC: 0.0986775 cumulative IPC: 0.118387 (Simulation time: 0 hr 51 min 46 sec) 
Heartbeat CPU 0 instructions: 64000000 cycles: 146385612 heartbeat IPC: 0.0885962 cumulative IPC: 0.11561 (Simulation time: 0 hr 53 min 0 sec) 
Heartbeat CPU 0 instructions: 65000002 cycles: 151653937 heartbeat IPC: 0.189814 cumulative IPC: 0.118704 (Simulation time: 0 hr 53 min 53 sec) 
Heartbeat CPU 0 instructions: 66000000 cycles: 158384022 heartbeat IPC: 0.148586 cumulative IPC: 0.120215 (Simulation time: 0 hr 54 min 48 sec) 
Heartbeat CPU 0 instructions: 67000002 cycles: 173915318 heartbeat IPC: 0.0643863 cumulative IPC: 0.114381 (Simulation time: 0 hr 56 min 12 sec) 
Heartbeat CPU 0 instructions: 68000000 cycles: 178570132 heartbeat IPC: 0.214831 cumulative IPC: 0.117432 (Simulation time: 0 hr 57 min 5 sec) 
Heartbeat CPU 0 instructions: 69000000 cycles: 182810024 heartbeat IPC: 0.235855 cumulative IPC: 0.120619 (Simulation time: 0 hr 58 min 0 sec) 
Heartbeat CPU 0 instructions: 70000001 cycles: 196946815 heartbeat IPC: 0.0707375 cumulative IPC: 0.116511 (Simulation time: 0 hr 59 min 16 sec) 
Heartbeat CPU 0 instructions: 71000002 cycles: 205434938 heartbeat IPC: 0.117812 cumulative IPC: 0.116572 (Simulation time: 1 hr 0 min 19 sec) 
Heartbeat CPU 0 instructions: 72000000 cycles: 210430454 heartbeat IPC: 0.200179 cumulative IPC: 0.118828 (Simulation time: 1 hr 1 min 9 sec) 
Heartbeat CPU 0 instructions: 73000002 cycles: 219643208 heartbeat IPC: 0.108545 cumulative IPC: 0.118341 (Simulation time: 1 hr 2 min 11 sec) 
Heartbeat CPU 0 instructions: 74000001 cycles: 231382649 heartbeat IPC: 0.0851828 cumulative IPC: 0.116452 (Simulation time: 1 hr 3 min 27 sec) 
Heartbeat CPU 0 instructions: 75000001 cycles: 235962903 heartbeat IPC: 0.218329 cumulative IPC: 0.118667 (Simulation time: 1 hr 4 min 19 sec) 
Heartbeat CPU 0 instructions: 76000000 cycles: 242254349 heartbeat IPC: 0.158946 cumulative IPC: 0.119835 (Simulation time: 1 hr 5 min 20 sec) 
Heartbeat CPU 0 instructions: 77000001 cycles: 257758623 heartbeat IPC: 0.0644984 cumulative IPC: 0.116144 (Simulation time: 1 hr 6 min 43 sec) 
Heartbeat CPU 0 instructions: 78000002 cycles: 262702278 heartbeat IPC: 0.20228 cumulative IPC: 0.117938 (Simulation time: 1 hr 7 min 38 sec) 
Heartbeat CPU 0 instructions: 79000001 cycles: 267228365 heartbeat IPC: 0.220941 cumulative IPC: 0.119865 (Simulation time: 1 hr 8 min 27 sec) 
Heartbeat CPU 0 instructions: 80000000 cycles: 280417173 heartbeat IPC: 0.0758218 cumulative IPC: 0.117588 (Simulation time: 1 hr 9 min 40 sec) 
Heartbeat CPU 0 instructions: 81000000 cycles: 287977640 heartbeat IPC: 0.132267 cumulative IPC: 0.118011 (Simulation time: 1 hr 10 min 38 sec) 
Heartbeat CPU 0 instructions: 82000000 cycles: 293003023 heartbeat IPC: 0.19899 cumulative IPC: 0.119531 (Simulation time: 1 hr 11 min 27 sec) 
Heartbeat CPU 0 instructions: 83000001 cycles: 302983967 heartbeat IPC: 0.100191 cumulative IPC: 0.118836 (Simulation time: 1 hr 12 min 18 sec) 
Heartbeat CPU 0 instructions: 84000000 cycles: 314197974 heartbeat IPC: 0.0891741 cumulative IPC: 0.117684 (Simulation time: 1 hr 13 min 12 sec) 
Heartbeat CPU 0 instructions: 85000001 cycles: 318565526 heartbeat IPC: 0.228961 cumulative IPC: 0.119341 (Simulation time: 1 hr 13 min 48 sec) 
Heartbeat CPU 0 instructions: 86000000 cycles: 326773122 heartbeat IPC: 0.121838 cumulative IPC: 0.119409 (Simulation time: 1 hr 14 min 30 sec) 
Heartbeat CPU 0 instructions: 87000000 cycles: 341140250 heartbeat IPC: 0.0696033 cumulative IPC: 0.117144 (Simulation time: 1 hr 15 min 25 sec) 
Heartbeat CPU 0 instructions: 88000000 cycles: 347416218 heartbeat IPC: 0.159338 cumulative IPC: 0.117966 (Simulation time: 1 hr 16 min 9 sec) 
Heartbeat CPU 0 instructions: 89000000 cycles: 351755945 heartbeat IPC: 0.230429 cumulative IPC: 0.119461 (Simulation time: 1 hr 16 min 46 sec) 
Heartbeat CPU 0 instructions: 90000003 cycles: 363549126 heartbeat IPC: 0.084795 cumulative IPC: 0.118252 (Simulation time: 1 hr 17 min 32 sec) 
Heartbeat CPU 0 instructions: 91000000 cycles: 372521152 heartbeat IPC: 0.111457 cumulative IPC: 0.118077 (Simulation time: 1 hr 18 min 12 sec) 
Heartbeat CPU 0 instructions: 92000000 cycles: 376828197 heartbeat IPC: 0.232178 cumulative IPC: 0.119475 (Simulation time: 1 hr 18 min 42 sec) 
Heartbeat CPU 0 instructions: 93000002 cycles: 385966986 heartbeat IPC: 0.109424 cumulative IPC: 0.11922 (Simulation time: 1 hr 19 min 20 sec) 
Heartbeat CPU 0 instructions: 94000002 cycles: 397486390 heartbeat IPC: 0.08681 cumulative IPC: 0.118217 (Simulation time: 1 hr 20 min 3 sec) 
Heartbeat CPU 0 instructions: 95000000 cycles: 403436180 heartbeat IPC: 0.168073 cumulative IPC: 0.119001 (Simulation time: 1 hr 20 min 35 sec) 
Heartbeat CPU 0 instructions: 96000000 cycles: 409429046 heartbeat IPC: 0.166865 cumulative IPC: 0.119748 (Simulation time: 1 hr 21 min 8 sec) 
Heartbeat CPU 0 instructions: 97000000 cycles: 424283458 heartbeat IPC: 0.0673201 cumulative IPC: 0.117796 (Simulation time: 1 hr 21 min 52 sec) 
Heartbeat CPU 0 instructions: 98000002 cycles: 429126018 heartbeat IPC: 0.206503 cumulative IPC: 0.11886 (Simulation time: 1 hr 22 min 21 sec) 
Heartbeat CPU 0 instructions: 99000002 cycles: 434185627 heartbeat IPC: 0.197644 cumulative IPC: 0.119835 (Simulation time: 1 hr 22 min 48 sec) 
Heartbeat CPU 0 instructions: 100000000 cycles: 448163810 heartbeat IPC: 0.0715399 cumulative IPC: 0.118238 (Simulation time: 1 hr 23 min 27 sec) 
Heartbeat CPU 0 instructions: 101000000 cycles: 455029199 heartbeat IPC: 0.145658 cumulative IPC: 0.118676 (Simulation time: 1 hr 23 min 56 sec) 
Heartbeat CPU 0 instructions: 102000003 cycles: 459538838 heartbeat IPC: 0.221748 cumulative IPC: 0.119747 (Simulation time: 1 hr 24 min 18 sec) 
Heartbeat CPU 0 instructions: 103000003 cycles: 471486954 heartbeat IPC: 0.0836952 cumulative IPC: 0.118781 (Simulation time: 1 hr 24 min 47 sec) 
Heartbeat CPU 0 instructions: 104000000 cycles: 482766419 heartbeat IPC: 0.0886564 cumulative IPC: 0.118039 (Simulation time: 1 hr 25 min 14 sec) 
Heartbeat CPU 0 instructions: 105000000 cycles: 487549115 heartbeat IPC: 0.209087 cumulative IPC: 0.118981 (Simulation time: 1 hr 25 min 34 sec) 
Heartbeat CPU 0 instructions: 106000000 cycles: 491891668 heartbeat IPC: 0.230279 cumulative IPC: 0.120017 (Simulation time: 1 hr 25 min 52 sec) 
Heartbeat CPU 0 instructions: 107000002 cycles: 507202661 heartbeat IPC: 0.0653127 cumulative IPC: 0.118279 (Simulation time: 1 hr 26 min 18 sec) 
Heartbeat CPU 0 instructions: 108000000 cycles: 512715223 heartbeat IPC: 0.181403 cumulative IPC: 0.118992 (Simulation time: 1 hr 26 min 36 sec) 
Heartbeat CPU 0 instructions: 109000001 cycles: 517119317 heartbeat IPC: 0.227062 cumulative IPC: 0.11996 (Simulation time: 1 hr 26 min 52 sec) 
Heartbeat CPU 0 instructions: 110000002 cycles: 527074227 heartbeat IPC: 0.100453 cumulative IPC: 0.119573 (Simulation time: 1 hr 27 min 13 sec) 
Heartbeat CPU 0 instructions: 111000003 cycles: 537990555 heartbeat IPC: 0.091606 cumulative IPC: 0.118978 (Simulation time: 1 hr 27 min 33 sec) 
Heartbeat CPU 0 instructions: 112000000 cycles: 542110789 heartbeat IPC: 0.242704 cumulative IPC: 0.119964 (Simulation time: 1 hr 27 min 46 sec) 
Heartbeat CPU 0 instructions: 113000000 cycles: 550125649 heartbeat IPC: 0.124768 cumulative IPC: 0.120037 (Simulation time: 1 hr 28 min 3 sec) 
Heartbeat CPU 0 instructions: 114000000 cycles: 563967540 heartbeat IPC: 0.0722445 cumulative IPC: 0.118809 (Simulation time: 1 hr 28 min 24 sec) 
Heartbeat CPU 0 instructions: 115000001 cycles: 571537263 heartbeat IPC: 0.132105 cumulative IPC: 0.118994 (Simulation time: 1 hr 28 min 40 sec) 
Heartbeat CPU 0 instructions: 116000000 cycles: 575670215 heartbeat IPC: 0.241958 cumulative IPC: 0.119917 (Simulation time: 1 hr 28 min 52 sec) 
Heartbeat CPU 0 instructions: 117000000 cycles: 586120539 heartbeat IPC: 0.0956908 cumulative IPC: 0.119466 (Simulation time: 1 hr 29 min 8 sec) 
Heartbeat CPU 0 instructions: 118000000 cycles: 596353790 heartbeat IPC: 0.0977207 cumulative IPC: 0.119076 (Simulation time: 1 hr 29 min 24 sec) 
Heartbeat CPU 0 instructions: 119000000 cycles: 600593676 heartbeat IPC: 0.235855 cumulative IPC: 0.119937 (Simulation time: 1 hr 29 min 34 sec) 
Heartbeat CPU 0 instructions: 120000000 cycles: 607363982 heartbeat IPC: 0.147704 cumulative IPC: 0.120259 (Simulation time: 1 hr 29 min 46 sec) 
Heartbeat CPU 0 instructions: 121000000 cycles: 621154611 heartbeat IPC: 0.072513 cumulative IPC: 0.119154 (Simulation time: 1 hr 30 min 1 sec) 
Heartbeat CPU 0 instructions: 122000001 cycles: 625466611 heartbeat IPC: 0.231911 cumulative IPC: 0.119965 (Simulation time: 1 hr 30 min 11 sec) 
Heartbeat CPU 0 instructions: 123000000 cycles: 629825811 heartbeat IPC: 0.2294 cumulative IPC: 0.120754 (Simulation time: 1 hr 30 min 20 sec) 
Heartbeat CPU 0 instructions: 124000000 cycles: 644541601 heartbeat IPC: 0.0679542 cumulative IPC: 0.119499 (Simulation time: 1 hr 30 min 34 sec) 
Heartbeat CPU 0 instructions: 125000000 cycles: 650497849 heartbeat IPC: 0.167891 cumulative IPC: 0.11996 (Simulation time: 1 hr 30 min 44 sec) 
Heartbeat CPU 0 instructions: 126000000 cycles: 654720730 heartbeat IPC: 0.236805 cumulative IPC: 0.120744 (Simulation time: 1 hr 30 min 51 sec) 
Heartbeat CPU 0 instructions: 127000002 cycles: 666939859 heartbeat IPC: 0.0818391 cumulative IPC: 0.120003 (Simulation time: 1 hr 31 min 0 sec) 
Heartbeat CPU 0 instructions: 128000000 cycles: 675627849 heartbeat IPC: 0.115101 cumulative IPC: 0.119938 (Simulation time: 1 hr 31 min 9 sec) 
Heartbeat CPU 0 instructions: 129000000 cycles: 679829831 heartbeat IPC: 0.237983 cumulative IPC: 0.120695 (Simulation time: 1 hr 31 min 16 sec) 
Heartbeat CPU 0 instructions: 130000000 cycles: 688937533 heartbeat IPC: 0.109797 cumulative IPC: 0.120546 (Simulation time: 1 hr 31 min 23 sec) 
Heartbeat CPU 0 instructions: 131000000 cycles: 701744645 heartbeat IPC: 0.0780816 cumulative IPC: 0.119742 (Simulation time: 1 hr 31 min 32 sec) 
Heartbeat CPU 0 instructions: 132000000 cycles: 706746407 heartbeat IPC: 0.19993 cumulative IPC: 0.12033 (Simulation time: 1 hr 31 min 38 sec) 
Heartbeat CPU 0 instructions: 133000002 cycles: 711728568 heartbeat IPC: 0.200717 cumulative IPC: 0.120914 (Simulation time: 1 hr 31 min 44 sec) 
Heartbeat CPU 0 instructions: 134000001 cycles: 727146247 heartbeat IPC: 0.0648605 cumulative IPC: 0.119683 (Simulation time: 1 hr 31 min 53 sec) 
Heartbeat CPU 0 instructions: 135000001 cycles: 731844946 heartbeat IPC: 0.212825 cumulative IPC: 0.120302 (Simulation time: 1 hr 31 min 59 sec) 
Heartbeat CPU 0 instructions: 136000000 cycles: 740501011 heartbeat IPC: 0.115526 cumulative IPC: 0.120244 (Simulation time: 1 hr 32 min 6 sec) 
Heartbeat CPU 0 instructions: 137000000 cycles: 750813488 heartbeat IPC: 0.0969699 cumulative IPC: 0.119913 (Simulation time: 1 hr 32 min 15 sec) 
Heartbeat CPU 0 instructions: 138000001 cycles: 761787826 heartbeat IPC: 0.0911218 cumulative IPC: 0.119484 (Simulation time: 1 hr 32 min 24 sec) 
Heartbeat CPU 0 instructions: 139000002 cycles: 766015673 heartbeat IPC: 0.236527 cumulative IPC: 0.120152 (Simulation time: 1 hr 32 min 30 sec) 
Heartbeat CPU 0 instructions: 140000000 cycles: 772437315 heartbeat IPC: 0.155723 cumulative IPC: 0.120458 (Simulation time: 1 hr 32 min 36 sec) 
Heartbeat CPU 0 instructions: 141000002 cycles: 786583042 heartbeat IPC: 0.0706929 cumulative IPC: 0.119533 (Simulation time: 1 hr 32 min 45 sec) 
Heartbeat CPU 0 instructions: 142000002 cycles: 790737496 heartbeat IPC: 0.240706 cumulative IPC: 0.120191 (Simulation time: 1 hr 32 min 51 sec) 
Heartbeat CPU 0 instructions: 143000002 cycles: 794809124 heartbeat IPC: 0.245602 cumulative IPC: 0.120855 (Simulation time: 1 hr 32 min 58 sec) 
Heartbeat CPU 0 instructions: 144000000 cycles: 810017722 heartbeat IPC: 0.0657521 cumulative IPC: 0.119787 (Simulation time: 1 hr 33 min 8 sec) 
Heartbeat CPU 0 instructions: 145000001 cycles: 815438591 heartbeat IPC: 0.184472 cumulative IPC: 0.12023 (Simulation time: 1 hr 33 min 15 sec) 
Heartbeat CPU 0 instructions: 146000001 cycles: 819635514 heartbeat IPC: 0.23827 cumulative IPC: 0.120854 (Simulation time: 1 hr 33 min 21 sec) 
Heartbeat CPU 0 instructions: 147000000 cycles: 832736883 heartbeat IPC: 0.0763278 cumulative IPC: 0.120132 (Simulation time: 1 hr 33 min 30 sec) 
Heartbeat CPU 0 instructions: 148000000 cycles: 840217004 heartbeat IPC: 0.133688 cumulative IPC: 0.120256 (Simulation time: 1 hr 33 min 37 sec) 
Heartbeat CPU 0 instructions: 149000000 cycles: 844471104 heartbeat IPC: 0.235067 cumulative IPC: 0.120852 (Simulation time: 1 hr 33 min 42 sec) 
Heartbeat CPU 0 instructions: 150000000 cycles: 855452803 heartbeat IPC: 0.0910606 cumulative IPC: 0.120458 (Simulation time: 1 hr 33 min 51 sec) 
Finished CPU 0 instructions: 100000000 cycles: 830163636 cummulative IPC: 0.120458 (Simulation time: 1 hr 33 min 51 sec) 

ChampSim completed all CPUs

Region of Interest Statistics

CPU 0 cummulative IPC: 0.120458 instructions: 100000000 cycles: 830163636
LLC TOTAL     ACCESS:   18838936  HIT:    8143925  MISS:   10695011
LLC LOAD      ACCESS:    8519099  HIT:    4225614  MISS:    4293485
LLC RFO       ACCESS:     210567  HIT:      62272  MISS:     148295
LLC PREFETCH  ACCESS:    8013874  HIT:    2548204  MISS:    5465670
LLC WRITEBACK ACCESS:    2095396  HIT:    1307835  MISS:     787561
OPTgen accesses: 790496
OPTgen hits: 346031
OPTgen hit rate: 43.7739


