
*** ChampSim Multicore Out-of-Order Simulator ***

Warmup Instructions: 50000000
Simulation Instructions: 100000000
Configuration: 2
Number of CPUs: 1
LLC sets: 2048
LLC ways: 16
Off-chip DRAM Channels: 1 Width: 64-bit Data Rate: 1600 MT/s

CPU 0 runs /datasets/cs240c-wi22-a00-public/data/Assignment2-gz/bzip2_281B.trace.gz
CPU 0 L1D next line prefetcher
CPU 0 L2C IP-based stride prefetcher
Initialize Hawkeye state
Heartbeat CPU 0 instructions: 1000000 cycles: 445877 heartbeat IPC: 2.24277 cumulative IPC: 2.24277 (Simulation time: 0 hr 0 min 31 sec) 
Heartbeat CPU 0 instructions: 2000003 cycles: 900175 heartbeat IPC: 2.20121 cumulative IPC: 2.22179 (Simulation time: 0 hr 1 min 1 sec) 
Heartbeat CPU 0 instructions: 3000002 cycles: 1315042 heartbeat IPC: 2.41041 cumulative IPC: 2.2813 (Simulation time: 0 hr 1 min 28 sec) 
Heartbeat CPU 0 instructions: 4000000 cycles: 1753542 heartbeat IPC: 2.2805 cumulative IPC: 2.2811 (Simulation time: 0 hr 1 min 54 sec) 
Heartbeat CPU 0 instructions: 5000002 cycles: 2175541 heartbeat IPC: 2.36968 cumulative IPC: 2.29828 (Simulation time: 0 hr 2 min 21 sec) 
Heartbeat CPU 0 instructions: 6000000 cycles: 2666175 heartbeat IPC: 2.03818 cumulative IPC: 2.25041 (Simulation time: 0 hr 2 min 50 sec) 
Heartbeat CPU 0 instructions: 7000001 cycles: 3193411 heartbeat IPC: 1.89669 cumulative IPC: 2.19201 (Simulation time: 0 hr 3 min 17 sec) 
Heartbeat CPU 0 instructions: 8000000 cycles: 3726036 heartbeat IPC: 1.87749 cumulative IPC: 2.14705 (Simulation time: 0 hr 3 min 45 sec) 
Heartbeat CPU 0 instructions: 9000000 cycles: 4232457 heartbeat IPC: 1.97464 cumulative IPC: 2.12642 (Simulation time: 0 hr 4 min 14 sec) 
Heartbeat CPU 0 instructions: 10000002 cycles: 4685393 heartbeat IPC: 2.20782 cumulative IPC: 2.13429 (Simulation time: 0 hr 4 min 40 sec) 
Heartbeat CPU 0 instructions: 11000000 cycles: 5132809 heartbeat IPC: 2.23505 cumulative IPC: 2.14308 (Simulation time: 0 hr 5 min 6 sec) 
Heartbeat CPU 0 instructions: 12000000 cycles: 5613867 heartbeat IPC: 2.07875 cumulative IPC: 2.13756 (Simulation time: 0 hr 5 min 34 sec) 
Heartbeat CPU 0 instructions: 13000001 cycles: 6025300 heartbeat IPC: 2.43053 cumulative IPC: 2.15757 (Simulation time: 0 hr 5 min 58 sec) 
Heartbeat CPU 0 instructions: 14000003 cycles: 6483688 heartbeat IPC: 2.18156 cumulative IPC: 2.15927 (Simulation time: 0 hr 6 min 25 sec) 
Heartbeat CPU 0 instructions: 15000003 cycles: 6943956 heartbeat IPC: 2.17265 cumulative IPC: 2.16015 (Simulation time: 0 hr 6 min 53 sec) 
Heartbeat CPU 0 instructions: 16000000 cycles: 7339915 heartbeat IPC: 2.52551 cumulative IPC: 2.17986 (Simulation time: 0 hr 7 min 18 sec) 
Heartbeat CPU 0 instructions: 17000000 cycles: 7729085 heartbeat IPC: 2.56957 cumulative IPC: 2.19948 (Simulation time: 0 hr 7 min 45 sec) 
Heartbeat CPU 0 instructions: 18000002 cycles: 8185198 heartbeat IPC: 2.19244 cumulative IPC: 2.19909 (Simulation time: 0 hr 8 min 14 sec) 
Heartbeat CPU 0 instructions: 19000000 cycles: 8631128 heartbeat IPC: 2.2425 cumulative IPC: 2.20133 (Simulation time: 0 hr 8 min 41 sec) 
Heartbeat CPU 0 instructions: 20000000 cycles: 9076135 heartbeat IPC: 2.24716 cumulative IPC: 2.20358 (Simulation time: 0 hr 9 min 10 sec) 
Heartbeat CPU 0 instructions: 21000000 cycles: 9463209 heartbeat IPC: 2.58349 cumulative IPC: 2.21912 (Simulation time: 0 hr 9 min 38 sec) 
Heartbeat CPU 0 instructions: 22000003 cycles: 9838910 heartbeat IPC: 2.6617 cumulative IPC: 2.23602 (Simulation time: 0 hr 10 min 4 sec) 
Heartbeat CPU 0 instructions: 23000001 cycles: 10291878 heartbeat IPC: 2.20766 cumulative IPC: 2.23477 (Simulation time: 0 hr 10 min 31 sec) 
Heartbeat CPU 0 instructions: 24000000 cycles: 10746457 heartbeat IPC: 2.19984 cumulative IPC: 2.23329 (Simulation time: 0 hr 10 min 59 sec) 
Heartbeat CPU 0 instructions: 25000001 cycles: 11090117 heartbeat IPC: 2.90986 cumulative IPC: 2.25426 (Simulation time: 0 hr 11 min 25 sec) 
Heartbeat CPU 0 instructions: 26000003 cycles: 11527764 heartbeat IPC: 2.28495 cumulative IPC: 2.25542 (Simulation time: 0 hr 11 min 56 sec) 
Heartbeat CPU 0 instructions: 27000003 cycles: 12000344 heartbeat IPC: 2.11604 cumulative IPC: 2.24994 (Simulation time: 0 hr 12 min 24 sec) 
Heartbeat CPU 0 instructions: 28000000 cycles: 12326848 heartbeat IPC: 3.06274 cumulative IPC: 2.27146 (Simulation time: 0 hr 12 min 47 sec) 
Heartbeat CPU 0 instructions: 29000001 cycles: 12623725 heartbeat IPC: 3.3684 cumulative IPC: 2.29726 (Simulation time: 0 hr 13 min 8 sec) 
Heartbeat CPU 0 instructions: 30000000 cycles: 12920599 heartbeat IPC: 3.36843 cumulative IPC: 2.32187 (Simulation time: 0 hr 13 min 31 sec) 
Heartbeat CPU 0 instructions: 31000000 cycles: 13263002 heartbeat IPC: 2.92054 cumulative IPC: 2.33733 (Simulation time: 0 hr 13 min 54 sec) 
Heartbeat CPU 0 instructions: 32000000 cycles: 13609539 heartbeat IPC: 2.88569 cumulative IPC: 2.35129 (Simulation time: 0 hr 14 min 18 sec) 
Heartbeat CPU 0 instructions: 33000001 cycles: 13968056 heartbeat IPC: 2.78927 cumulative IPC: 2.36253 (Simulation time: 0 hr 14 min 43 sec) 
Heartbeat CPU 0 instructions: 34000001 cycles: 14311629 heartbeat IPC: 2.91059 cumulative IPC: 2.37569 (Simulation time: 0 hr 15 min 5 sec) 
Heartbeat CPU 0 instructions: 35000003 cycles: 14652725 heartbeat IPC: 2.93173 cumulative IPC: 2.38863 (Simulation time: 0 hr 15 min 25 sec) 
Heartbeat CPU 0 instructions: 36000000 cycles: 14991095 heartbeat IPC: 2.95534 cumulative IPC: 2.40143 (Simulation time: 0 hr 15 min 46 sec) 
Heartbeat CPU 0 instructions: 37000000 cycles: 15330209 heartbeat IPC: 2.94886 cumulative IPC: 2.41354 (Simulation time: 0 hr 16 min 6 sec) 
Heartbeat CPU 0 instructions: 38000002 cycles: 15672271 heartbeat IPC: 2.92345 cumulative IPC: 2.42466 (Simulation time: 0 hr 16 min 26 sec) 
Heartbeat CPU 0 instructions: 39000001 cycles: 16011973 heartbeat IPC: 2.94375 cumulative IPC: 2.43568 (Simulation time: 0 hr 16 min 46 sec) 
Heartbeat CPU 0 instructions: 40000000 cycles: 16368301 heartbeat IPC: 2.8064 cumulative IPC: 2.44375 (Simulation time: 0 hr 17 min 7 sec) 
Heartbeat CPU 0 instructions: 41000000 cycles: 16711736 heartbeat IPC: 2.91176 cumulative IPC: 2.45337 (Simulation time: 0 hr 17 min 30 sec) 
Heartbeat CPU 0 instructions: 42000002 cycles: 17053358 heartbeat IPC: 2.92722 cumulative IPC: 2.46286 (Simulation time: 0 hr 17 min 53 sec) 
Heartbeat CPU 0 instructions: 43000000 cycles: 17389385 heartbeat IPC: 2.97595 cumulative IPC: 2.47277 (Simulation time: 0 hr 18 min 14 sec) 
Heartbeat CPU 0 instructions: 44000000 cycles: 17730154 heartbeat IPC: 2.93454 cumulative IPC: 2.48165 (Simulation time: 0 hr 18 min 36 sec) 
Heartbeat CPU 0 instructions: 45000001 cycles: 18066767 heartbeat IPC: 2.97077 cumulative IPC: 2.49076 (Simulation time: 0 hr 18 min 59 sec) 
Heartbeat CPU 0 instructions: 46000000 cycles: 18420213 heartbeat IPC: 2.82928 cumulative IPC: 2.49726 (Simulation time: 0 hr 19 min 21 sec) 
Heartbeat CPU 0 instructions: 47000003 cycles: 18769879 heartbeat IPC: 2.85988 cumulative IPC: 2.50401 (Simulation time: 0 hr 19 min 44 sec) 
Heartbeat CPU 0 instructions: 48000000 cycles: 19119811 heartbeat IPC: 2.85769 cumulative IPC: 2.51049 (Simulation time: 0 hr 20 min 7 sec) 
Heartbeat CPU 0 instructions: 49000003 cycles: 19475220 heartbeat IPC: 2.81367 cumulative IPC: 2.51602 (Simulation time: 0 hr 20 min 30 sec) 
Heartbeat CPU 0 instructions: 50000003 cycles: 19823471 heartbeat IPC: 2.87149 cumulative IPC: 2.52226 (Simulation time: 0 hr 20 min 51 sec) 

Warmup complete CPU 0 instructions: 50000003 cycles: 19823471 (Simulation time: 0 hr 20 min 51 sec) 

Heartbeat CPU 0 instructions: 51000002 cycles: 20780760 heartbeat IPC: 1.04462 cumulative IPC: 1.04462 (Simulation time: 0 hr 21 min 17 sec) 
Heartbeat CPU 0 instructions: 52000000 cycles: 21746663 heartbeat IPC: 1.0353 cumulative IPC: 1.03994 (Simulation time: 0 hr 21 min 46 sec) 
Heartbeat CPU 0 instructions: 53000001 cycles: 22724773 heartbeat IPC: 1.02238 cumulative IPC: 1.03402 (Simulation time: 0 hr 22 min 14 sec) 
Heartbeat CPU 0 instructions: 54000003 cycles: 23705144 heartbeat IPC: 1.02002 cumulative IPC: 1.03048 (Simulation time: 0 hr 22 min 42 sec) 
Heartbeat CPU 0 instructions: 55000000 cycles: 24669142 heartbeat IPC: 1.03734 cumulative IPC: 1.03185 (Simulation time: 0 hr 23 min 11 sec) 
Heartbeat CPU 0 instructions: 56000000 cycles: 25645132 heartbeat IPC: 1.0246 cumulative IPC: 1.03063 (Simulation time: 0 hr 23 min 39 sec) 
Heartbeat CPU 0 instructions: 57000002 cycles: 26612344 heartbeat IPC: 1.0339 cumulative IPC: 1.0311 (Simulation time: 0 hr 24 min 2 sec) 
Heartbeat CPU 0 instructions: 58000003 cycles: 27585030 heartbeat IPC: 1.02808 cumulative IPC: 1.03072 (Simulation time: 0 hr 24 min 31 sec) 
Heartbeat CPU 0 instructions: 59000003 cycles: 28612862 heartbeat IPC: 0.972922 cumulative IPC: 1.02396 (Simulation time: 0 hr 25 min 1 sec) 
Heartbeat CPU 0 instructions: 60000000 cycles: 29820121 heartbeat IPC: 0.82832 cumulative IPC: 1.00033 (Simulation time: 0 hr 25 min 34 sec) 
Heartbeat CPU 0 instructions: 61000000 cycles: 31027075 heartbeat IPC: 0.828532 cumulative IPC: 0.981827 (Simulation time: 0 hr 26 min 6 sec) 
Heartbeat CPU 0 instructions: 62000003 cycles: 32250913 heartbeat IPC: 0.817104 cumulative IPC: 0.965605 (Simulation time: 0 hr 26 min 37 sec) 
Heartbeat CPU 0 instructions: 63000001 cycles: 33482456 heartbeat IPC: 0.811988 cumulative IPC: 0.951754 (Simulation time: 0 hr 27 min 5 sec) 
Heartbeat CPU 0 instructions: 64000000 cycles: 34803793 heartbeat IPC: 0.756808 cumulative IPC: 0.934559 (Simulation time: 0 hr 27 min 37 sec) 
Heartbeat CPU 0 instructions: 65000001 cycles: 36007847 heartbeat IPC: 0.830528 cumulative IPC: 0.92682 (Simulation time: 0 hr 28 min 11 sec) 
Heartbeat CPU 0 instructions: 66000003 cycles: 37209594 heartbeat IPC: 0.832124 cumulative IPC: 0.920274 (Simulation time: 0 hr 28 min 42 sec) 
Heartbeat CPU 0 instructions: 67000000 cycles: 38420856 heartbeat IPC: 0.825583 cumulative IPC: 0.914107 (Simulation time: 0 hr 29 min 14 sec) 
Heartbeat CPU 0 instructions: 68000000 cycles: 39734555 heartbeat IPC: 0.761209 cumulative IPC: 0.904019 (Simulation time: 0 hr 29 min 44 sec) 
Heartbeat CPU 0 instructions: 69000000 cycles: 40931033 heartbeat IPC: 0.835786 cumulative IPC: 0.900151 (Simulation time: 0 hr 30 min 17 sec) 
Heartbeat CPU 0 instructions: 70000002 cycles: 42133247 heartbeat IPC: 0.8318 cumulative IPC: 0.896468 (Simulation time: 0 hr 30 min 48 sec) 
Heartbeat CPU 0 instructions: 71000003 cycles: 43339965 heartbeat IPC: 0.828695 cumulative IPC: 0.89299 (Simulation time: 0 hr 31 min 20 sec) 
Heartbeat CPU 0 instructions: 72000000 cycles: 44547966 heartbeat IPC: 0.827811 cumulative IPC: 0.889806 (Simulation time: 0 hr 31 min 50 sec) 
Heartbeat CPU 0 instructions: 73000002 cycles: 45851502 heartbeat IPC: 0.767146 cumulative IPC: 0.883663 (Simulation time: 0 hr 32 min 18 sec) 
Heartbeat CPU 0 instructions: 74000000 cycles: 47051024 heartbeat IPC: 0.833664 cumulative IPC: 0.88146 (Simulation time: 0 hr 32 min 52 sec) 
Heartbeat CPU 0 instructions: 75000001 cycles: 48252413 heartbeat IPC: 0.832371 cumulative IPC: 0.879385 (Simulation time: 0 hr 33 min 24 sec) 
Heartbeat CPU 0 instructions: 76000000 cycles: 49461710 heartbeat IPC: 0.826926 cumulative IPC: 0.877245 (Simulation time: 0 hr 33 min 54 sec) 
Heartbeat CPU 0 instructions: 77000001 cycles: 50718833 heartbeat IPC: 0.795468 cumulative IPC: 0.873918 (Simulation time: 0 hr 34 min 25 sec) 
Heartbeat CPU 0 instructions: 78000003 cycles: 51887925 heartbeat IPC: 0.855366 cumulative IPC: 0.873241 (Simulation time: 0 hr 34 min 47 sec) 
Heartbeat CPU 0 instructions: 79000000 cycles: 52806988 heartbeat IPC: 1.08806 cumulative IPC: 0.879227 (Simulation time: 0 hr 35 min 9 sec) 
Heartbeat CPU 0 instructions: 80000000 cycles: 53710437 heartbeat IPC: 1.10687 cumulative IPC: 0.885296 (Simulation time: 0 hr 35 min 32 sec) 
Heartbeat CPU 0 instructions: 81000000 cycles: 54556359 heartbeat IPC: 1.18214 cumulative IPC: 0.892526 (Simulation time: 0 hr 35 min 54 sec) 
Heartbeat CPU 0 instructions: 82000001 cycles: 55448194 heartbeat IPC: 1.12128 cumulative IPC: 0.898253 (Simulation time: 0 hr 36 min 18 sec) 
Heartbeat CPU 0 instructions: 83000000 cycles: 56372475 heartbeat IPC: 1.08192 cumulative IPC: 0.902897 (Simulation time: 0 hr 36 min 41 sec) 
Heartbeat CPU 0 instructions: 84000000 cycles: 57289617 heartbeat IPC: 1.09034 cumulative IPC: 0.907486 (Simulation time: 0 hr 37 min 6 sec) 
Heartbeat CPU 0 instructions: 85000002 cycles: 58225268 heartbeat IPC: 1.06878 cumulative IPC: 0.911416 (Simulation time: 0 hr 37 min 36 sec) 
Heartbeat CPU 0 instructions: 86000002 cycles: 59154472 heartbeat IPC: 1.07619 cumulative IPC: 0.915308 (Simulation time: 0 hr 38 min 7 sec) 
Heartbeat CPU 0 instructions: 87000002 cycles: 60083671 heartbeat IPC: 1.0762 cumulative IPC: 0.919022 (Simulation time: 0 hr 38 min 40 sec) 
Heartbeat CPU 0 instructions: 88000000 cycles: 61137881 heartbeat IPC: 0.948576 cumulative IPC: 0.919776 (Simulation time: 0 hr 39 min 13 sec) 
Heartbeat CPU 0 instructions: 89000002 cycles: 62235456 heartbeat IPC: 0.911101 cumulative IPC: 0.919551 (Simulation time: 0 hr 39 min 44 sec) 
Heartbeat CPU 0 instructions: 90000001 cycles: 63328275 heartbeat IPC: 0.915064 cumulative IPC: 0.919439 (Simulation time: 0 hr 40 min 16 sec) 
Heartbeat CPU 0 instructions: 91000001 cycles: 64430685 heartbeat IPC: 0.907104 cumulative IPC: 0.919134 (Simulation time: 0 hr 40 min 48 sec) 
Heartbeat CPU 0 instructions: 92000000 cycles: 65519308 heartbeat IPC: 0.918591 cumulative IPC: 0.919121 (Simulation time: 0 hr 41 min 18 sec) 
Heartbeat CPU 0 instructions: 93000001 cycles: 66604351 heartbeat IPC: 0.921623 cumulative IPC: 0.919179 (Simulation time: 0 hr 41 min 50 sec) 
Heartbeat CPU 0 instructions: 94000001 cycles: 67688916 heartbeat IPC: 0.922029 cumulative IPC: 0.919243 (Simulation time: 0 hr 42 min 22 sec) 
Heartbeat CPU 0 instructions: 95000000 cycles: 68778372 heartbeat IPC: 0.917888 cumulative IPC: 0.919213 (Simulation time: 0 hr 42 min 56 sec) 
Heartbeat CPU 0 instructions: 96000000 cycles: 69864624 heartbeat IPC: 0.920597 cumulative IPC: 0.919243 (Simulation time: 0 hr 43 min 28 sec) 
Heartbeat CPU 0 instructions: 97000002 cycles: 70950658 heartbeat IPC: 0.920783 cumulative IPC: 0.919276 (Simulation time: 0 hr 44 min 0 sec) 
Heartbeat CPU 0 instructions: 98000002 cycles: 72035305 heartbeat IPC: 0.921959 cumulative IPC: 0.919332 (Simulation time: 0 hr 44 min 33 sec) 
Heartbeat CPU 0 instructions: 99000000 cycles: 73118877 heartbeat IPC: 0.922872 cumulative IPC: 0.919404 (Simulation time: 0 hr 45 min 5 sec) 
Heartbeat CPU 0 instructions: 100000000 cycles: 74204460 heartbeat IPC: 0.921164 cumulative IPC: 0.919439 (Simulation time: 0 hr 45 min 38 sec) 
Heartbeat CPU 0 instructions: 101000000 cycles: 75291442 heartbeat IPC: 0.919978 cumulative IPC: 0.919449 (Simulation time: 0 hr 46 min 9 sec) 
Heartbeat CPU 0 instructions: 102000000 cycles: 76381149 heartbeat IPC: 0.917678 cumulative IPC: 0.919415 (Simulation time: 0 hr 46 min 41 sec) 
Heartbeat CPU 0 instructions: 103000002 cycles: 77471669 heartbeat IPC: 0.916996 cumulative IPC: 0.91937 (Simulation time: 0 hr 47 min 15 sec) 
Heartbeat CPU 0 instructions: 104000000 cycles: 78561261 heartbeat IPC: 0.917773 cumulative IPC: 0.91934 (Simulation time: 0 hr 47 min 46 sec) 
Heartbeat CPU 0 instructions: 105000003 cycles: 79656877 heartbeat IPC: 0.912731 cumulative IPC: 0.919219 (Simulation time: 0 hr 48 min 20 sec) 
Heartbeat CPU 0 instructions: 106000002 cycles: 80753068 heartbeat IPC: 0.912249 cumulative IPC: 0.919094 (Simulation time: 0 hr 48 min 50 sec) 
Heartbeat CPU 0 instructions: 107000001 cycles: 81838213 heartbeat IPC: 0.921535 cumulative IPC: 0.919136 (Simulation time: 0 hr 49 min 22 sec) 
Heartbeat CPU 0 instructions: 108000000 cycles: 82932685 heartbeat IPC: 0.913682 cumulative IPC: 0.919042 (Simulation time: 0 hr 49 min 56 sec) 
Heartbeat CPU 0 instructions: 109000001 cycles: 84027864 heartbeat IPC: 0.913094 cumulative IPC: 0.91894 (Simulation time: 0 hr 50 min 29 sec) 
Heartbeat CPU 0 instructions: 110000002 cycles: 85126841 heartbeat IPC: 0.909938 cumulative IPC: 0.918789 (Simulation time: 0 hr 51 min 1 sec) 
Heartbeat CPU 0 instructions: 111000000 cycles: 86214307 heartbeat IPC: 0.919567 cumulative IPC: 0.918801 (Simulation time: 0 hr 51 min 32 sec) 
Heartbeat CPU 0 instructions: 112000000 cycles: 87303729 heartbeat IPC: 0.917918 cumulative IPC: 0.918787 (Simulation time: 0 hr 52 min 3 sec) 
Heartbeat CPU 0 instructions: 113000002 cycles: 88394309 heartbeat IPC: 0.916945 cumulative IPC: 0.918758 (Simulation time: 0 hr 52 min 35 sec) 
Heartbeat CPU 0 instructions: 114000001 cycles: 89487315 heartbeat IPC: 0.914907 cumulative IPC: 0.918697 (Simulation time: 0 hr 53 min 6 sec) 
Heartbeat CPU 0 instructions: 115000001 cycles: 90574468 heartbeat IPC: 0.919834 cumulative IPC: 0.918715 (Simulation time: 0 hr 53 min 38 sec) 
Heartbeat CPU 0 instructions: 116000000 cycles: 91662613 heartbeat IPC: 0.918994 cumulative IPC: 0.918719 (Simulation time: 0 hr 54 min 10 sec) 
Heartbeat CPU 0 instructions: 117000001 cycles: 92750608 heartbeat IPC: 0.919123 cumulative IPC: 0.918725 (Simulation time: 0 hr 54 min 46 sec) 
Heartbeat CPU 0 instructions: 118000000 cycles: 93837227 heartbeat IPC: 0.920285 cumulative IPC: 0.918748 (Simulation time: 0 hr 55 min 15 sec) 
Heartbeat CPU 0 instructions: 119000000 cycles: 94925181 heartbeat IPC: 0.919156 cumulative IPC: 0.918754 (Simulation time: 0 hr 55 min 47 sec) 
Heartbeat CPU 0 instructions: 120000000 cycles: 96014642 heartbeat IPC: 0.917885 cumulative IPC: 0.918742 (Simulation time: 0 hr 56 min 21 sec) 
Heartbeat CPU 0 instructions: 121000000 cycles: 97103148 heartbeat IPC: 0.91869 cumulative IPC: 0.918741 (Simulation time: 0 hr 56 min 55 sec) 
Heartbeat CPU 0 instructions: 122000000 cycles: 98195171 heartbeat IPC: 0.915732 cumulative IPC: 0.918699 (Simulation time: 0 hr 57 min 27 sec) 
Heartbeat CPU 0 instructions: 123000001 cycles: 99289065 heartbeat IPC: 0.914166 cumulative IPC: 0.918637 (Simulation time: 0 hr 57 min 58 sec) 
Heartbeat CPU 0 instructions: 124000000 cycles: 100387013 heartbeat IPC: 0.910789 cumulative IPC: 0.91853 (Simulation time: 0 hr 58 min 32 sec) 
Heartbeat CPU 0 instructions: 125000002 cycles: 101479764 heartbeat IPC: 0.915123 cumulative IPC: 0.918484 (Simulation time: 0 hr 59 min 5 sec) 
Heartbeat CPU 0 instructions: 126000002 cycles: 102570869 heartbeat IPC: 0.916502 cumulative IPC: 0.918458 (Simulation time: 0 hr 59 min 35 sec) 
Heartbeat CPU 0 instructions: 127000003 cycles: 103660031 heartbeat IPC: 0.918138 cumulative IPC: 0.918454 (Simulation time: 1 hr 0 min 7 sec) 
Heartbeat CPU 0 instructions: 128000000 cycles: 104749868 heartbeat IPC: 0.917566 cumulative IPC: 0.918442 (Simulation time: 1 hr 0 min 43 sec) 
Heartbeat CPU 0 instructions: 129000001 cycles: 105838350 heartbeat IPC: 0.918712 cumulative IPC: 0.918446 (Simulation time: 1 hr 1 min 16 sec) 
Heartbeat CPU 0 instructions: 130000001 cycles: 106930776 heartbeat IPC: 0.915394 cumulative IPC: 0.918407 (Simulation time: 1 hr 1 min 47 sec) 
Heartbeat CPU 0 instructions: 131000001 cycles: 108024232 heartbeat IPC: 0.914532 cumulative IPC: 0.918359 (Simulation time: 1 hr 2 min 18 sec) 
Heartbeat CPU 0 instructions: 132000000 cycles: 109117414 heartbeat IPC: 0.91476 cumulative IPC: 0.918315 (Simulation time: 1 hr 2 min 51 sec) 
Heartbeat CPU 0 instructions: 133000002 cycles: 110224658 heartbeat IPC: 0.903145 cumulative IPC: 0.91813 (Simulation time: 1 hr 3 min 22 sec) 
Heartbeat CPU 0 instructions: 134000000 cycles: 111321494 heartbeat IPC: 0.911712 cumulative IPC: 0.918053 (Simulation time: 1 hr 3 min 56 sec) 
Heartbeat CPU 0 instructions: 135000003 cycles: 112421023 heartbeat IPC: 0.909483 cumulative IPC: 0.917951 (Simulation time: 1 hr 4 min 29 sec) 
Heartbeat CPU 0 instructions: 136000000 cycles: 113522267 heartbeat IPC: 0.908061 cumulative IPC: 0.917835 (Simulation time: 1 hr 5 min 0 sec) 
Heartbeat CPU 0 instructions: 137000001 cycles: 114619771 heartbeat IPC: 0.911159 cumulative IPC: 0.917757 (Simulation time: 1 hr 5 min 34 sec) 
Heartbeat CPU 0 instructions: 138000000 cycles: 115731898 heartbeat IPC: 0.899177 cumulative IPC: 0.917542 (Simulation time: 1 hr 6 min 7 sec) 
Heartbeat CPU 0 instructions: 139000002 cycles: 116376135 heartbeat IPC: 1.55223 cumulative IPC: 0.921777 (Simulation time: 1 hr 6 min 36 sec) 
Heartbeat CPU 0 instructions: 140000000 cycles: 117019740 heartbeat IPC: 1.55374 cumulative IPC: 0.925961 (Simulation time: 1 hr 7 min 9 sec) 
Heartbeat CPU 0 instructions: 141000000 cycles: 117665461 heartbeat IPC: 1.54866 cumulative IPC: 0.930071 (Simulation time: 1 hr 7 min 39 sec) 
Heartbeat CPU 0 instructions: 142000002 cycles: 118301150 heartbeat IPC: 1.5731 cumulative IPC: 0.934222 (Simulation time: 1 hr 8 min 8 sec) 
Heartbeat CPU 0 instructions: 143000002 cycles: 118936596 heartbeat IPC: 1.5737 cumulative IPC: 0.938322 (Simulation time: 1 hr 8 min 38 sec) 
Heartbeat CPU 0 instructions: 144000000 cycles: 119570545 heartbeat IPC: 1.57741 cumulative IPC: 0.942384 (Simulation time: 1 hr 9 min 8 sec) 
Heartbeat CPU 0 instructions: 145000001 cycles: 120205392 heartbeat IPC: 1.57518 cumulative IPC: 0.946386 (Simulation time: 1 hr 9 min 36 sec) 
Heartbeat CPU 0 instructions: 146000002 cycles: 120837514 heartbeat IPC: 1.58197 cumulative IPC: 0.950363 (Simulation time: 1 hr 10 min 3 sec) 
Heartbeat CPU 0 instructions: 147000002 cycles: 122183202 heartbeat IPC: 0.743114 cumulative IPC: 0.947638 (Simulation time: 1 hr 10 min 33 sec) 
Heartbeat CPU 0 instructions: 148000000 cycles: 122691790 heartbeat IPC: 1.96622 cumulative IPC: 0.952674 (Simulation time: 1 hr 10 min 56 sec) 
Heartbeat CPU 0 instructions: 149000000 cycles: 123203392 heartbeat IPC: 1.95464 cumulative IPC: 0.957633 (Simulation time: 1 hr 11 min 20 sec) 
Heartbeat CPU 0 instructions: 150000003 cycles: 123717261 heartbeat IPC: 1.94603 cumulative IPC: 0.962521 (Simulation time: 1 hr 11 min 43 sec) 
Finished CPU 0 instructions: 100000000 cycles: 103893790 cummulative IPC: 0.962521 (Simulation time: 1 hr 11 min 43 sec) 

ChampSim completed all CPUs

Region of Interest Statistics

CPU 0 cummulative IPC: 0.962521 instructions: 100000000 cycles: 103893790
LLC TOTAL     ACCESS:     678841  HIT:     548580  MISS:     130261
LLC LOAD      ACCESS:     201695  HIT:     200251  MISS:       1444
LLC RFO       ACCESS:      77432  HIT:      20747  MISS:      56685
LLC PREFETCH  ACCESS:     319044  HIT:     266664  MISS:      52380
LLC WRITEBACK ACCESS:      80670  HIT:      60918  MISS:      19752
OPTgen accesses: 77193
OPTgen hits: 68740
OPTgen hit rate: 89.0495


