
*** ChampSim Multicore Out-of-Order Simulator ***

Warmup Instructions: 50000000
Simulation Instructions: 100000000
Configuration: 2
Number of CPUs: 1
LLC sets: 2048
LLC ways: 16
Off-chip DRAM Channels: 1 Width: 64-bit Data Rate: 1600 MT/s

CPU 0 runs /datasets/cs240c-wi22-a00-public/data/Assignment2-gz/libquantum_964B.trace.gz
CPU 0 L1D next line prefetcher
CPU 0 L2C IP-based stride prefetcher
Initialize Hawkeye state
Heartbeat CPU 0 instructions: 1000002 cycles: 333341 heartbeat IPC: 2.99994 cumulative IPC: 2.99994 (Simulation time: 0 hr 0 min 21 sec) 
Heartbeat CPU 0 instructions: 2000001 cycles: 666674 heartbeat IPC: 3 cumulative IPC: 2.99997 (Simulation time: 0 hr 0 min 43 sec) 
Heartbeat CPU 0 instructions: 3000000 cycles: 1000007 heartbeat IPC: 3 cumulative IPC: 2.99998 (Simulation time: 0 hr 1 min 0 sec) 
Heartbeat CPU 0 instructions: 4000000 cycles: 1333341 heartbeat IPC: 2.99999 cumulative IPC: 2.99998 (Simulation time: 0 hr 1 min 21 sec) 
Heartbeat CPU 0 instructions: 5000000 cycles: 1666674 heartbeat IPC: 3 cumulative IPC: 2.99999 (Simulation time: 0 hr 1 min 40 sec) 
Heartbeat CPU 0 instructions: 6000002 cycles: 2000008 heartbeat IPC: 3 cumulative IPC: 2.99999 (Simulation time: 0 hr 2 min 3 sec) 
Heartbeat CPU 0 instructions: 7000001 cycles: 2331518 heartbeat IPC: 3.0165 cumulative IPC: 3.00234 (Simulation time: 0 hr 2 min 26 sec) 
Heartbeat CPU 0 instructions: 8000000 cycles: 2662240 heartbeat IPC: 3.02368 cumulative IPC: 3.00499 (Simulation time: 0 hr 2 min 44 sec) 
Heartbeat CPU 0 instructions: 9000001 cycles: 2992962 heartbeat IPC: 3.02369 cumulative IPC: 3.00705 (Simulation time: 0 hr 3 min 4 sec) 
Heartbeat CPU 0 instructions: 10000001 cycles: 3323684 heartbeat IPC: 3.02369 cumulative IPC: 3.00871 (Simulation time: 0 hr 3 min 24 sec) 
Heartbeat CPU 0 instructions: 11000000 cycles: 3654406 heartbeat IPC: 3.02368 cumulative IPC: 3.01007 (Simulation time: 0 hr 3 min 44 sec) 
Heartbeat CPU 0 instructions: 12000000 cycles: 3985113 heartbeat IPC: 3.02382 cumulative IPC: 3.01121 (Simulation time: 0 hr 4 min 3 sec) 
Heartbeat CPU 0 instructions: 13000001 cycles: 4315818 heartbeat IPC: 3.02385 cumulative IPC: 3.01218 (Simulation time: 0 hr 4 min 21 sec) 
Heartbeat CPU 0 instructions: 14000000 cycles: 4646523 heartbeat IPC: 3.02384 cumulative IPC: 3.01301 (Simulation time: 0 hr 4 min 42 sec) 
Heartbeat CPU 0 instructions: 15000003 cycles: 4977229 heartbeat IPC: 3.02384 cumulative IPC: 3.01373 (Simulation time: 0 hr 5 min 3 sec) 
Heartbeat CPU 0 instructions: 16000000 cycles: 5307934 heartbeat IPC: 3.02383 cumulative IPC: 3.01436 (Simulation time: 0 hr 5 min 22 sec) 
Heartbeat CPU 0 instructions: 17000000 cycles: 5638642 heartbeat IPC: 3.02382 cumulative IPC: 3.01491 (Simulation time: 0 hr 5 min 42 sec) 
Heartbeat CPU 0 instructions: 18000003 cycles: 5969365 heartbeat IPC: 3.02369 cumulative IPC: 3.0154 (Simulation time: 0 hr 5 min 59 sec) 
Heartbeat CPU 0 instructions: 19000002 cycles: 6300087 heartbeat IPC: 3.02368 cumulative IPC: 3.01583 (Simulation time: 0 hr 6 min 18 sec) 
Heartbeat CPU 0 instructions: 20000000 cycles: 6630808 heartbeat IPC: 3.02369 cumulative IPC: 3.01622 (Simulation time: 0 hr 6 min 38 sec) 
Heartbeat CPU 0 instructions: 21000003 cycles: 6961531 heartbeat IPC: 3.02369 cumulative IPC: 3.01658 (Simulation time: 0 hr 6 min 57 sec) 
Heartbeat CPU 0 instructions: 22000002 cycles: 7292253 heartbeat IPC: 3.02368 cumulative IPC: 3.0169 (Simulation time: 0 hr 7 min 15 sec) 
Heartbeat CPU 0 instructions: 23000000 cycles: 7622968 heartbeat IPC: 3.02375 cumulative IPC: 3.0172 (Simulation time: 0 hr 7 min 34 sec) 
Heartbeat CPU 0 instructions: 24000000 cycles: 7953674 heartbeat IPC: 3.02383 cumulative IPC: 3.01747 (Simulation time: 0 hr 7 min 54 sec) 
Heartbeat CPU 0 instructions: 25000000 cycles: 8284379 heartbeat IPC: 3.02384 cumulative IPC: 3.01773 (Simulation time: 0 hr 8 min 13 sec) 
Heartbeat CPU 0 instructions: 26000002 cycles: 8675744 heartbeat IPC: 2.55516 cumulative IPC: 2.99686 (Simulation time: 0 hr 8 min 38 sec) 
Heartbeat CPU 0 instructions: 27000000 cycles: 9096050 heartbeat IPC: 2.37921 cumulative IPC: 2.96832 (Simulation time: 0 hr 9 min 11 sec) 
Heartbeat CPU 0 instructions: 28000000 cycles: 9516352 heartbeat IPC: 2.37924 cumulative IPC: 2.9423 (Simulation time: 0 hr 9 min 44 sec) 
Heartbeat CPU 0 instructions: 29000002 cycles: 9936683 heartbeat IPC: 2.37908 cumulative IPC: 2.91848 (Simulation time: 0 hr 10 min 13 sec) 
Heartbeat CPU 0 instructions: 30000002 cycles: 10356994 heartbeat IPC: 2.37919 cumulative IPC: 2.89659 (Simulation time: 0 hr 10 min 46 sec) 
Heartbeat CPU 0 instructions: 31000000 cycles: 10777300 heartbeat IPC: 2.37921 cumulative IPC: 2.87642 (Simulation time: 0 hr 11 min 15 sec) 
Heartbeat CPU 0 instructions: 32000000 cycles: 11197602 heartbeat IPC: 2.37924 cumulative IPC: 2.85775 (Simulation time: 0 hr 11 min 46 sec) 
Heartbeat CPU 0 instructions: 33000002 cycles: 11617933 heartbeat IPC: 2.37908 cumulative IPC: 2.84044 (Simulation time: 0 hr 12 min 15 sec) 
Heartbeat CPU 0 instructions: 34000002 cycles: 12038244 heartbeat IPC: 2.37919 cumulative IPC: 2.82433 (Simulation time: 0 hr 12 min 43 sec) 
Heartbeat CPU 0 instructions: 35000000 cycles: 12458550 heartbeat IPC: 2.37921 cumulative IPC: 2.80932 (Simulation time: 0 hr 13 min 15 sec) 
Heartbeat CPU 0 instructions: 36000000 cycles: 12862260 heartbeat IPC: 2.47703 cumulative IPC: 2.79889 (Simulation time: 0 hr 13 min 44 sec) 
Heartbeat CPU 0 instructions: 37000001 cycles: 13195593 heartbeat IPC: 3.00001 cumulative IPC: 2.80397 (Simulation time: 0 hr 14 min 4 sec) 
Heartbeat CPU 0 instructions: 38000000 cycles: 13528926 heartbeat IPC: 3 cumulative IPC: 2.8088 (Simulation time: 0 hr 14 min 25 sec) 
Heartbeat CPU 0 instructions: 39000003 cycles: 13862260 heartbeat IPC: 3 cumulative IPC: 2.81339 (Simulation time: 0 hr 14 min 42 sec) 
Heartbeat CPU 0 instructions: 40000000 cycles: 14195593 heartbeat IPC: 2.99999 cumulative IPC: 2.81778 (Simulation time: 0 hr 15 min 0 sec) 
Heartbeat CPU 0 instructions: 41000001 cycles: 14528926 heartbeat IPC: 3.00001 cumulative IPC: 2.82196 (Simulation time: 0 hr 15 min 19 sec) 
Heartbeat CPU 0 instructions: 42000000 cycles: 14862259 heartbeat IPC: 3 cumulative IPC: 2.82595 (Simulation time: 0 hr 15 min 38 sec) 
Heartbeat CPU 0 instructions: 43000001 cycles: 15195593 heartbeat IPC: 3 cumulative IPC: 2.82977 (Simulation time: 0 hr 15 min 55 sec) 
Heartbeat CPU 0 instructions: 44000000 cycles: 15528926 heartbeat IPC: 3 cumulative IPC: 2.83342 (Simulation time: 0 hr 16 min 15 sec) 
Heartbeat CPU 0 instructions: 45000002 cycles: 15862260 heartbeat IPC: 3 cumulative IPC: 2.83692 (Simulation time: 0 hr 16 min 34 sec) 
Heartbeat CPU 0 instructions: 46000001 cycles: 16195593 heartbeat IPC: 3 cumulative IPC: 2.84028 (Simulation time: 0 hr 16 min 51 sec) 
Heartbeat CPU 0 instructions: 47000000 cycles: 16528926 heartbeat IPC: 3 cumulative IPC: 2.8435 (Simulation time: 0 hr 17 min 11 sec) 
Heartbeat CPU 0 instructions: 48000000 cycles: 16862260 heartbeat IPC: 2.99999 cumulative IPC: 2.84659 (Simulation time: 0 hr 17 min 27 sec) 
Heartbeat CPU 0 instructions: 49000003 cycles: 17195596 heartbeat IPC: 2.99998 cumulative IPC: 2.84957 (Simulation time: 0 hr 17 min 45 sec) 
Heartbeat CPU 0 instructions: 50000001 cycles: 17528926 heartbeat IPC: 3.00002 cumulative IPC: 2.85243 (Simulation time: 0 hr 18 min 2 sec) 

Warmup complete CPU 0 instructions: 50000001 cycles: 17528926 (Simulation time: 0 hr 18 min 2 sec) 

Heartbeat CPU 0 instructions: 51000000 cycles: 18999022 heartbeat IPC: 0.680227 cumulative IPC: 0.680227 (Simulation time: 0 hr 18 min 35 sec) 
Heartbeat CPU 0 instructions: 52000000 cycles: 20465287 heartbeat IPC: 0.682005 cumulative IPC: 0.681115 (Simulation time: 0 hr 19 min 6 sec) 
Heartbeat CPU 0 instructions: 53000000 cycles: 21928871 heartbeat IPC: 0.683254 cumulative IPC: 0.681826 (Simulation time: 0 hr 19 min 39 sec) 
Heartbeat CPU 0 instructions: 54000002 cycles: 23158677 heartbeat IPC: 0.813138 cumulative IPC: 0.710511 (Simulation time: 0 hr 20 min 10 sec) 
Heartbeat CPU 0 instructions: 55000002 cycles: 24333821 heartbeat IPC: 0.85096 cumulative IPC: 0.734765 (Simulation time: 0 hr 20 min 40 sec) 
Heartbeat CPU 0 instructions: 56000000 cycles: 26080936 heartbeat IPC: 0.572371 cumulative IPC: 0.701589 (Simulation time: 0 hr 21 min 12 sec) 
Heartbeat CPU 0 instructions: 57000001 cycles: 27838946 heartbeat IPC: 0.568826 cumulative IPC: 0.678951 (Simulation time: 0 hr 21 min 42 sec) 
Heartbeat CPU 0 instructions: 58000000 cycles: 29586569 heartbeat IPC: 0.572205 cumulative IPC: 0.66348 (Simulation time: 0 hr 22 min 9 sec) 
Heartbeat CPU 0 instructions: 59000003 cycles: 31339895 heartbeat IPC: 0.570346 cumulative IPC: 0.651656 (Simulation time: 0 hr 22 min 39 sec) 
Heartbeat CPU 0 instructions: 60000000 cycles: 33089234 heartbeat IPC: 0.571643 cumulative IPC: 0.642661 (Simulation time: 0 hr 23 min 12 sec) 
Heartbeat CPU 0 instructions: 61000002 cycles: 34835639 heartbeat IPC: 0.572606 cumulative IPC: 0.635592 (Simulation time: 0 hr 23 min 42 sec) 
Heartbeat CPU 0 instructions: 62000001 cycles: 36585629 heartbeat IPC: 0.571431 cumulative IPC: 0.6297 (Simulation time: 0 hr 24 min 13 sec) 
Heartbeat CPU 0 instructions: 63000001 cycles: 38329831 heartbeat IPC: 0.573328 cumulative IPC: 0.624973 (Simulation time: 0 hr 24 min 42 sec) 
Heartbeat CPU 0 instructions: 64000000 cycles: 40083732 heartbeat IPC: 0.570157 cumulative IPC: 0.62071 (Simulation time: 0 hr 25 min 10 sec) 
Heartbeat CPU 0 instructions: 65000002 cycles: 41833030 heartbeat IPC: 0.571659 cumulative IPC: 0.61718 (Simulation time: 0 hr 25 min 46 sec) 
Heartbeat CPU 0 instructions: 66000002 cycles: 43580738 heartbeat IPC: 0.572178 cumulative IPC: 0.614161 (Simulation time: 0 hr 26 min 19 sec) 
Heartbeat CPU 0 instructions: 67000000 cycles: 45330719 heartbeat IPC: 0.571434 cumulative IPC: 0.611471 (Simulation time: 0 hr 26 min 48 sec) 
Heartbeat CPU 0 instructions: 68000000 cycles: 47078033 heartbeat IPC: 0.572307 cumulative IPC: 0.609155 (Simulation time: 0 hr 27 min 16 sec) 
Heartbeat CPU 0 instructions: 69000000 cycles: 48825587 heartbeat IPC: 0.572228 cumulative IPC: 0.607094 (Simulation time: 0 hr 27 min 43 sec) 
Heartbeat CPU 0 instructions: 70000002 cycles: 50572848 heartbeat IPC: 0.572325 cumulative IPC: 0.605255 (Simulation time: 0 hr 28 min 11 sec) 
Heartbeat CPU 0 instructions: 71000001 cycles: 52323407 heartbeat IPC: 0.571246 cumulative IPC: 0.603544 (Simulation time: 0 hr 28 min 40 sec) 
Heartbeat CPU 0 instructions: 72000000 cycles: 54062073 heartbeat IPC: 0.575153 cumulative IPC: 0.602193 (Simulation time: 0 hr 29 min 12 sec) 
Heartbeat CPU 0 instructions: 73000000 cycles: 55482770 heartbeat IPC: 0.70388 cumulative IPC: 0.605999 (Simulation time: 0 hr 29 min 45 sec) 
Heartbeat CPU 0 instructions: 74000000 cycles: 56891744 heartbeat IPC: 0.709736 cumulative IPC: 0.609712 (Simulation time: 0 hr 30 min 14 sec) 
Heartbeat CPU 0 instructions: 75000000 cycles: 59461006 heartbeat IPC: 0.389217 cumulative IPC: 0.596202 (Simulation time: 0 hr 30 min 56 sec) 
Heartbeat CPU 0 instructions: 76000000 cycles: 61790782 heartbeat IPC: 0.429226 cumulative IPC: 0.587413 (Simulation time: 0 hr 31 min 33 sec) 
Heartbeat CPU 0 instructions: 77000000 cycles: 64124334 heartbeat IPC: 0.428531 cumulative IPC: 0.579456 (Simulation time: 0 hr 32 min 12 sec) 
Heartbeat CPU 0 instructions: 78000000 cycles: 66487132 heartbeat IPC: 0.423227 cumulative IPC: 0.571916 (Simulation time: 0 hr 32 min 54 sec) 
Heartbeat CPU 0 instructions: 79000000 cycles: 68817708 heartbeat IPC: 0.429078 cumulative IPC: 0.565426 (Simulation time: 0 hr 33 min 33 sec) 
Heartbeat CPU 0 instructions: 80000000 cycles: 71165554 heartbeat IPC: 0.425922 cumulative IPC: 0.559319 (Simulation time: 0 hr 34 min 13 sec) 
Heartbeat CPU 0 instructions: 81000000 cycles: 73493639 heartbeat IPC: 0.429538 cumulative IPC: 0.55392 (Simulation time: 0 hr 34 min 55 sec) 
Heartbeat CPU 0 instructions: 82000000 cycles: 75813637 heartbeat IPC: 0.431035 cumulative IPC: 0.549029 (Simulation time: 0 hr 35 min 34 sec) 
Heartbeat CPU 0 instructions: 83000000 cycles: 78159002 heartbeat IPC: 0.426373 cumulative IPC: 0.544284 (Simulation time: 0 hr 36 min 16 sec) 
Heartbeat CPU 0 instructions: 84000000 cycles: 80356728 heartbeat IPC: 0.455016 cumulative IPC: 0.541162 (Simulation time: 0 hr 36 min 53 sec) 
Heartbeat CPU 0 instructions: 85000001 cycles: 81967650 heartbeat IPC: 0.620763 cumulative IPC: 0.543152 (Simulation time: 0 hr 37 min 30 sec) 
Heartbeat CPU 0 instructions: 86000000 cycles: 83365666 heartbeat IPC: 0.715299 cumulative IPC: 0.546807 (Simulation time: 0 hr 38 min 1 sec) 
Heartbeat CPU 0 instructions: 87000003 cycles: 84796215 heartbeat IPC: 0.699034 cumulative IPC: 0.550044 (Simulation time: 0 hr 38 min 32 sec) 
Heartbeat CPU 0 instructions: 88000000 cycles: 86306207 heartbeat IPC: 0.662253 cumulative IPC: 0.552508 (Simulation time: 0 hr 39 min 5 sec) 
Heartbeat CPU 0 instructions: 89000001 cycles: 87816254 heartbeat IPC: 0.662232 cumulative IPC: 0.554865 (Simulation time: 0 hr 39 min 42 sec) 
Heartbeat CPU 0 instructions: 90000000 cycles: 89317174 heartbeat IPC: 0.666257 cumulative IPC: 0.557194 (Simulation time: 0 hr 40 min 19 sec) 
Heartbeat CPU 0 instructions: 91000001 cycles: 90827097 heartbeat IPC: 0.662286 cumulative IPC: 0.559359 (Simulation time: 0 hr 40 min 55 sec) 
Heartbeat CPU 0 instructions: 92000000 cycles: 92337205 heartbeat IPC: 0.662204 cumulative IPC: 0.561435 (Simulation time: 0 hr 41 min 30 sec) 
Heartbeat CPU 0 instructions: 93000002 cycles: 93847359 heartbeat IPC: 0.662185 cumulative IPC: 0.563429 (Simulation time: 0 hr 42 min 4 sec) 
Heartbeat CPU 0 instructions: 94000001 cycles: 95357279 heartbeat IPC: 0.662286 cumulative IPC: 0.565347 (Simulation time: 0 hr 42 min 35 sec) 
Heartbeat CPU 0 instructions: 95000000 cycles: 96867203 heartbeat IPC: 0.662284 cumulative IPC: 0.567192 (Simulation time: 0 hr 43 min 7 sec) 
Heartbeat CPU 0 instructions: 96000000 cycles: 98377197 heartbeat IPC: 0.662254 cumulative IPC: 0.568967 (Simulation time: 0 hr 43 min 43 sec) 
Heartbeat CPU 0 instructions: 97000002 cycles: 99885035 heartbeat IPC: 0.663203 cumulative IPC: 0.570692 (Simulation time: 0 hr 44 min 14 sec) 
Heartbeat CPU 0 instructions: 98000001 cycles: 101367541 heartbeat IPC: 0.674533 cumulative IPC: 0.572529 (Simulation time: 0 hr 44 min 46 sec) 
Heartbeat CPU 0 instructions: 99000000 cycles: 102869991 heartbeat IPC: 0.665579 cumulative IPC: 0.574167 (Simulation time: 0 hr 45 min 23 sec) 
Heartbeat CPU 0 instructions: 100000000 cycles: 104379912 heartbeat IPC: 0.662286 cumulative IPC: 0.575699 (Simulation time: 0 hr 45 min 54 sec) 
Heartbeat CPU 0 instructions: 101000000 cycles: 105889134 heartbeat IPC: 0.662593 cumulative IPC: 0.577183 (Simulation time: 0 hr 46 min 25 sec) 
Heartbeat CPU 0 instructions: 102000002 cycles: 107386645 heartbeat IPC: 0.667776 cumulative IPC: 0.578693 (Simulation time: 0 hr 46 min 58 sec) 
Heartbeat CPU 0 instructions: 103000001 cycles: 108829210 heartbeat IPC: 0.693209 cumulative IPC: 0.580502 (Simulation time: 0 hr 47 min 29 sec) 
Heartbeat CPU 0 instructions: 104000000 cycles: 110928485 heartbeat IPC: 0.476354 cumulative IPC: 0.578161 (Simulation time: 0 hr 48 min 8 sec) 
Heartbeat CPU 0 instructions: 105000000 cycles: 113127651 heartbeat IPC: 0.454718 cumulative IPC: 0.575321 (Simulation time: 0 hr 48 min 47 sec) 
Heartbeat CPU 0 instructions: 106000000 cycles: 115482941 heartbeat IPC: 0.424576 cumulative IPC: 0.571697 (Simulation time: 0 hr 49 min 30 sec) 
Heartbeat CPU 0 instructions: 107000000 cycles: 117838311 heartbeat IPC: 0.424562 cumulative IPC: 0.568242 (Simulation time: 0 hr 50 min 9 sec) 
Heartbeat CPU 0 instructions: 108000000 cycles: 120198186 heartbeat IPC: 0.423751 cumulative IPC: 0.564921 (Simulation time: 0 hr 50 min 54 sec) 
Heartbeat CPU 0 instructions: 109000000 cycles: 122546417 heartbeat IPC: 0.425852 cumulative IPC: 0.561811 (Simulation time: 0 hr 51 min 34 sec) 
Heartbeat CPU 0 instructions: 110000000 cycles: 124881049 heartbeat IPC: 0.428333 cumulative IPC: 0.558908 (Simulation time: 0 hr 52 min 12 sec) 
Heartbeat CPU 0 instructions: 111000000 cycles: 127236392 heartbeat IPC: 0.424567 cumulative IPC: 0.556024 (Simulation time: 0 hr 52 min 53 sec) 
Heartbeat CPU 0 instructions: 112000000 cycles: 129587850 heartbeat IPC: 0.425268 cumulative IPC: 0.55328 (Simulation time: 0 hr 53 min 36 sec) 
Heartbeat CPU 0 instructions: 113000000 cycles: 131920742 heartbeat IPC: 0.428652 cumulative IPC: 0.550739 (Simulation time: 0 hr 54 min 20 sec) 
Heartbeat CPU 0 instructions: 114000002 cycles: 133913271 heartbeat IPC: 0.501876 cumulative IPC: 0.549902 (Simulation time: 0 hr 54 min 58 sec) 
Heartbeat CPU 0 instructions: 115000001 cycles: 135558550 heartbeat IPC: 0.607799 cumulative IPC: 0.550709 (Simulation time: 0 hr 55 min 30 sec) 
Heartbeat CPU 0 instructions: 116000000 cycles: 137099327 heartbeat IPC: 0.649023 cumulative IPC: 0.551976 (Simulation time: 0 hr 55 min 59 sec) 
Heartbeat CPU 0 instructions: 117000002 cycles: 138847986 heartbeat IPC: 0.571868 cumulative IPC: 0.552263 (Simulation time: 0 hr 56 min 31 sec) 
Heartbeat CPU 0 instructions: 118000002 cycles: 140596995 heartbeat IPC: 0.571752 cumulative IPC: 0.55254 (Simulation time: 0 hr 57 min 4 sec) 
Heartbeat CPU 0 instructions: 119000002 cycles: 142346916 heartbeat IPC: 0.571454 cumulative IPC: 0.552805 (Simulation time: 0 hr 57 min 38 sec) 
Heartbeat CPU 0 instructions: 120000000 cycles: 144095945 heartbeat IPC: 0.571745 cumulative IPC: 0.553067 (Simulation time: 0 hr 58 min 10 sec) 
Heartbeat CPU 0 instructions: 121000000 cycles: 145847642 heartbeat IPC: 0.570875 cumulative IPC: 0.55331 (Simulation time: 0 hr 58 min 40 sec) 
Heartbeat CPU 0 instructions: 122000001 cycles: 147597116 heartbeat IPC: 0.571601 cumulative IPC: 0.553556 (Simulation time: 0 hr 59 min 14 sec) 
Heartbeat CPU 0 instructions: 123000000 cycles: 149346552 heartbeat IPC: 0.571612 cumulative IPC: 0.553795 (Simulation time: 0 hr 59 min 44 sec) 
Heartbeat CPU 0 instructions: 124000000 cycles: 151103373 heartbeat IPC: 0.56921 cumulative IPC: 0.553998 (Simulation time: 1 hr 0 min 16 sec) 
Heartbeat CPU 0 instructions: 125000001 cycles: 152851150 heartbeat IPC: 0.572156 cumulative IPC: 0.554233 (Simulation time: 1 hr 0 min 47 sec) 
Heartbeat CPU 0 instructions: 126000000 cycles: 154604295 heartbeat IPC: 0.570403 cumulative IPC: 0.554439 (Simulation time: 1 hr 1 min 15 sec) 
Heartbeat CPU 0 instructions: 127000003 cycles: 156350156 heartbeat IPC: 0.572785 cumulative IPC: 0.55467 (Simulation time: 1 hr 1 min 44 sec) 
Heartbeat CPU 0 instructions: 128000000 cycles: 158095318 heartbeat IPC: 0.573011 cumulative IPC: 0.554898 (Simulation time: 1 hr 2 min 10 sec) 
Heartbeat CPU 0 instructions: 129000000 cycles: 159842834 heartbeat IPC: 0.572241 cumulative IPC: 0.555111 (Simulation time: 1 hr 2 min 40 sec) 
Heartbeat CPU 0 instructions: 130000001 cycles: 161590762 heartbeat IPC: 0.572107 cumulative IPC: 0.555317 (Simulation time: 1 hr 3 min 8 sec) 
Heartbeat CPU 0 instructions: 131000000 cycles: 163339482 heartbeat IPC: 0.571846 cumulative IPC: 0.555515 (Simulation time: 1 hr 3 min 39 sec) 
Heartbeat CPU 0 instructions: 132000000 cycles: 165005991 heartbeat IPC: 0.600057 cumulative IPC: 0.556019 (Simulation time: 1 hr 4 min 11 sec) 
Heartbeat CPU 0 instructions: 133000000 cycles: 166820188 heartbeat IPC: 0.551208 cumulative IPC: 0.55596 (Simulation time: 1 hr 4 min 43 sec) 
Heartbeat CPU 0 instructions: 134000000 cycles: 168825786 heartbeat IPC: 0.498604 cumulative IPC: 0.5552 (Simulation time: 1 hr 5 min 18 sec) 
Heartbeat CPU 0 instructions: 135000000 cycles: 171141048 heartbeat IPC: 0.431917 cumulative IPC: 0.553342 (Simulation time: 1 hr 6 min 0 sec) 
Heartbeat CPU 0 instructions: 136000000 cycles: 173459344 heartbeat IPC: 0.431351 cumulative IPC: 0.551528 (Simulation time: 1 hr 6 min 37 sec) 
Heartbeat CPU 0 instructions: 137000000 cycles: 175783731 heartbeat IPC: 0.430221 cumulative IPC: 0.549746 (Simulation time: 1 hr 7 min 15 sec) 
Heartbeat CPU 0 instructions: 138000000 cycles: 178098403 heartbeat IPC: 0.432027 cumulative IPC: 0.548049 (Simulation time: 1 hr 7 min 52 sec) 
Heartbeat CPU 0 instructions: 139000000 cycles: 180412927 heartbeat IPC: 0.432054 cumulative IPC: 0.546401 (Simulation time: 1 hr 8 min 28 sec) 
Heartbeat CPU 0 instructions: 140000000 cycles: 182718055 heartbeat IPC: 0.433815 cumulative IPC: 0.54483 (Simulation time: 1 hr 9 min 6 sec) 
Heartbeat CPU 0 instructions: 141000000 cycles: 185028520 heartbeat IPC: 0.432813 cumulative IPC: 0.543285 (Simulation time: 1 hr 9 min 44 sec) 
Heartbeat CPU 0 instructions: 142000000 cycles: 187345088 heartbeat IPC: 0.431673 cumulative IPC: 0.541762 (Simulation time: 1 hr 10 min 19 sec) 
Heartbeat CPU 0 instructions: 143000000 cycles: 189438506 heartbeat IPC: 0.477688 cumulative IPC: 0.540982 (Simulation time: 1 hr 10 min 54 sec) 
Heartbeat CPU 0 instructions: 144000000 cycles: 191200293 heartbeat IPC: 0.567605 cumulative IPC: 0.541252 (Simulation time: 1 hr 11 min 19 sec) 
Heartbeat CPU 0 instructions: 145000002 cycles: 192762077 heartbeat IPC: 0.640295 cumulative IPC: 0.542135 (Simulation time: 1 hr 11 min 41 sec) 
Heartbeat CPU 0 instructions: 146000001 cycles: 194424248 heartbeat IPC: 0.601622 cumulative IPC: 0.542694 (Simulation time: 1 hr 12 min 3 sec) 
Heartbeat CPU 0 instructions: 147000000 cycles: 196169324 heartbeat IPC: 0.57304 cumulative IPC: 0.54299 (Simulation time: 1 hr 12 min 25 sec) 
Heartbeat CPU 0 instructions: 148000000 cycles: 197923014 heartbeat IPC: 0.570226 cumulative IPC: 0.543255 (Simulation time: 1 hr 12 min 48 sec) 
Heartbeat CPU 0 instructions: 149000002 cycles: 199672058 heartbeat IPC: 0.571742 cumulative IPC: 0.543529 (Simulation time: 1 hr 13 min 11 sec) 
Heartbeat CPU 0 instructions: 150000000 cycles: 201420965 heartbeat IPC: 0.571785 cumulative IPC: 0.543797 (Simulation time: 1 hr 13 min 35 sec) 
Finished CPU 0 instructions: 100000001 cycles: 183892040 cummulative IPC: 0.543797 (Simulation time: 1 hr 13 min 35 sec) 

ChampSim completed all CPUs

Region of Interest Statistics

CPU 0 cummulative IPC: 0.543797 instructions: 100000001 cycles: 183892040
LLC TOTAL     ACCESS:    5216164  HIT:     366478  MISS:    4849686
LLC LOAD      ACCESS:    1219097  HIT:      76979  MISS:    1142118
LLC RFO       ACCESS:         28  HIT:         22  MISS:          6
LLC PREFETCH  ACCESS:    2247986  HIT:     137657  MISS:    2110329
LLC WRITEBACK ACCESS:    1749053  HIT:     151820  MISS:    1597233
OPTgen accesses: 77755
OPTgen hits: 304
OPTgen hit rate: 0.390972


