
*** ChampSim Multicore Out-of-Order Simulator ***

Warmup Instructions: 50000000
Simulation Instructions: 100000000
Configuration: 2
Number of CPUs: 1
LLC sets: 2048
LLC ways: 16
Off-chip DRAM Channels: 1 Width: 64-bit Data Rate: 1600 MT/s

CPU 0 runs /datasets/cs240c-wi22-a00-public/data/Assignment2-gz/calculix_3812B.trace.gz
CPU 0 L1D next line prefetcher
CPU 0 L2C IP-based stride prefetcher
Initialize Hawkeye state
Heartbeat CPU 0 instructions: 1000001 cycles: 478689 heartbeat IPC: 2.08904 cumulative IPC: 2.08904 (Simulation time: 0 hr 0 min 37 sec) 
Heartbeat CPU 0 instructions: 2000002 cycles: 956483 heartbeat IPC: 2.09295 cumulative IPC: 2.091 (Simulation time: 0 hr 1 min 17 sec) 
Heartbeat CPU 0 instructions: 3000002 cycles: 1434999 heartbeat IPC: 2.08979 cumulative IPC: 2.0906 (Simulation time: 0 hr 1 min 52 sec) 
Heartbeat CPU 0 instructions: 4000000 cycles: 1907482 heartbeat IPC: 2.11647 cumulative IPC: 2.09701 (Simulation time: 0 hr 2 min 28 sec) 
Heartbeat CPU 0 instructions: 5000000 cycles: 2356065 heartbeat IPC: 2.22924 cumulative IPC: 2.12218 (Simulation time: 0 hr 2 min 59 sec) 
Heartbeat CPU 0 instructions: 6000003 cycles: 2761452 heartbeat IPC: 2.46679 cumulative IPC: 2.17277 (Simulation time: 0 hr 3 min 24 sec) 
Heartbeat CPU 0 instructions: 7000002 cycles: 3154562 heartbeat IPC: 2.54381 cumulative IPC: 2.21901 (Simulation time: 0 hr 3 min 52 sec) 
Heartbeat CPU 0 instructions: 8000000 cycles: 3547703 heartbeat IPC: 2.54361 cumulative IPC: 2.25498 (Simulation time: 0 hr 4 min 16 sec) 
Heartbeat CPU 0 instructions: 9000000 cycles: 3940692 heartbeat IPC: 2.5446 cumulative IPC: 2.28386 (Simulation time: 0 hr 4 min 41 sec) 
Heartbeat CPU 0 instructions: 10000003 cycles: 4333781 heartbeat IPC: 2.54396 cumulative IPC: 2.30745 (Simulation time: 0 hr 5 min 3 sec) 
Heartbeat CPU 0 instructions: 11000000 cycles: 4726728 heartbeat IPC: 2.54486 cumulative IPC: 2.32719 (Simulation time: 0 hr 5 min 28 sec) 
Heartbeat CPU 0 instructions: 12000000 cycles: 5119914 heartbeat IPC: 2.54333 cumulative IPC: 2.34379 (Simulation time: 0 hr 5 min 52 sec) 
Heartbeat CPU 0 instructions: 13000003 cycles: 5513001 heartbeat IPC: 2.54397 cumulative IPC: 2.35806 (Simulation time: 0 hr 6 min 17 sec) 
Heartbeat CPU 0 instructions: 14000001 cycles: 5941907 heartbeat IPC: 2.33151 cumulative IPC: 2.35615 (Simulation time: 0 hr 6 min 47 sec) 
Heartbeat CPU 0 instructions: 15000000 cycles: 6335141 heartbeat IPC: 2.54301 cumulative IPC: 2.36775 (Simulation time: 0 hr 7 min 8 sec) 
Heartbeat CPU 0 instructions: 16000000 cycles: 6728338 heartbeat IPC: 2.54325 cumulative IPC: 2.378 (Simulation time: 0 hr 7 min 30 sec) 
Heartbeat CPU 0 instructions: 17000002 cycles: 7121515 heartbeat IPC: 2.54339 cumulative IPC: 2.38713 (Simulation time: 0 hr 7 min 55 sec) 
Heartbeat CPU 0 instructions: 18000001 cycles: 7514850 heartbeat IPC: 2.54236 cumulative IPC: 2.39526 (Simulation time: 0 hr 8 min 21 sec) 
Heartbeat CPU 0 instructions: 19000001 cycles: 7908075 heartbeat IPC: 2.54307 cumulative IPC: 2.40261 (Simulation time: 0 hr 8 min 47 sec) 
Heartbeat CPU 0 instructions: 20000000 cycles: 8301070 heartbeat IPC: 2.54456 cumulative IPC: 2.40933 (Simulation time: 0 hr 9 min 11 sec) 
Heartbeat CPU 0 instructions: 21000000 cycles: 8694311 heartbeat IPC: 2.54297 cumulative IPC: 2.41537 (Simulation time: 0 hr 9 min 39 sec) 
Heartbeat CPU 0 instructions: 22000003 cycles: 9087602 heartbeat IPC: 2.54265 cumulative IPC: 2.42088 (Simulation time: 0 hr 10 min 0 sec) 
Heartbeat CPU 0 instructions: 23000002 cycles: 9480896 heartbeat IPC: 2.54262 cumulative IPC: 2.42593 (Simulation time: 0 hr 10 min 27 sec) 
Heartbeat CPU 0 instructions: 24000000 cycles: 9874168 heartbeat IPC: 2.54276 cumulative IPC: 2.43058 (Simulation time: 0 hr 10 min 52 sec) 
Heartbeat CPU 0 instructions: 25000003 cycles: 10262639 heartbeat IPC: 2.5742 cumulative IPC: 2.43602 (Simulation time: 0 hr 11 min 15 sec) 
Heartbeat CPU 0 instructions: 26000003 cycles: 10649278 heartbeat IPC: 2.58639 cumulative IPC: 2.44148 (Simulation time: 0 hr 11 min 44 sec) 
Heartbeat CPU 0 instructions: 27000000 cycles: 11035383 heartbeat IPC: 2.58996 cumulative IPC: 2.44668 (Simulation time: 0 hr 12 min 11 sec) 
Heartbeat CPU 0 instructions: 28000000 cycles: 11422697 heartbeat IPC: 2.58188 cumulative IPC: 2.45126 (Simulation time: 0 hr 12 min 40 sec) 
Heartbeat CPU 0 instructions: 29000003 cycles: 11815231 heartbeat IPC: 2.54756 cumulative IPC: 2.45446 (Simulation time: 0 hr 13 min 3 sec) 
Heartbeat CPU 0 instructions: 30000001 cycles: 12202024 heartbeat IPC: 2.58536 cumulative IPC: 2.45861 (Simulation time: 0 hr 13 min 29 sec) 
Heartbeat CPU 0 instructions: 31000001 cycles: 12567439 heartbeat IPC: 2.73661 cumulative IPC: 2.46669 (Simulation time: 0 hr 13 min 56 sec) 
Heartbeat CPU 0 instructions: 32000000 cycles: 13033763 heartbeat IPC: 2.14443 cumulative IPC: 2.45516 (Simulation time: 0 hr 14 min 37 sec) 
Heartbeat CPU 0 instructions: 33000003 cycles: 13513344 heartbeat IPC: 2.08516 cumulative IPC: 2.44203 (Simulation time: 0 hr 15 min 17 sec) 
Heartbeat CPU 0 instructions: 34000000 cycles: 13993094 heartbeat IPC: 2.08441 cumulative IPC: 2.42977 (Simulation time: 0 hr 15 min 52 sec) 
Heartbeat CPU 0 instructions: 35000000 cycles: 14471785 heartbeat IPC: 2.08903 cumulative IPC: 2.4185 (Simulation time: 0 hr 16 min 33 sec) 
Heartbeat CPU 0 instructions: 36000000 cycles: 14948653 heartbeat IPC: 2.09702 cumulative IPC: 2.40824 (Simulation time: 0 hr 17 min 13 sec) 
Heartbeat CPU 0 instructions: 37000003 cycles: 15427104 heartbeat IPC: 2.09008 cumulative IPC: 2.39838 (Simulation time: 0 hr 17 min 50 sec) 
Heartbeat CPU 0 instructions: 38000003 cycles: 15900909 heartbeat IPC: 2.11057 cumulative IPC: 2.3898 (Simulation time: 0 hr 18 min 27 sec) 
Heartbeat CPU 0 instructions: 39000001 cycles: 16324262 heartbeat IPC: 2.36209 cumulative IPC: 2.38908 (Simulation time: 0 hr 18 min 57 sec) 
Heartbeat CPU 0 instructions: 40000000 cycles: 16759354 heartbeat IPC: 2.29836 cumulative IPC: 2.38673 (Simulation time: 0 hr 19 min 31 sec) 
Heartbeat CPU 0 instructions: 41000002 cycles: 17202635 heartbeat IPC: 2.25591 cumulative IPC: 2.38336 (Simulation time: 0 hr 20 min 2 sec) 
Heartbeat CPU 0 instructions: 42000003 cycles: 17578857 heartbeat IPC: 2.65801 cumulative IPC: 2.38923 (Simulation time: 0 hr 20 min 30 sec) 
Heartbeat CPU 0 instructions: 43000000 cycles: 17974018 heartbeat IPC: 2.53061 cumulative IPC: 2.39234 (Simulation time: 0 hr 21 min 1 sec) 
Heartbeat CPU 0 instructions: 44000000 cycles: 18451805 heartbeat IPC: 2.09298 cumulative IPC: 2.38459 (Simulation time: 0 hr 21 min 33 sec) 
Heartbeat CPU 0 instructions: 45000002 cycles: 18927144 heartbeat IPC: 2.10377 cumulative IPC: 2.37754 (Simulation time: 0 hr 22 min 9 sec) 
Heartbeat CPU 0 instructions: 46000002 cycles: 19405048 heartbeat IPC: 2.09247 cumulative IPC: 2.37052 (Simulation time: 0 hr 22 min 45 sec) 
Heartbeat CPU 0 instructions: 47000002 cycles: 19841018 heartbeat IPC: 2.29374 cumulative IPC: 2.36883 (Simulation time: 0 hr 23 min 14 sec) 
Heartbeat CPU 0 instructions: 48000000 cycles: 20234910 heartbeat IPC: 2.53876 cumulative IPC: 2.37214 (Simulation time: 0 hr 23 min 37 sec) 
Heartbeat CPU 0 instructions: 49000001 cycles: 20628398 heartbeat IPC: 2.54138 cumulative IPC: 2.37537 (Simulation time: 0 hr 24 min 7 sec) 
Heartbeat CPU 0 instructions: 50000000 cycles: 21023479 heartbeat IPC: 2.53112 cumulative IPC: 2.37829 (Simulation time: 0 hr 24 min 34 sec) 

Warmup complete CPU 0 instructions: 50000004 cycles: 21023480 (Simulation time: 0 hr 24 min 34 sec) 

Heartbeat CPU 0 instructions: 51000000 cycles: 21626572 heartbeat IPC: 1.65812 cumulative IPC: 1.65812 (Simulation time: 0 hr 25 min 7 sec) 
Heartbeat CPU 0 instructions: 52000000 cycles: 22205307 heartbeat IPC: 1.72791 cumulative IPC: 1.69229 (Simulation time: 0 hr 25 min 36 sec) 
Heartbeat CPU 0 instructions: 53000000 cycles: 22645227 heartbeat IPC: 2.27314 cumulative IPC: 1.84985 (Simulation time: 0 hr 26 min 3 sec) 
Heartbeat CPU 0 instructions: 54000003 cycles: 23084481 heartbeat IPC: 2.27659 cumulative IPC: 1.9408 (Simulation time: 0 hr 26 min 31 sec) 
Heartbeat CPU 0 instructions: 55000001 cycles: 23524013 heartbeat IPC: 2.27514 cumulative IPC: 1.99957 (Simulation time: 0 hr 26 min 58 sec) 
Heartbeat CPU 0 instructions: 56000000 cycles: 23963873 heartbeat IPC: 2.27345 cumulative IPC: 2.04054 (Simulation time: 0 hr 27 min 25 sec) 
Heartbeat CPU 0 instructions: 57000003 cycles: 24404514 heartbeat IPC: 2.26943 cumulative IPC: 2.07037 (Simulation time: 0 hr 27 min 54 sec) 
Heartbeat CPU 0 instructions: 58000002 cycles: 24862933 heartbeat IPC: 2.18141 cumulative IPC: 2.08363 (Simulation time: 0 hr 28 min 27 sec) 
Heartbeat CPU 0 instructions: 59000001 cycles: 25466930 heartbeat IPC: 1.65564 cumulative IPC: 2.02545 (Simulation time: 0 hr 28 min 59 sec) 
Heartbeat CPU 0 instructions: 60000000 cycles: 25913283 heartbeat IPC: 2.24038 cumulative IPC: 2.04507 (Simulation time: 0 hr 29 min 28 sec) 
Heartbeat CPU 0 instructions: 61000003 cycles: 26361850 heartbeat IPC: 2.22933 cumulative IPC: 2.06055 (Simulation time: 0 hr 29 min 54 sec) 
Heartbeat CPU 0 instructions: 62000002 cycles: 26800012 heartbeat IPC: 2.28226 cumulative IPC: 2.07737 (Simulation time: 0 hr 30 min 21 sec) 
Heartbeat CPU 0 instructions: 63000003 cycles: 27238131 heartbeat IPC: 2.28249 cumulative IPC: 2.09183 (Simulation time: 0 hr 30 min 51 sec) 
Heartbeat CPU 0 instructions: 64000000 cycles: 27675638 heartbeat IPC: 2.28567 cumulative IPC: 2.10458 (Simulation time: 0 hr 31 min 17 sec) 
Heartbeat CPU 0 instructions: 65000000 cycles: 28304292 heartbeat IPC: 1.5907 cumulative IPC: 2.06021 (Simulation time: 0 hr 31 min 45 sec) 
Heartbeat CPU 0 instructions: 66000002 cycles: 28867261 heartbeat IPC: 1.7763 cumulative IPC: 2.03983 (Simulation time: 0 hr 32 min 11 sec) 
Heartbeat CPU 0 instructions: 67000002 cycles: 29309640 heartbeat IPC: 2.26051 cumulative IPC: 2.05161 (Simulation time: 0 hr 32 min 37 sec) 
Heartbeat CPU 0 instructions: 68000000 cycles: 29747339 heartbeat IPC: 2.28467 cumulative IPC: 2.06331 (Simulation time: 0 hr 33 min 2 sec) 
Heartbeat CPU 0 instructions: 69000001 cycles: 30293325 heartbeat IPC: 1.83155 cumulative IPC: 2.04966 (Simulation time: 0 hr 33 min 28 sec) 
Heartbeat CPU 0 instructions: 70000000 cycles: 30737496 heartbeat IPC: 2.25138 cumulative IPC: 2.05888 (Simulation time: 0 hr 33 min 57 sec) 
Heartbeat CPU 0 instructions: 71000000 cycles: 31178203 heartbeat IPC: 2.26908 cumulative IPC: 2.068 (Simulation time: 0 hr 34 min 28 sec) 
Heartbeat CPU 0 instructions: 72000000 cycles: 31658875 heartbeat IPC: 2.08042 cumulative IPC: 2.06856 (Simulation time: 0 hr 34 min 54 sec) 
Heartbeat CPU 0 instructions: 73000001 cycles: 32218421 heartbeat IPC: 1.78716 cumulative IPC: 2.0545 (Simulation time: 0 hr 35 min 23 sec) 
Heartbeat CPU 0 instructions: 74000002 cycles: 32849033 heartbeat IPC: 1.58576 cumulative IPC: 2.0295 (Simulation time: 0 hr 35 min 50 sec) 
Heartbeat CPU 0 instructions: 75000000 cycles: 33388933 heartbeat IPC: 1.85219 cumulative IPC: 2.02176 (Simulation time: 0 hr 36 min 18 sec) 
Heartbeat CPU 0 instructions: 76000000 cycles: 34127685 heartbeat IPC: 1.35363 cumulative IPC: 1.9841 (Simulation time: 0 hr 36 min 49 sec) 
Heartbeat CPU 0 instructions: 77000000 cycles: 34848648 heartbeat IPC: 1.38703 cumulative IPC: 1.95296 (Simulation time: 0 hr 37 min 22 sec) 
Heartbeat CPU 0 instructions: 78000003 cycles: 35567424 heartbeat IPC: 1.39126 cumulative IPC: 1.9252 (Simulation time: 0 hr 37 min 54 sec) 
Heartbeat CPU 0 instructions: 79000000 cycles: 36278325 heartbeat IPC: 1.40666 cumulative IPC: 1.90104 (Simulation time: 0 hr 38 min 23 sec) 
Heartbeat CPU 0 instructions: 80000000 cycles: 36963407 heartbeat IPC: 1.45968 cumulative IPC: 1.88207 (Simulation time: 0 hr 38 min 53 sec) 
Heartbeat CPU 0 instructions: 81000001 cycles: 37627739 heartbeat IPC: 1.50527 cumulative IPC: 1.86699 (Simulation time: 0 hr 39 min 25 sec) 
Heartbeat CPU 0 instructions: 82000002 cycles: 38270697 heartbeat IPC: 1.55531 cumulative IPC: 1.85537 (Simulation time: 0 hr 39 min 58 sec) 
Heartbeat CPU 0 instructions: 83000002 cycles: 39120416 heartbeat IPC: 1.17686 cumulative IPC: 1.82351 (Simulation time: 0 hr 40 min 32 sec) 
Heartbeat CPU 0 instructions: 84000000 cycles: 39891605 heartbeat IPC: 1.2967 cumulative IPC: 1.80198 (Simulation time: 0 hr 40 min 59 sec) 
Heartbeat CPU 0 instructions: 85000000 cycles: 40509553 heartbeat IPC: 1.61826 cumulative IPC: 1.79615 (Simulation time: 0 hr 41 min 28 sec) 
Heartbeat CPU 0 instructions: 86000001 cycles: 40992745 heartbeat IPC: 2.06957 cumulative IPC: 1.80277 (Simulation time: 0 hr 41 min 52 sec) 
Heartbeat CPU 0 instructions: 87000002 cycles: 41451763 heartbeat IPC: 2.17857 cumulative IPC: 1.81121 (Simulation time: 0 hr 42 min 17 sec) 
Heartbeat CPU 0 instructions: 88000000 cycles: 41906779 heartbeat IPC: 2.19772 cumulative IPC: 1.81964 (Simulation time: 0 hr 42 min 42 sec) 
Heartbeat CPU 0 instructions: 89000003 cycles: 42360167 heartbeat IPC: 2.20562 cumulative IPC: 1.82784 (Simulation time: 0 hr 43 min 7 sec) 
Heartbeat CPU 0 instructions: 90000003 cycles: 42813407 heartbeat IPC: 2.20634 cumulative IPC: 1.83571 (Simulation time: 0 hr 43 min 36 sec) 
Heartbeat CPU 0 instructions: 91000003 cycles: 43285729 heartbeat IPC: 2.1172 cumulative IPC: 1.84168 (Simulation time: 0 hr 44 min 2 sec) 
Heartbeat CPU 0 instructions: 92000000 cycles: 43788597 heartbeat IPC: 1.98859 cumulative IPC: 1.84493 (Simulation time: 0 hr 44 min 28 sec) 
Heartbeat CPU 0 instructions: 93000000 cycles: 44235999 heartbeat IPC: 2.23513 cumulative IPC: 1.85245 (Simulation time: 0 hr 44 min 54 sec) 
Heartbeat CPU 0 instructions: 94000003 cycles: 44682292 heartbeat IPC: 2.24069 cumulative IPC: 1.85977 (Simulation time: 0 hr 45 min 19 sec) 
Heartbeat CPU 0 instructions: 95000001 cycles: 45298856 heartbeat IPC: 1.62189 cumulative IPC: 1.85373 (Simulation time: 0 hr 45 min 46 sec) 
Heartbeat CPU 0 instructions: 96000000 cycles: 45912693 heartbeat IPC: 1.6291 cumulative IPC: 1.84819 (Simulation time: 0 hr 46 min 12 sec) 
Heartbeat CPU 0 instructions: 97000000 cycles: 46387331 heartbeat IPC: 2.10687 cumulative IPC: 1.85303 (Simulation time: 0 hr 46 min 39 sec) 
Heartbeat CPU 0 instructions: 98000003 cycles: 46828311 heartbeat IPC: 2.26768 cumulative IPC: 1.86012 (Simulation time: 0 hr 47 min 6 sec) 
Heartbeat CPU 0 instructions: 99000000 cycles: 47269337 heartbeat IPC: 2.26743 cumulative IPC: 1.86696 (Simulation time: 0 hr 47 min 33 sec) 
Heartbeat CPU 0 instructions: 100000000 cycles: 47711275 heartbeat IPC: 2.26276 cumulative IPC: 1.87352 (Simulation time: 0 hr 48 min 0 sec) 
Heartbeat CPU 0 instructions: 101000003 cycles: 48150955 heartbeat IPC: 2.27439 cumulative IPC: 1.88001 (Simulation time: 0 hr 48 min 29 sec) 
Heartbeat CPU 0 instructions: 102000002 cycles: 48673748 heartbeat IPC: 1.9128 cumulative IPC: 1.88063 (Simulation time: 0 hr 48 min 56 sec) 
Heartbeat CPU 0 instructions: 103000000 cycles: 49164236 heartbeat IPC: 2.03878 cumulative IPC: 1.88339 (Simulation time: 0 hr 49 min 23 sec) 
Heartbeat CPU 0 instructions: 104000000 cycles: 49604205 heartbeat IPC: 2.27289 cumulative IPC: 1.88939 (Simulation time: 0 hr 49 min 51 sec) 
Heartbeat CPU 0 instructions: 105000000 cycles: 50043219 heartbeat IPC: 2.27783 cumulative IPC: 1.89526 (Simulation time: 0 hr 50 min 20 sec) 
Heartbeat CPU 0 instructions: 106000003 cycles: 50480128 heartbeat IPC: 2.28881 cumulative IPC: 1.9011 (Simulation time: 0 hr 50 min 48 sec) 
Heartbeat CPU 0 instructions: 107000003 cycles: 50918020 heartbeat IPC: 2.28367 cumulative IPC: 1.9067 (Simulation time: 0 hr 51 min 14 sec) 
Heartbeat CPU 0 instructions: 108000000 cycles: 51430839 heartbeat IPC: 1.95 cumulative IPC: 1.90743 (Simulation time: 0 hr 51 min 42 sec) 
Heartbeat CPU 0 instructions: 109000002 cycles: 52064310 heartbeat IPC: 1.57861 cumulative IPC: 1.90072 (Simulation time: 0 hr 52 min 12 sec) 
Heartbeat CPU 0 instructions: 110000003 cycles: 52505347 heartbeat IPC: 2.26739 cumulative IPC: 1.90586 (Simulation time: 0 hr 52 min 36 sec) 
Heartbeat CPU 0 instructions: 111000001 cycles: 52945173 heartbeat IPC: 2.27362 cumulative IPC: 1.91093 (Simulation time: 0 hr 53 min 0 sec) 
Heartbeat CPU 0 instructions: 112000000 cycles: 53416497 heartbeat IPC: 2.12168 cumulative IPC: 1.91399 (Simulation time: 0 hr 53 min 26 sec) 
Heartbeat CPU 0 instructions: 113000003 cycles: 53890490 heartbeat IPC: 2.10974 cumulative IPC: 1.91682 (Simulation time: 0 hr 53 min 53 sec) 
Heartbeat CPU 0 instructions: 114000003 cycles: 54333278 heartbeat IPC: 2.25842 cumulative IPC: 1.92136 (Simulation time: 0 hr 54 min 20 sec) 
Heartbeat CPU 0 instructions: 115000002 cycles: 54771344 heartbeat IPC: 2.28276 cumulative IPC: 1.92605 (Simulation time: 0 hr 54 min 46 sec) 
Heartbeat CPU 0 instructions: 116000000 cycles: 55267418 heartbeat IPC: 2.01582 cumulative IPC: 1.92735 (Simulation time: 0 hr 55 min 13 sec) 
Heartbeat CPU 0 instructions: 117000000 cycles: 55816919 heartbeat IPC: 1.81983 cumulative IPC: 1.92565 (Simulation time: 0 hr 55 min 40 sec) 
Heartbeat CPU 0 instructions: 118000001 cycles: 56443386 heartbeat IPC: 1.59625 cumulative IPC: 1.91982 (Simulation time: 0 hr 56 min 9 sec) 
Heartbeat CPU 0 instructions: 119000003 cycles: 57184284 heartbeat IPC: 1.34972 cumulative IPC: 1.90814 (Simulation time: 0 hr 56 min 42 sec) 
Heartbeat CPU 0 instructions: 120000000 cycles: 57901267 heartbeat IPC: 1.39473 cumulative IPC: 1.89816 (Simulation time: 0 hr 57 min 16 sec) 
Heartbeat CPU 0 instructions: 121000001 cycles: 58616252 heartbeat IPC: 1.39863 cumulative IPC: 1.88866 (Simulation time: 0 hr 57 min 49 sec) 
Heartbeat CPU 0 instructions: 122000002 cycles: 59322071 heartbeat IPC: 1.4168 cumulative IPC: 1.87996 (Simulation time: 0 hr 58 min 24 sec) 
Heartbeat CPU 0 instructions: 123000002 cycles: 60004517 heartbeat IPC: 1.46532 cumulative IPC: 1.87271 (Simulation time: 0 hr 58 min 57 sec) 
Heartbeat CPU 0 instructions: 124000000 cycles: 60668020 heartbeat IPC: 1.50715 cumulative IPC: 1.86659 (Simulation time: 0 hr 59 min 30 sec) 
Heartbeat CPU 0 instructions: 125000002 cycles: 61316178 heartbeat IPC: 1.54284 cumulative IPC: 1.86138 (Simulation time: 1 hr 0 min 4 sec) 
Heartbeat CPU 0 instructions: 126000001 cycles: 62227024 heartbeat IPC: 1.09788 cumulative IPC: 1.8445 (Simulation time: 1 hr 0 min 38 sec) 
Heartbeat CPU 0 instructions: 127000003 cycles: 62807351 heartbeat IPC: 1.72317 cumulative IPC: 1.84282 (Simulation time: 1 hr 1 min 5 sec) 
Heartbeat CPU 0 instructions: 128000000 cycles: 63261747 heartbeat IPC: 2.20072 cumulative IPC: 1.84667 (Simulation time: 1 hr 1 min 35 sec) 
Heartbeat CPU 0 instructions: 129000002 cycles: 63710667 heartbeat IPC: 2.22757 cumulative IPC: 1.85067 (Simulation time: 1 hr 2 min 0 sec) 
Heartbeat CPU 0 instructions: 130000001 cycles: 64159294 heartbeat IPC: 2.22902 cumulative IPC: 1.85461 (Simulation time: 1 hr 2 min 28 sec) 
Heartbeat CPU 0 instructions: 131000000 cycles: 64607745 heartbeat IPC: 2.2299 cumulative IPC: 1.85847 (Simulation time: 1 hr 2 min 54 sec) 
Heartbeat CPU 0 instructions: 132000000 cycles: 65061338 heartbeat IPC: 2.20462 cumulative IPC: 1.86203 (Simulation time: 1 hr 3 min 21 sec) 
Heartbeat CPU 0 instructions: 133000000 cycles: 65516873 heartbeat IPC: 2.19522 cumulative IPC: 1.86545 (Simulation time: 1 hr 3 min 48 sec) 
Heartbeat CPU 0 instructions: 134000000 cycles: 66038011 heartbeat IPC: 1.91888 cumulative IPC: 1.86606 (Simulation time: 1 hr 4 min 13 sec) 
Heartbeat CPU 0 instructions: 135000003 cycles: 66604148 heartbeat IPC: 1.76636 cumulative IPC: 1.86483 (Simulation time: 1 hr 4 min 41 sec) 
Heartbeat CPU 0 instructions: 136000000 cycles: 67052627 heartbeat IPC: 2.22975 cumulative IPC: 1.86838 (Simulation time: 1 hr 5 min 9 sec) 
Heartbeat CPU 0 instructions: 137000002 cycles: 67503951 heartbeat IPC: 2.21571 cumulative IPC: 1.87175 (Simulation time: 1 hr 5 min 34 sec) 
Heartbeat CPU 0 instructions: 138000002 cycles: 67956929 heartbeat IPC: 2.20761 cumulative IPC: 1.875 (Simulation time: 1 hr 6 min 2 sec) 
Heartbeat CPU 0 instructions: 139000000 cycles: 68413255 heartbeat IPC: 2.19141 cumulative IPC: 1.87804 (Simulation time: 1 hr 6 min 25 sec) 
Heartbeat CPU 0 instructions: 140000000 cycles: 68864581 heartbeat IPC: 2.21569 cumulative IPC: 1.88123 (Simulation time: 1 hr 6 min 50 sec) 
Heartbeat CPU 0 instructions: 141000000 cycles: 69317525 heartbeat IPC: 2.20778 cumulative IPC: 1.88429 (Simulation time: 1 hr 7 min 16 sec) 
Heartbeat CPU 0 instructions: 142000003 cycles: 69830494 heartbeat IPC: 1.94944 cumulative IPC: 1.88497 (Simulation time: 1 hr 7 min 41 sec) 
Heartbeat CPU 0 instructions: 143000002 cycles: 70273796 heartbeat IPC: 2.2558 cumulative IPC: 1.88831 (Simulation time: 1 hr 8 min 5 sec) 
Heartbeat CPU 0 instructions: 144000000 cycles: 70724887 heartbeat IPC: 2.21684 cumulative IPC: 1.89129 (Simulation time: 1 hr 8 min 32 sec) 
Heartbeat CPU 0 instructions: 145000001 cycles: 71379695 heartbeat IPC: 1.52717 cumulative IPC: 1.88656 (Simulation time: 1 hr 9 min 2 sec) 
Heartbeat CPU 0 instructions: 146000003 cycles: 72027488 heartbeat IPC: 1.54371 cumulative IPC: 1.88221 (Simulation time: 1 hr 9 min 29 sec) 
Heartbeat CPU 0 instructions: 147000002 cycles: 72486671 heartbeat IPC: 2.17778 cumulative IPC: 1.88484 (Simulation time: 1 hr 9 min 54 sec) 
Heartbeat CPU 0 instructions: 148000000 cycles: 72926230 heartbeat IPC: 2.275 cumulative IPC: 1.88815 (Simulation time: 1 hr 10 min 17 sec) 
Heartbeat CPU 0 instructions: 149000002 cycles: 73365918 heartbeat IPC: 2.27434 cumulative IPC: 1.89139 (Simulation time: 1 hr 10 min 39 sec) 
Heartbeat CPU 0 instructions: 150000003 cycles: 73806489 heartbeat IPC: 2.26978 cumulative IPC: 1.89455 (Simulation time: 1 hr 11 min 2 sec) 
Finished CPU 0 instructions: 100000003 cycles: 52783010 cummulative IPC: 1.89455 (Simulation time: 1 hr 11 min 2 sec) 

ChampSim completed all CPUs

Region of Interest Statistics

CPU 0 cummulative IPC: 1.89455 instructions: 100000003 cycles: 52783010
LLC TOTAL     ACCESS:    1256028  HIT:    1131669  MISS:     124359
LLC LOAD      ACCESS:     149529  HIT:     138116  MISS:      11413
LLC RFO       ACCESS:      37521  HIT:      10543  MISS:      26978
LLC PREFETCH  ACCESS:     776646  HIT:     705304  MISS:      71342
LLC WRITEBACK ACCESS:     292332  HIT:     277706  MISS:      14626
OPTgen accesses: 16502
OPTgen hits: 48507
OPTgen hit rate: 293.946


