
*** ChampSim Multicore Out-of-Order Simulator ***

Warmup Instructions: 50000000
Simulation Instructions: 100000000
Configuration: 2
Number of CPUs: 1
LLC sets: 2048
LLC ways: 16
Off-chip DRAM Channels: 1 Width: 64-bit Data Rate: 1600 MT/s

CPU 0 runs /datasets/cs240c-wi22-a00-public/data/Assignment2-gz/perlbench_53B.trace.gz
CPU 0 L1D next line prefetcher
CPU 0 L2C IP-based stride prefetcher
Initialize Hawkeye state
Heartbeat CPU 0 instructions: 1000000 cycles: 615801 heartbeat IPC: 1.6239 cumulative IPC: 1.6239 (Simulation time: 0 hr 0 min 42 sec) 
Heartbeat CPU 0 instructions: 2000001 cycles: 1252973 heartbeat IPC: 1.56944 cumulative IPC: 1.5962 (Simulation time: 0 hr 1 min 37 sec) 
Heartbeat CPU 0 instructions: 3000002 cycles: 1908460 heartbeat IPC: 1.52558 cumulative IPC: 1.57195 (Simulation time: 0 hr 2 min 19 sec) 
Heartbeat CPU 0 instructions: 4000000 cycles: 2524082 heartbeat IPC: 1.62437 cumulative IPC: 1.58473 (Simulation time: 0 hr 3 min 5 sec) 
Heartbeat CPU 0 instructions: 5000001 cycles: 3152083 heartbeat IPC: 1.59236 cumulative IPC: 1.58625 (Simulation time: 0 hr 3 min 57 sec) 
Heartbeat CPU 0 instructions: 6000001 cycles: 3767585 heartbeat IPC: 1.62469 cumulative IPC: 1.59253 (Simulation time: 0 hr 4 min 41 sec) 
Heartbeat CPU 0 instructions: 7000002 cycles: 4390463 heartbeat IPC: 1.60545 cumulative IPC: 1.59437 (Simulation time: 0 hr 5 min 32 sec) 
Heartbeat CPU 0 instructions: 8000000 cycles: 5000863 heartbeat IPC: 1.63827 cumulative IPC: 1.59972 (Simulation time: 0 hr 6 min 10 sec) 
Heartbeat CPU 0 instructions: 9000000 cycles: 5652602 heartbeat IPC: 1.53436 cumulative IPC: 1.59219 (Simulation time: 0 hr 6 min 52 sec) 
Heartbeat CPU 0 instructions: 10000001 cycles: 6287917 heartbeat IPC: 1.57402 cumulative IPC: 1.59035 (Simulation time: 0 hr 7 min 34 sec) 
Heartbeat CPU 0 instructions: 11000000 cycles: 6904691 heartbeat IPC: 1.62134 cumulative IPC: 1.59312 (Simulation time: 0 hr 8 min 16 sec) 
Heartbeat CPU 0 instructions: 12000000 cycles: 7561900 heartbeat IPC: 1.52159 cumulative IPC: 1.5869 (Simulation time: 0 hr 9 min 1 sec) 
Heartbeat CPU 0 instructions: 13000000 cycles: 8151657 heartbeat IPC: 1.69561 cumulative IPC: 1.59477 (Simulation time: 0 hr 9 min 41 sec) 
Heartbeat CPU 0 instructions: 14000000 cycles: 8768575 heartbeat IPC: 1.62096 cumulative IPC: 1.59661 (Simulation time: 0 hr 10 min 18 sec) 
Heartbeat CPU 0 instructions: 15000001 cycles: 9380659 heartbeat IPC: 1.63376 cumulative IPC: 1.59903 (Simulation time: 0 hr 10 min 57 sec) 
Heartbeat CPU 0 instructions: 16000000 cycles: 9994778 heartbeat IPC: 1.62835 cumulative IPC: 1.60084 (Simulation time: 0 hr 11 min 35 sec) 
Heartbeat CPU 0 instructions: 17000002 cycles: 10626919 heartbeat IPC: 1.58193 cumulative IPC: 1.59971 (Simulation time: 0 hr 12 min 16 sec) 
Heartbeat CPU 0 instructions: 18000002 cycles: 11287362 heartbeat IPC: 1.51414 cumulative IPC: 1.5947 (Simulation time: 0 hr 12 min 58 sec) 
Heartbeat CPU 0 instructions: 19000001 cycles: 11894425 heartbeat IPC: 1.64727 cumulative IPC: 1.59739 (Simulation time: 0 hr 13 min 34 sec) 
Heartbeat CPU 0 instructions: 20000000 cycles: 12569919 heartbeat IPC: 1.4804 cumulative IPC: 1.5911 (Simulation time: 0 hr 14 min 13 sec) 
Heartbeat CPU 0 instructions: 21000000 cycles: 13182436 heartbeat IPC: 1.63261 cumulative IPC: 1.59303 (Simulation time: 0 hr 14 min 53 sec) 
Heartbeat CPU 0 instructions: 22000000 cycles: 13738165 heartbeat IPC: 1.79944 cumulative IPC: 1.60138 (Simulation time: 0 hr 15 min 27 sec) 
Heartbeat CPU 0 instructions: 23000001 cycles: 14277244 heartbeat IPC: 1.85502 cumulative IPC: 1.61096 (Simulation time: 0 hr 16 min 5 sec) 
Heartbeat CPU 0 instructions: 24000000 cycles: 14900100 heartbeat IPC: 1.60551 cumulative IPC: 1.61073 (Simulation time: 0 hr 16 min 48 sec) 
Heartbeat CPU 0 instructions: 25000000 cycles: 15452407 heartbeat IPC: 1.81059 cumulative IPC: 1.61787 (Simulation time: 0 hr 17 min 29 sec) 
Heartbeat CPU 0 instructions: 26000001 cycles: 16006006 heartbeat IPC: 1.80636 cumulative IPC: 1.62439 (Simulation time: 0 hr 18 min 7 sec) 
Heartbeat CPU 0 instructions: 27000001 cycles: 16598101 heartbeat IPC: 1.68892 cumulative IPC: 1.62669 (Simulation time: 0 hr 18 min 46 sec) 
Heartbeat CPU 0 instructions: 28000000 cycles: 17240951 heartbeat IPC: 1.55557 cumulative IPC: 1.62404 (Simulation time: 0 hr 19 min 25 sec) 
Heartbeat CPU 0 instructions: 29000000 cycles: 17852261 heartbeat IPC: 1.63583 cumulative IPC: 1.62444 (Simulation time: 0 hr 20 min 4 sec) 
Heartbeat CPU 0 instructions: 30000000 cycles: 18407244 heartbeat IPC: 1.80186 cumulative IPC: 1.62979 (Simulation time: 0 hr 20 min 39 sec) 
Heartbeat CPU 0 instructions: 31000001 cycles: 18958564 heartbeat IPC: 1.81383 cumulative IPC: 1.63514 (Simulation time: 0 hr 21 min 15 sec) 
Heartbeat CPU 0 instructions: 32000000 cycles: 19515284 heartbeat IPC: 1.79623 cumulative IPC: 1.63974 (Simulation time: 0 hr 21 min 53 sec) 
Heartbeat CPU 0 instructions: 33000003 cycles: 20104730 heartbeat IPC: 1.69651 cumulative IPC: 1.6414 (Simulation time: 0 hr 22 min 36 sec) 
Heartbeat CPU 0 instructions: 34000001 cycles: 20713313 heartbeat IPC: 1.64316 cumulative IPC: 1.64146 (Simulation time: 0 hr 23 min 22 sec) 
Heartbeat CPU 0 instructions: 35000001 cycles: 21324684 heartbeat IPC: 1.63567 cumulative IPC: 1.64129 (Simulation time: 0 hr 24 min 5 sec) 
Heartbeat CPU 0 instructions: 36000000 cycles: 21979876 heartbeat IPC: 1.52627 cumulative IPC: 1.63786 (Simulation time: 0 hr 24 min 52 sec) 
Heartbeat CPU 0 instructions: 37000002 cycles: 22613658 heartbeat IPC: 1.57783 cumulative IPC: 1.63618 (Simulation time: 0 hr 25 min 34 sec) 
Heartbeat CPU 0 instructions: 38000000 cycles: 23233733 heartbeat IPC: 1.6127 cumulative IPC: 1.63555 (Simulation time: 0 hr 26 min 9 sec) 
Heartbeat CPU 0 instructions: 39000001 cycles: 23863873 heartbeat IPC: 1.58695 cumulative IPC: 1.63427 (Simulation time: 0 hr 26 min 47 sec) 
Heartbeat CPU 0 instructions: 40000000 cycles: 24487056 heartbeat IPC: 1.60466 cumulative IPC: 1.63352 (Simulation time: 0 hr 27 min 22 sec) 
Heartbeat CPU 0 instructions: 41000002 cycles: 25111016 heartbeat IPC: 1.60267 cumulative IPC: 1.63275 (Simulation time: 0 hr 28 min 4 sec) 
Heartbeat CPU 0 instructions: 42000000 cycles: 25724810 heartbeat IPC: 1.62921 cumulative IPC: 1.63267 (Simulation time: 0 hr 28 min 51 sec) 
Heartbeat CPU 0 instructions: 43000002 cycles: 26364723 heartbeat IPC: 1.56272 cumulative IPC: 1.63097 (Simulation time: 0 hr 29 min 33 sec) 
Heartbeat CPU 0 instructions: 44000000 cycles: 27025234 heartbeat IPC: 1.51398 cumulative IPC: 1.62811 (Simulation time: 0 hr 30 min 12 sec) 
Heartbeat CPU 0 instructions: 45000001 cycles: 27483740 heartbeat IPC: 2.181 cumulative IPC: 1.63733 (Simulation time: 0 hr 30 min 41 sec) 
Heartbeat CPU 0 instructions: 46000000 cycles: 28034403 heartbeat IPC: 1.81599 cumulative IPC: 1.64084 (Simulation time: 0 hr 31 min 15 sec) 
Heartbeat CPU 0 instructions: 47000002 cycles: 28572256 heartbeat IPC: 1.85925 cumulative IPC: 1.64495 (Simulation time: 0 hr 31 min 48 sec) 
Heartbeat CPU 0 instructions: 48000000 cycles: 29110087 heartbeat IPC: 1.85932 cumulative IPC: 1.64891 (Simulation time: 0 hr 32 min 29 sec) 
Heartbeat CPU 0 instructions: 49000000 cycles: 29710915 heartbeat IPC: 1.66437 cumulative IPC: 1.64923 (Simulation time: 0 hr 33 min 7 sec) 
Heartbeat CPU 0 instructions: 50000002 cycles: 30242151 heartbeat IPC: 1.88241 cumulative IPC: 1.65332 (Simulation time: 0 hr 33 min 38 sec) 

Warmup complete CPU 0 instructions: 50000002 cycles: 30242151 (Simulation time: 0 hr 33 min 38 sec) 

Heartbeat CPU 0 instructions: 51000000 cycles: 32172576 heartbeat IPC: 0.51802 cumulative IPC: 0.51802 (Simulation time: 0 hr 34 min 25 sec) 
Heartbeat CPU 0 instructions: 52000000 cycles: 34087581 heartbeat IPC: 0.522192 cumulative IPC: 0.520097 (Simulation time: 0 hr 35 min 8 sec) 
Heartbeat CPU 0 instructions: 53000002 cycles: 36039151 heartbeat IPC: 0.512409 cumulative IPC: 0.517509 (Simulation time: 0 hr 35 min 51 sec) 
Heartbeat CPU 0 instructions: 54000000 cycles: 38988276 heartbeat IPC: 0.339083 cumulative IPC: 0.457345 (Simulation time: 0 hr 36 min 40 sec) 
Heartbeat CPU 0 instructions: 55000000 cycles: 41493109 heartbeat IPC: 0.399228 cumulative IPC: 0.444406 (Simulation time: 0 hr 37 min 25 sec) 
Heartbeat CPU 0 instructions: 56000000 cycles: 44316742 heartbeat IPC: 0.354154 cumulative IPC: 0.4263 (Simulation time: 0 hr 38 min 6 sec) 
Heartbeat CPU 0 instructions: 57000001 cycles: 47397231 heartbeat IPC: 0.324624 cumulative IPC: 0.408042 (Simulation time: 0 hr 38 min 51 sec) 
Heartbeat CPU 0 instructions: 58000003 cycles: 50373835 heartbeat IPC: 0.335954 cumulative IPC: 0.397384 (Simulation time: 0 hr 39 min 52 sec) 
Heartbeat CPU 0 instructions: 59000002 cycles: 53206633 heartbeat IPC: 0.353008 cumulative IPC: 0.39191 (Simulation time: 0 hr 40 min 34 sec) 
Heartbeat CPU 0 instructions: 60000000 cycles: 55978269 heartbeat IPC: 0.360797 cumulative IPC: 0.388559 (Simulation time: 0 hr 41 min 17 sec) 
Heartbeat CPU 0 instructions: 61000002 cycles: 58610280 heartbeat IPC: 0.379938 cumulative IPC: 0.387759 (Simulation time: 0 hr 42 min 3 sec) 
Heartbeat CPU 0 instructions: 62000002 cycles: 61291047 heartbeat IPC: 0.373028 cumulative IPC: 0.386487 (Simulation time: 0 hr 42 min 43 sec) 
Heartbeat CPU 0 instructions: 63000001 cycles: 63959644 heartbeat IPC: 0.374728 cumulative IPC: 0.385557 (Simulation time: 0 hr 43 min 29 sec) 
Heartbeat CPU 0 instructions: 64000000 cycles: 66616572 heartbeat IPC: 0.376374 cumulative IPC: 0.384886 (Simulation time: 0 hr 44 min 16 sec) 
Heartbeat CPU 0 instructions: 65000003 cycles: 69255464 heartbeat IPC: 0.378948 cumulative IPC: 0.384484 (Simulation time: 0 hr 45 min 4 sec) 
Heartbeat CPU 0 instructions: 66000001 cycles: 71885266 heartbeat IPC: 0.380256 cumulative IPC: 0.384217 (Simulation time: 0 hr 45 min 49 sec) 
Heartbeat CPU 0 instructions: 67000001 cycles: 74499578 heartbeat IPC: 0.38251 cumulative IPC: 0.384116 (Simulation time: 0 hr 46 min 32 sec) 
Heartbeat CPU 0 instructions: 68000000 cycles: 77167760 heartbeat IPC: 0.374787 cumulative IPC: 0.383586 (Simulation time: 0 hr 47 min 16 sec) 
Heartbeat CPU 0 instructions: 69000001 cycles: 79806316 heartbeat IPC: 0.378996 cumulative IPC: 0.383341 (Simulation time: 0 hr 48 min 5 sec) 
Heartbeat CPU 0 instructions: 70000001 cycles: 82417631 heartbeat IPC: 0.382949 cumulative IPC: 0.383322 (Simulation time: 0 hr 48 min 47 sec) 
Heartbeat CPU 0 instructions: 71000001 cycles: 85135596 heartbeat IPC: 0.367922 cumulative IPC: 0.382559 (Simulation time: 0 hr 49 min 32 sec) 
Heartbeat CPU 0 instructions: 72000000 cycles: 87766094 heartbeat IPC: 0.380156 cumulative IPC: 0.382449 (Simulation time: 0 hr 50 min 23 sec) 
Heartbeat CPU 0 instructions: 73000002 cycles: 90415915 heartbeat IPC: 0.377385 cumulative IPC: 0.382226 (Simulation time: 0 hr 51 min 14 sec) 
Heartbeat CPU 0 instructions: 74000001 cycles: 93096954 heartbeat IPC: 0.372989 cumulative IPC: 0.381832 (Simulation time: 0 hr 51 min 56 sec) 
Heartbeat CPU 0 instructions: 75000001 cycles: 95756712 heartbeat IPC: 0.375974 cumulative IPC: 0.381595 (Simulation time: 0 hr 52 min 40 sec) 
Heartbeat CPU 0 instructions: 76000000 cycles: 98398874 heartbeat IPC: 0.378478 cumulative IPC: 0.381474 (Simulation time: 0 hr 53 min 23 sec) 
Heartbeat CPU 0 instructions: 77000002 cycles: 101072453 heartbeat IPC: 0.374031 cumulative IPC: 0.381193 (Simulation time: 0 hr 54 min 7 sec) 
Heartbeat CPU 0 instructions: 78000000 cycles: 103727162 heartbeat IPC: 0.376688 cumulative IPC: 0.38103 (Simulation time: 0 hr 54 min 50 sec) 
Heartbeat CPU 0 instructions: 79000002 cycles: 106389181 heartbeat IPC: 0.375655 cumulative IPC: 0.380842 (Simulation time: 0 hr 55 min 40 sec) 
Heartbeat CPU 0 instructions: 80000000 cycles: 109025613 heartbeat IPC: 0.3793 cumulative IPC: 0.380791 (Simulation time: 0 hr 56 min 25 sec) 
Heartbeat CPU 0 instructions: 81000000 cycles: 111640750 heartbeat IPC: 0.382389 cumulative IPC: 0.380842 (Simulation time: 0 hr 57 min 14 sec) 
Heartbeat CPU 0 instructions: 82000002 cycles: 114320080 heartbeat IPC: 0.373228 cumulative IPC: 0.380599 (Simulation time: 0 hr 58 min 0 sec) 
Heartbeat CPU 0 instructions: 83000000 cycles: 116967075 heartbeat IPC: 0.377786 cumulative IPC: 0.380513 (Simulation time: 0 hr 58 min 44 sec) 
Heartbeat CPU 0 instructions: 84000000 cycles: 119624321 heartbeat IPC: 0.376329 cumulative IPC: 0.380389 (Simulation time: 0 hr 59 min 28 sec) 
Heartbeat CPU 0 instructions: 85000001 cycles: 122300485 heartbeat IPC: 0.37367 cumulative IPC: 0.380194 (Simulation time: 1 hr 0 min 15 sec) 
Heartbeat CPU 0 instructions: 86000000 cycles: 124796270 heartbeat IPC: 0.400675 cumulative IPC: 0.380734 (Simulation time: 1 hr 1 min 4 sec) 
Heartbeat CPU 0 instructions: 87000000 cycles: 126953558 heartbeat IPC: 0.463545 cumulative IPC: 0.382582 (Simulation time: 1 hr 1 min 43 sec) 
Heartbeat CPU 0 instructions: 88000000 cycles: 128950882 heartbeat IPC: 0.50067 cumulative IPC: 0.384971 (Simulation time: 1 hr 2 min 21 sec) 
Heartbeat CPU 0 instructions: 89000001 cycles: 131037792 heartbeat IPC: 0.479178 cumulative IPC: 0.386921 (Simulation time: 1 hr 2 min 59 sec) 
Heartbeat CPU 0 instructions: 90000000 cycles: 133757921 heartbeat IPC: 0.367629 cumulative IPC: 0.386415 (Simulation time: 1 hr 3 min 49 sec) 
Heartbeat CPU 0 instructions: 91000001 cycles: 136531771 heartbeat IPC: 0.36051 cumulative IPC: 0.385738 (Simulation time: 1 hr 4 min 46 sec) 
Heartbeat CPU 0 instructions: 92000000 cycles: 139217187 heartbeat IPC: 0.372381 cumulative IPC: 0.385409 (Simulation time: 1 hr 5 min 31 sec) 
Heartbeat CPU 0 instructions: 93000000 cycles: 141871216 heartbeat IPC: 0.376786 cumulative IPC: 0.385204 (Simulation time: 1 hr 6 min 15 sec) 
Heartbeat CPU 0 instructions: 94000002 cycles: 144519846 heartbeat IPC: 0.377554 cumulative IPC: 0.385027 (Simulation time: 1 hr 7 min 1 sec) 
Heartbeat CPU 0 instructions: 95000000 cycles: 147140286 heartbeat IPC: 0.381615 cumulative IPC: 0.384951 (Simulation time: 1 hr 7 min 43 sec) 
Heartbeat CPU 0 instructions: 96000000 cycles: 149805588 heartbeat IPC: 0.375192 cumulative IPC: 0.384733 (Simulation time: 1 hr 8 min 24 sec) 
Heartbeat CPU 0 instructions: 97000000 cycles: 152446973 heartbeat IPC: 0.378589 cumulative IPC: 0.3846 (Simulation time: 1 hr 9 min 5 sec) 
Heartbeat CPU 0 instructions: 98000000 cycles: 155070730 heartbeat IPC: 0.381133 cumulative IPC: 0.384527 (Simulation time: 1 hr 9 min 46 sec) 
Heartbeat CPU 0 instructions: 99000002 cycles: 157680587 heartbeat IPC: 0.383164 cumulative IPC: 0.384499 (Simulation time: 1 hr 10 min 23 sec) 
Heartbeat CPU 0 instructions: 100000000 cycles: 160308370 heartbeat IPC: 0.380548 cumulative IPC: 0.38442 (Simulation time: 1 hr 11 min 3 sec) 
Heartbeat CPU 0 instructions: 101000002 cycles: 162963922 heartbeat IPC: 0.37657 cumulative IPC: 0.384263 (Simulation time: 1 hr 11 min 38 sec) 
Heartbeat CPU 0 instructions: 102000000 cycles: 165597531 heartbeat IPC: 0.379706 cumulative IPC: 0.384174 (Simulation time: 1 hr 12 min 10 sec) 
Heartbeat CPU 0 instructions: 103000000 cycles: 168223927 heartbeat IPC: 0.38075 cumulative IPC: 0.384109 (Simulation time: 1 hr 12 min 42 sec) 
Heartbeat CPU 0 instructions: 104000000 cycles: 170887907 heartbeat IPC: 0.375378 cumulative IPC: 0.383943 (Simulation time: 1 hr 13 min 20 sec) 
Heartbeat CPU 0 instructions: 105000003 cycles: 173075219 heartbeat IPC: 0.457184 cumulative IPC: 0.385065 (Simulation time: 1 hr 13 min 50 sec) 
Heartbeat CPU 0 instructions: 106000000 cycles: 175051956 heartbeat IPC: 0.505883 cumulative IPC: 0.386714 (Simulation time: 1 hr 14 min 17 sec) 
Heartbeat CPU 0 instructions: 107000003 cycles: 177026804 heartbeat IPC: 0.50637 cumulative IPC: 0.388324 (Simulation time: 1 hr 14 min 44 sec) 
Heartbeat CPU 0 instructions: 108000000 cycles: 179837093 heartbeat IPC: 0.355834 cumulative IPC: 0.387714 (Simulation time: 1 hr 15 min 15 sec) 
Heartbeat CPU 0 instructions: 109000001 cycles: 182545683 heartbeat IPC: 0.369196 cumulative IPC: 0.387384 (Simulation time: 1 hr 15 min 46 sec) 
Heartbeat CPU 0 instructions: 110000000 cycles: 185082658 heartbeat IPC: 0.39417 cumulative IPC: 0.387495 (Simulation time: 1 hr 16 min 17 sec) 
Heartbeat CPU 0 instructions: 111000000 cycles: 187916140 heartbeat IPC: 0.352923 cumulative IPC: 0.386874 (Simulation time: 1 hr 16 min 48 sec) 
Heartbeat CPU 0 instructions: 112000000 cycles: 191031216 heartbeat IPC: 0.321019 cumulative IPC: 0.385598 (Simulation time: 1 hr 17 min 16 sec) 
Heartbeat CPU 0 instructions: 113000000 cycles: 194012385 heartbeat IPC: 0.335439 cumulative IPC: 0.384685 (Simulation time: 1 hr 17 min 45 sec) 
Heartbeat CPU 0 instructions: 114000000 cycles: 196665876 heartbeat IPC: 0.376862 cumulative IPC: 0.384561 (Simulation time: 1 hr 18 min 11 sec) 
Heartbeat CPU 0 instructions: 115000000 cycles: 199392146 heartbeat IPC: 0.366802 cumulative IPC: 0.384274 (Simulation time: 1 hr 18 min 36 sec) 
Heartbeat CPU 0 instructions: 116000000 cycles: 202100554 heartbeat IPC: 0.369221 cumulative IPC: 0.384037 (Simulation time: 1 hr 19 min 1 sec) 
Heartbeat CPU 0 instructions: 117000000 cycles: 204966259 heartbeat IPC: 0.348954 cumulative IPC: 0.383462 (Simulation time: 1 hr 19 min 26 sec) 
Heartbeat CPU 0 instructions: 118000003 cycles: 207529326 heartbeat IPC: 0.390159 cumulative IPC: 0.383558 (Simulation time: 1 hr 19 min 54 sec) 
Heartbeat CPU 0 instructions: 119000002 cycles: 209039434 heartbeat IPC: 0.662204 cumulative IPC: 0.385912 (Simulation time: 1 hr 20 min 15 sec) 
Heartbeat CPU 0 instructions: 120000000 cycles: 211077174 heartbeat IPC: 0.490739 cumulative IPC: 0.387093 (Simulation time: 1 hr 20 min 37 sec) 
Heartbeat CPU 0 instructions: 121000003 cycles: 213006316 heartbeat IPC: 0.518367 cumulative IPC: 0.388479 (Simulation time: 1 hr 20 min 58 sec) 
Heartbeat CPU 0 instructions: 122000000 cycles: 214934072 heartbeat IPC: 0.518736 cumulative IPC: 0.389838 (Simulation time: 1 hr 21 min 20 sec) 
Heartbeat CPU 0 instructions: 123000000 cycles: 216954438 heartbeat IPC: 0.49496 cumulative IPC: 0.390976 (Simulation time: 1 hr 21 min 40 sec) 
Heartbeat CPU 0 instructions: 124000000 cycles: 219359659 heartbeat IPC: 0.415762 cumulative IPC: 0.391291 (Simulation time: 1 hr 22 min 5 sec) 
Heartbeat CPU 0 instructions: 125000002 cycles: 221137253 heartbeat IPC: 0.562559 cumulative IPC: 0.392886 (Simulation time: 1 hr 22 min 23 sec) 
Heartbeat CPU 0 instructions: 126000001 cycles: 223064950 heartbeat IPC: 0.518753 cumulative IPC: 0.394144 (Simulation time: 1 hr 22 min 43 sec) 
Heartbeat CPU 0 instructions: 127000001 cycles: 224991333 heartbeat IPC: 0.519108 cumulative IPC: 0.39538 (Simulation time: 1 hr 23 min 4 sec) 
Heartbeat CPU 0 instructions: 128000000 cycles: 227177536 heartbeat IPC: 0.457414 cumulative IPC: 0.396069 (Simulation time: 1 hr 23 min 24 sec) 
Heartbeat CPU 0 instructions: 129000001 cycles: 229958804 heartbeat IPC: 0.359549 cumulative IPC: 0.39556 (Simulation time: 1 hr 23 min 45 sec) 
Heartbeat CPU 0 instructions: 130000002 cycles: 232483231 heartbeat IPC: 0.39613 cumulative IPC: 0.395568 (Simulation time: 1 hr 24 min 4 sec) 
Heartbeat CPU 0 instructions: 131000000 cycles: 235321677 heartbeat IPC: 0.352305 cumulative IPC: 0.394969 (Simulation time: 1 hr 24 min 23 sec) 
Heartbeat CPU 0 instructions: 132000000 cycles: 238101302 heartbeat IPC: 0.359761 cumulative IPC: 0.394498 (Simulation time: 1 hr 24 min 41 sec) 
Heartbeat CPU 0 instructions: 133000000 cycles: 241055449 heartbeat IPC: 0.338507 cumulative IPC: 0.393713 (Simulation time: 1 hr 24 min 59 sec) 
Heartbeat CPU 0 instructions: 134000000 cycles: 243770084 heartbeat IPC: 0.368374 cumulative IPC: 0.393391 (Simulation time: 1 hr 25 min 17 sec) 
Heartbeat CPU 0 instructions: 135000000 cycles: 246580673 heartbeat IPC: 0.355797 cumulative IPC: 0.392903 (Simulation time: 1 hr 25 min 34 sec) 
Heartbeat CPU 0 instructions: 136000000 cycles: 249526221 heartbeat IPC: 0.339495 cumulative IPC: 0.392185 (Simulation time: 1 hr 25 min 50 sec) 
Heartbeat CPU 0 instructions: 137000003 cycles: 252342341 heartbeat IPC: 0.3551 cumulative IPC: 0.391715 (Simulation time: 1 hr 26 min 6 sec) 
Heartbeat CPU 0 instructions: 138000000 cycles: 254483619 heartbeat IPC: 0.467009 cumulative IPC: 0.392434 (Simulation time: 1 hr 26 min 21 sec) 
Heartbeat CPU 0 instructions: 139000000 cycles: 257263289 heartbeat IPC: 0.359755 cumulative IPC: 0.392034 (Simulation time: 1 hr 26 min 37 sec) 
Heartbeat CPU 0 instructions: 140000000 cycles: 260131928 heartbeat IPC: 0.348597 cumulative IPC: 0.391492 (Simulation time: 1 hr 26 min 51 sec) 
Heartbeat CPU 0 instructions: 141000001 cycles: 262837896 heartbeat IPC: 0.369554 cumulative IPC: 0.391237 (Simulation time: 1 hr 27 min 5 sec) 
Heartbeat CPU 0 instructions: 142000002 cycles: 265457750 heartbeat IPC: 0.381701 cumulative IPC: 0.391131 (Simulation time: 1 hr 27 min 18 sec) 
Heartbeat CPU 0 instructions: 143000001 cycles: 268113174 heartbeat IPC: 0.376587 cumulative IPC: 0.390968 (Simulation time: 1 hr 27 min 29 sec) 
Heartbeat CPU 0 instructions: 144000000 cycles: 270715566 heartbeat IPC: 0.384261 cumulative IPC: 0.390896 (Simulation time: 1 hr 27 min 41 sec) 
Heartbeat CPU 0 instructions: 145000000 cycles: 273327996 heartbeat IPC: 0.382785 cumulative IPC: 0.390808 (Simulation time: 1 hr 27 min 52 sec) 
Heartbeat CPU 0 instructions: 146000000 cycles: 275946287 heartbeat IPC: 0.381929 cumulative IPC: 0.390714 (Simulation time: 1 hr 28 min 4 sec) 
Heartbeat CPU 0 instructions: 147000002 cycles: 278356350 heartbeat IPC: 0.414928 cumulative IPC: 0.390949 (Simulation time: 1 hr 28 min 17 sec) 
Heartbeat CPU 0 instructions: 148000000 cycles: 280428671 heartbeat IPC: 0.48255 cumulative IPC: 0.391708 (Simulation time: 1 hr 28 min 29 sec) 
Heartbeat CPU 0 instructions: 149000001 cycles: 282894017 heartbeat IPC: 0.405623 cumulative IPC: 0.391844 (Simulation time: 1 hr 28 min 43 sec) 
Heartbeat CPU 0 instructions: 150000002 cycles: 285689439 heartbeat IPC: 0.357728 cumulative IPC: 0.39147 (Simulation time: 1 hr 28 min 54 sec) 
Finished CPU 0 instructions: 100000000 cycles: 255447288 cummulative IPC: 0.39147 (Simulation time: 1 hr 28 min 54 sec) 

ChampSim completed all CPUs

Region of Interest Statistics

CPU 0 cummulative IPC: 0.39147 instructions: 100000000 cycles: 255447288
LLC TOTAL     ACCESS:     651878  HIT:     601633  MISS:      50245
LLC LOAD      ACCESS:     308393  HIT:     285367  MISS:      23026
LLC RFO       ACCESS:      29186  HIT:      23026  MISS:       6160
LLC PREFETCH  ACCESS:     213177  HIT:     193801  MISS:      19376
LLC WRITEBACK ACCESS:     101122  HIT:      99439  MISS:       1683
OPTgen accesses: 32770
OPTgen hits: 31538
OPTgen hit rate: 96.2405


