
*** ChampSim Multicore Out-of-Order Simulator ***

Warmup Instructions: 50000000
Simulation Instructions: 100000000
Configuration: 2
Number of CPUs: 1
LLC sets: 2048
LLC ways: 16
Off-chip DRAM Channels: 1 Width: 64-bit Data Rate: 1600 MT/s

CPU 0 runs /datasets/cs240c-wi22-a00-public/data/Assignment2-gz/soplex_217B.trace.gz
CPU 0 L1D next line prefetcher
CPU 0 L2C IP-based stride prefetcher
Initialize Hawkeye state
Heartbeat CPU 0 instructions: 1000002 cycles: 441289 heartbeat IPC: 2.26609 cumulative IPC: 2.26609 (Simulation time: 0 hr 0 min 44 sec) 
Heartbeat CPU 0 instructions: 2000003 cycles: 800423 heartbeat IPC: 2.78448 cumulative IPC: 2.49868 (Simulation time: 0 hr 1 min 20 sec) 
Heartbeat CPU 0 instructions: 3000002 cycles: 1245423 heartbeat IPC: 2.24719 cumulative IPC: 2.40882 (Simulation time: 0 hr 1 min 59 sec) 
Heartbeat CPU 0 instructions: 4000000 cycles: 1672917 heartbeat IPC: 2.33921 cumulative IPC: 2.39103 (Simulation time: 0 hr 2 min 44 sec) 
Heartbeat CPU 0 instructions: 5000001 cycles: 2056966 heartbeat IPC: 2.60384 cumulative IPC: 2.43076 (Simulation time: 0 hr 3 min 17 sec) 
Heartbeat CPU 0 instructions: 6000000 cycles: 2431134 heartbeat IPC: 2.67259 cumulative IPC: 2.46798 (Simulation time: 0 hr 3 min 48 sec) 
Heartbeat CPU 0 instructions: 7000003 cycles: 2955321 heartbeat IPC: 1.90772 cumulative IPC: 2.36861 (Simulation time: 0 hr 4 min 22 sec) 
Heartbeat CPU 0 instructions: 8000000 cycles: 3401602 heartbeat IPC: 2.24073 cumulative IPC: 2.35183 (Simulation time: 0 hr 5 min 4 sec) 
Heartbeat CPU 0 instructions: 9000001 cycles: 3825938 heartbeat IPC: 2.35663 cumulative IPC: 2.35236 (Simulation time: 0 hr 5 min 42 sec) 
Heartbeat CPU 0 instructions: 10000000 cycles: 4238275 heartbeat IPC: 2.4252 cumulative IPC: 2.35945 (Simulation time: 0 hr 6 min 17 sec) 
Heartbeat CPU 0 instructions: 11000002 cycles: 4666811 heartbeat IPC: 2.33353 cumulative IPC: 2.35707 (Simulation time: 0 hr 6 min 57 sec) 
Heartbeat CPU 0 instructions: 12000000 cycles: 5071067 heartbeat IPC: 2.47368 cumulative IPC: 2.36637 (Simulation time: 0 hr 7 min 35 sec) 
Heartbeat CPU 0 instructions: 13000000 cycles: 5455313 heartbeat IPC: 2.6025 cumulative IPC: 2.383 (Simulation time: 0 hr 8 min 5 sec) 
Heartbeat CPU 0 instructions: 14000000 cycles: 5904525 heartbeat IPC: 2.22612 cumulative IPC: 2.37106 (Simulation time: 0 hr 8 min 39 sec) 
Heartbeat CPU 0 instructions: 15000000 cycles: 6425486 heartbeat IPC: 1.91953 cumulative IPC: 2.33445 (Simulation time: 0 hr 9 min 15 sec) 
Heartbeat CPU 0 instructions: 16000000 cycles: 6883977 heartbeat IPC: 2.18107 cumulative IPC: 2.32424 (Simulation time: 0 hr 10 min 1 sec) 
Heartbeat CPU 0 instructions: 17000002 cycles: 7263867 heartbeat IPC: 2.63235 cumulative IPC: 2.34035 (Simulation time: 0 hr 10 min 36 sec) 
Heartbeat CPU 0 instructions: 18000003 cycles: 7693669 heartbeat IPC: 2.32666 cumulative IPC: 2.33959 (Simulation time: 0 hr 11 min 15 sec) 
Heartbeat CPU 0 instructions: 19000001 cycles: 8117726 heartbeat IPC: 2.35817 cumulative IPC: 2.34056 (Simulation time: 0 hr 11 min 57 sec) 
Heartbeat CPU 0 instructions: 20000000 cycles: 8502071 heartbeat IPC: 2.60183 cumulative IPC: 2.35237 (Simulation time: 0 hr 12 min 27 sec) 
Heartbeat CPU 0 instructions: 21000000 cycles: 8879582 heartbeat IPC: 2.64893 cumulative IPC: 2.36498 (Simulation time: 0 hr 12 min 59 sec) 
Heartbeat CPU 0 instructions: 22000001 cycles: 9410489 heartbeat IPC: 1.88357 cumulative IPC: 2.33782 (Simulation time: 0 hr 13 min 34 sec) 
Heartbeat CPU 0 instructions: 23000001 cycles: 9858281 heartbeat IPC: 2.23318 cumulative IPC: 2.33306 (Simulation time: 0 hr 14 min 19 sec) 
Heartbeat CPU 0 instructions: 24000000 cycles: 10275127 heartbeat IPC: 2.39897 cumulative IPC: 2.33574 (Simulation time: 0 hr 14 min 57 sec) 
Heartbeat CPU 0 instructions: 25000001 cycles: 10687702 heartbeat IPC: 2.4238 cumulative IPC: 2.33914 (Simulation time: 0 hr 15 min 34 sec) 
Heartbeat CPU 0 instructions: 26000002 cycles: 11119790 heartbeat IPC: 2.31435 cumulative IPC: 2.33817 (Simulation time: 0 hr 16 min 16 sec) 
Heartbeat CPU 0 instructions: 27000002 cycles: 11521926 heartbeat IPC: 2.48672 cumulative IPC: 2.34336 (Simulation time: 0 hr 16 min 51 sec) 
Heartbeat CPU 0 instructions: 28000000 cycles: 11906238 heartbeat IPC: 2.60205 cumulative IPC: 2.35171 (Simulation time: 0 hr 17 min 22 sec) 
Heartbeat CPU 0 instructions: 29000002 cycles: 12360007 heartbeat IPC: 2.20377 cumulative IPC: 2.34628 (Simulation time: 0 hr 17 min 54 sec) 
Heartbeat CPU 0 instructions: 30000002 cycles: 12882824 heartbeat IPC: 1.91272 cumulative IPC: 2.32868 (Simulation time: 0 hr 18 min 33 sec) 
Heartbeat CPU 0 instructions: 31000000 cycles: 13288260 heartbeat IPC: 2.46648 cumulative IPC: 2.33289 (Simulation time: 0 hr 19 min 15 sec) 
Heartbeat CPU 0 instructions: 32000000 cycles: 13696525 heartbeat IPC: 2.44939 cumulative IPC: 2.33636 (Simulation time: 0 hr 19 min 51 sec) 
Heartbeat CPU 0 instructions: 33000001 cycles: 14121452 heartbeat IPC: 2.35335 cumulative IPC: 2.33687 (Simulation time: 0 hr 20 min 33 sec) 
Heartbeat CPU 0 instructions: 34000000 cycles: 14529814 heartbeat IPC: 2.44881 cumulative IPC: 2.34002 (Simulation time: 0 hr 21 min 12 sec) 
Heartbeat CPU 0 instructions: 35000002 cycles: 14914510 heartbeat IPC: 2.59946 cumulative IPC: 2.34671 (Simulation time: 0 hr 21 min 45 sec) 
Heartbeat CPU 0 instructions: 36000000 cycles: 15351337 heartbeat IPC: 2.28923 cumulative IPC: 2.34507 (Simulation time: 0 hr 22 min 18 sec) 
Heartbeat CPU 0 instructions: 37000001 cycles: 15876393 heartbeat IPC: 1.90456 cumulative IPC: 2.3305 (Simulation time: 0 hr 22 min 53 sec) 
Heartbeat CPU 0 instructions: 38000000 cycles: 16304976 heartbeat IPC: 2.33327 cumulative IPC: 2.33058 (Simulation time: 0 hr 23 min 37 sec) 
Heartbeat CPU 0 instructions: 39000001 cycles: 16701449 heartbeat IPC: 2.52224 cumulative IPC: 2.33513 (Simulation time: 0 hr 24 min 14 sec) 
Heartbeat CPU 0 instructions: 40000000 cycles: 17125944 heartbeat IPC: 2.35574 cumulative IPC: 2.33564 (Simulation time: 0 hr 24 min 55 sec) 
Heartbeat CPU 0 instructions: 41000000 cycles: 17541137 heartbeat IPC: 2.40852 cumulative IPC: 2.33736 (Simulation time: 0 hr 25 min 34 sec) 
Heartbeat CPU 0 instructions: 42000002 cycles: 17925063 heartbeat IPC: 2.60467 cumulative IPC: 2.34309 (Simulation time: 0 hr 26 min 7 sec) 
Heartbeat CPU 0 instructions: 43000000 cycles: 18345723 heartbeat IPC: 2.37721 cumulative IPC: 2.34387 (Simulation time: 0 hr 26 min 38 sec) 
Heartbeat CPU 0 instructions: 44000000 cycles: 18876555 heartbeat IPC: 1.88384 cumulative IPC: 2.33093 (Simulation time: 0 hr 27 min 13 sec) 
Heartbeat CPU 0 instructions: 45000003 cycles: 19335791 heartbeat IPC: 2.17754 cumulative IPC: 2.32729 (Simulation time: 0 hr 27 min 58 sec) 
Heartbeat CPU 0 instructions: 46000000 cycles: 19767603 heartbeat IPC: 2.31582 cumulative IPC: 2.32704 (Simulation time: 0 hr 28 min 37 sec) 
Heartbeat CPU 0 instructions: 47000001 cycles: 20178518 heartbeat IPC: 2.4336 cumulative IPC: 2.32921 (Simulation time: 0 hr 29 min 16 sec) 
Heartbeat CPU 0 instructions: 48000000 cycles: 20607078 heartbeat IPC: 2.33339 cumulative IPC: 2.3293 (Simulation time: 0 hr 29 min 58 sec) 
Heartbeat CPU 0 instructions: 49000000 cycles: 21012438 heartbeat IPC: 2.46694 cumulative IPC: 2.33195 (Simulation time: 0 hr 30 min 35 sec) 
Heartbeat CPU 0 instructions: 50000002 cycles: 21396942 heartbeat IPC: 2.60076 cumulative IPC: 2.33678 (Simulation time: 0 hr 31 min 7 sec) 

Warmup complete CPU 0 instructions: 50000002 cycles: 21396942 (Simulation time: 0 hr 31 min 7 sec) 

Heartbeat CPU 0 instructions: 51000000 cycles: 24208620 heartbeat IPC: 0.355659 cumulative IPC: 0.355659 (Simulation time: 0 hr 31 min 48 sec) 
Heartbeat CPU 0 instructions: 52000000 cycles: 27182525 heartbeat IPC: 0.336258 cumulative IPC: 0.345687 (Simulation time: 0 hr 32 min 43 sec) 
Heartbeat CPU 0 instructions: 53000000 cycles: 30378768 heartbeat IPC: 0.312867 cumulative IPC: 0.334008 (Simulation time: 0 hr 33 min 38 sec) 
Heartbeat CPU 0 instructions: 54000000 cycles: 32288437 heartbeat IPC: 0.523651 cumulative IPC: 0.367259 (Simulation time: 0 hr 34 min 22 sec) 
Heartbeat CPU 0 instructions: 55000000 cycles: 35613688 heartbeat IPC: 0.300729 cumulative IPC: 0.351698 (Simulation time: 0 hr 35 min 21 sec) 
Heartbeat CPU 0 instructions: 56000000 cycles: 38374594 heartbeat IPC: 0.3622 cumulative IPC: 0.353406 (Simulation time: 0 hr 36 min 8 sec) 
Heartbeat CPU 0 instructions: 57000003 cycles: 39602698 heartbeat IPC: 0.814266 cumulative IPC: 0.384494 (Simulation time: 0 hr 36 min 37 sec) 
Heartbeat CPU 0 instructions: 58000000 cycles: 41780864 heartbeat IPC: 0.4591 cumulative IPC: 0.392466 (Simulation time: 0 hr 37 min 14 sec) 
Heartbeat CPU 0 instructions: 59000001 cycles: 44543381 heartbeat IPC: 0.361989 cumulative IPC: 0.388829 (Simulation time: 0 hr 38 min 2 sec) 
Heartbeat CPU 0 instructions: 60000000 cycles: 47962060 heartbeat IPC: 0.29251 cumulative IPC: 0.376433 (Simulation time: 0 hr 39 min 0 sec) 
Heartbeat CPU 0 instructions: 61000000 cycles: 50220549 heartbeat IPC: 0.442774 cumulative IPC: 0.381632 (Simulation time: 0 hr 39 min 45 sec) 
Heartbeat CPU 0 instructions: 62000002 cycles: 52940614 heartbeat IPC: 0.367639 cumulative IPC: 0.380425 (Simulation time: 0 hr 40 min 32 sec) 
Heartbeat CPU 0 instructions: 63000001 cycles: 56273202 heartbeat IPC: 0.300067 cumulative IPC: 0.372746 (Simulation time: 0 hr 41 min 30 sec) 
Heartbeat CPU 0 instructions: 64000000 cycles: 57529333 heartbeat IPC: 0.796095 cumulative IPC: 0.387464 (Simulation time: 0 hr 42 min 0 sec) 
Heartbeat CPU 0 instructions: 65000001 cycles: 58943958 heartbeat IPC: 0.706902 cumulative IPC: 0.399499 (Simulation time: 0 hr 42 min 33 sec) 
Heartbeat CPU 0 instructions: 66000002 cycles: 62153518 heartbeat IPC: 0.31157 cumulative IPC: 0.392575 (Simulation time: 0 hr 43 min 20 sec) 
Heartbeat CPU 0 instructions: 67000000 cycles: 65378678 heartbeat IPC: 0.310062 cumulative IPC: 0.386524 (Simulation time: 0 hr 44 min 17 sec) 
Heartbeat CPU 0 instructions: 68000000 cycles: 71003232 heartbeat IPC: 0.177792 cumulative IPC: 0.362857 (Simulation time: 0 hr 45 min 6 sec) 
Heartbeat CPU 0 instructions: 69000001 cycles: 74876766 heartbeat IPC: 0.258162 cumulative IPC: 0.355274 (Simulation time: 0 hr 45 min 54 sec) 
Heartbeat CPU 0 instructions: 70000002 cycles: 78945767 heartbeat IPC: 0.245761 cumulative IPC: 0.347531 (Simulation time: 0 hr 46 min 48 sec) 
Heartbeat CPU 0 instructions: 71000002 cycles: 83164117 heartbeat IPC: 0.23706 cumulative IPC: 0.339986 (Simulation time: 0 hr 47 min 34 sec) 
Heartbeat CPU 0 instructions: 72000000 cycles: 86475688 heartbeat IPC: 0.301971 cumulative IPC: 0.338052 (Simulation time: 0 hr 48 min 16 sec) 
Heartbeat CPU 0 instructions: 73000000 cycles: 89806686 heartbeat IPC: 0.30021 cumulative IPC: 0.336209 (Simulation time: 0 hr 49 min 2 sec) 
Heartbeat CPU 0 instructions: 74000000 cycles: 93396260 heartbeat IPC: 0.278585 cumulative IPC: 0.333336 (Simulation time: 0 hr 49 min 40 sec) 
Heartbeat CPU 0 instructions: 75000002 cycles: 97005597 heartbeat IPC: 0.27706 cumulative IPC: 0.33065 (Simulation time: 0 hr 50 min 24 sec) 
Heartbeat CPU 0 instructions: 76000000 cycles: 99565684 heartbeat IPC: 0.390611 cumulative IPC: 0.332614 (Simulation time: 0 hr 51 min 5 sec) 
Heartbeat CPU 0 instructions: 77000000 cycles: 102927695 heartbeat IPC: 0.297441 cumulative IPC: 0.331163 (Simulation time: 0 hr 51 min 48 sec) 
Heartbeat CPU 0 instructions: 78000002 cycles: 105088263 heartbeat IPC: 0.462842 cumulative IPC: 0.334563 (Simulation time: 0 hr 52 min 29 sec) 
Heartbeat CPU 0 instructions: 79000003 cycles: 106959666 heartbeat IPC: 0.534359 cumulative IPC: 0.338933 (Simulation time: 0 hr 53 min 7 sec) 
Heartbeat CPU 0 instructions: 80000000 cycles: 108260217 heartbeat IPC: 0.768903 cumulative IPC: 0.34537 (Simulation time: 0 hr 53 min 36 sec) 
Heartbeat CPU 0 instructions: 81000003 cycles: 110412778 heartbeat IPC: 0.464564 cumulative IPC: 0.348253 (Simulation time: 0 hr 54 min 16 sec) 
Heartbeat CPU 0 instructions: 82000001 cycles: 113073688 heartbeat IPC: 0.375811 cumulative IPC: 0.349053 (Simulation time: 0 hr 54 min 59 sec) 
Heartbeat CPU 0 instructions: 83000002 cycles: 115382407 heartbeat IPC: 0.433141 cumulative IPC: 0.351118 (Simulation time: 0 hr 55 min 42 sec) 
Heartbeat CPU 0 instructions: 84000000 cycles: 117576989 heartbeat IPC: 0.455667 cumulative IPC: 0.353504 (Simulation time: 0 hr 56 min 20 sec) 
Heartbeat CPU 0 instructions: 85000000 cycles: 119223056 heartbeat IPC: 0.607509 cumulative IPC: 0.357778 (Simulation time: 0 hr 56 min 56 sec) 
Heartbeat CPU 0 instructions: 86000000 cycles: 122814567 heartbeat IPC: 0.278434 cumulative IPC: 0.354968 (Simulation time: 0 hr 57 min 43 sec) 
Heartbeat CPU 0 instructions: 87000000 cycles: 125317941 heartbeat IPC: 0.399461 cumulative IPC: 0.35604 (Simulation time: 0 hr 58 min 17 sec) 
Heartbeat CPU 0 instructions: 88000000 cycles: 126531133 heartbeat IPC: 0.824272 cumulative IPC: 0.361443 (Simulation time: 0 hr 58 min 47 sec) 
Heartbeat CPU 0 instructions: 89000003 cycles: 129104812 heartbeat IPC: 0.38855 cumulative IPC: 0.362091 (Simulation time: 0 hr 59 min 21 sec) 
Heartbeat CPU 0 instructions: 90000002 cycles: 132055719 heartbeat IPC: 0.338879 cumulative IPC: 0.361472 (Simulation time: 1 hr 0 min 8 sec) 
Heartbeat CPU 0 instructions: 91000001 cycles: 135517202 heartbeat IPC: 0.288893 cumulative IPC: 0.35927 (Simulation time: 1 hr 0 min 55 sec) 
Heartbeat CPU 0 instructions: 92000000 cycles: 137430909 heartbeat IPC: 0.522546 cumulative IPC: 0.361963 (Simulation time: 1 hr 1 min 33 sec) 
Heartbeat CPU 0 instructions: 93000000 cycles: 140806009 heartbeat IPC: 0.296288 cumulative IPC: 0.360107 (Simulation time: 1 hr 2 min 22 sec) 
Heartbeat CPU 0 instructions: 94000001 cycles: 143542475 heartbeat IPC: 0.365435 cumulative IPC: 0.360226 (Simulation time: 1 hr 2 min 59 sec) 
Heartbeat CPU 0 instructions: 95000003 cycles: 144765654 heartbeat IPC: 0.817543 cumulative IPC: 0.36476 (Simulation time: 1 hr 3 min 22 sec) 
Heartbeat CPU 0 instructions: 96000000 cycles: 146998535 heartbeat IPC: 0.447851 cumulative IPC: 0.366237 (Simulation time: 1 hr 3 min 53 sec) 
Heartbeat CPU 0 instructions: 97000002 cycles: 149617336 heartbeat IPC: 0.381855 cumulative IPC: 0.366556 (Simulation time: 1 hr 4 min 33 sec) 
Heartbeat CPU 0 instructions: 98000003 cycles: 153579932 heartbeat IPC: 0.25236 cumulative IPC: 0.363133 (Simulation time: 1 hr 5 min 25 sec) 
Heartbeat CPU 0 instructions: 99000000 cycles: 156546073 heartbeat IPC: 0.337137 cumulative IPC: 0.362562 (Simulation time: 1 hr 6 min 7 sec) 
Heartbeat CPU 0 instructions: 100000000 cycles: 158393457 heartbeat IPC: 0.541306 cumulative IPC: 0.364973 (Simulation time: 1 hr 6 min 48 sec) 
Heartbeat CPU 0 instructions: 101000001 cycles: 162214152 heartbeat IPC: 0.261733 cumulative IPC: 0.362172 (Simulation time: 1 hr 7 min 37 sec) 
Heartbeat CPU 0 instructions: 102000000 cycles: 163774257 heartbeat IPC: 0.640982 cumulative IPC: 0.365227 (Simulation time: 1 hr 8 min 2 sec) 
Heartbeat CPU 0 instructions: 103000001 cycles: 164917294 heartbeat IPC: 0.874863 cumulative IPC: 0.369286 (Simulation time: 1 hr 8 min 27 sec) 
Heartbeat CPU 0 instructions: 104000000 cycles: 168702391 heartbeat IPC: 0.264194 cumulative IPC: 0.366585 (Simulation time: 1 hr 9 min 11 sec) 
Heartbeat CPU 0 instructions: 105000003 cycles: 171851124 heartbeat IPC: 0.317589 cumulative IPC: 0.36556 (Simulation time: 1 hr 9 min 57 sec) 
Heartbeat CPU 0 instructions: 106000002 cycles: 174578666 heartbeat IPC: 0.36663 cumulative IPC: 0.365579 (Simulation time: 1 hr 10 min 35 sec) 
Heartbeat CPU 0 instructions: 107000003 cycles: 176253630 heartbeat IPC: 0.597028 cumulative IPC: 0.368082 (Simulation time: 1 hr 11 min 11 sec) 
Heartbeat CPU 0 instructions: 108000000 cycles: 180124476 heartbeat IPC: 0.258341 cumulative IPC: 0.365406 (Simulation time: 1 hr 11 min 59 sec) 
Heartbeat CPU 0 instructions: 109000000 cycles: 181957555 heartbeat IPC: 0.54553 cumulative IPC: 0.367462 (Simulation time: 1 hr 12 min 31 sec) 
Heartbeat CPU 0 instructions: 110000002 cycles: 183115723 heartbeat IPC: 0.863434 cumulative IPC: 0.371014 (Simulation time: 1 hr 12 min 55 sec) 
Heartbeat CPU 0 instructions: 111000000 cycles: 186448977 heartbeat IPC: 0.300007 cumulative IPC: 0.36958 (Simulation time: 1 hr 13 min 30 sec) 
Heartbeat CPU 0 instructions: 112000000 cycles: 189387281 heartbeat IPC: 0.340332 cumulative IPC: 0.369069 (Simulation time: 1 hr 14 min 10 sec) 
Heartbeat CPU 0 instructions: 113000001 cycles: 192270685 heartbeat IPC: 0.346813 cumulative IPC: 0.368693 (Simulation time: 1 hr 14 min 45 sec) 
Heartbeat CPU 0 instructions: 114000003 cycles: 193805353 heartbeat IPC: 0.651608 cumulative IPC: 0.371212 (Simulation time: 1 hr 15 min 17 sec) 
Heartbeat CPU 0 instructions: 115000000 cycles: 197673448 heartbeat IPC: 0.258524 cumulative IPC: 0.368739 (Simulation time: 1 hr 16 min 1 sec) 
Heartbeat CPU 0 instructions: 116000000 cycles: 199814202 heartbeat IPC: 0.467125 cumulative IPC: 0.369919 (Simulation time: 1 hr 16 min 30 sec) 
Heartbeat CPU 0 instructions: 117000000 cycles: 200996685 heartbeat IPC: 0.845678 cumulative IPC: 0.373052 (Simulation time: 1 hr 16 min 52 sec) 
Heartbeat CPU 0 instructions: 118000000 cycles: 203993533 heartbeat IPC: 0.333684 cumulative IPC: 0.372406 (Simulation time: 1 hr 17 min 22 sec) 
Heartbeat CPU 0 instructions: 119000001 cycles: 206810765 heartbeat IPC: 0.354959 cumulative IPC: 0.372141 (Simulation time: 1 hr 17 min 59 sec) 
Heartbeat CPU 0 instructions: 120000000 cycles: 209859559 heartbeat IPC: 0.327998 cumulative IPC: 0.371426 (Simulation time: 1 hr 18 min 37 sec) 
Heartbeat CPU 0 instructions: 121000000 cycles: 211438377 heartbeat IPC: 0.633385 cumulative IPC: 0.373603 (Simulation time: 1 hr 19 min 11 sec) 
Heartbeat CPU 0 instructions: 122000001 cycles: 215074074 heartbeat IPC: 0.275051 cumulative IPC: 0.371753 (Simulation time: 1 hr 19 min 46 sec) 
Heartbeat CPU 0 instructions: 123000000 cycles: 217553675 heartbeat IPC: 0.40329 cumulative IPC: 0.372151 (Simulation time: 1 hr 20 min 9 sec) 
Heartbeat CPU 0 instructions: 124000000 cycles: 218763120 heartbeat IPC: 0.826825 cumulative IPC: 0.374938 (Simulation time: 1 hr 20 min 26 sec) 
Heartbeat CPU 0 instructions: 125000003 cycles: 221441104 heartbeat IPC: 0.373416 cumulative IPC: 0.374917 (Simulation time: 1 hr 20 min 50 sec) 
Heartbeat CPU 0 instructions: 126000002 cycles: 224279594 heartbeat IPC: 0.3523 cumulative IPC: 0.374601 (Simulation time: 1 hr 21 min 20 sec) 
Heartbeat CPU 0 instructions: 127000003 cycles: 226684194 heartbeat IPC: 0.41587 cumulative IPC: 0.375084 (Simulation time: 1 hr 21 min 48 sec) 
Heartbeat CPU 0 instructions: 128000000 cycles: 229375983 heartbeat IPC: 0.371499 cumulative IPC: 0.375038 (Simulation time: 1 hr 22 min 18 sec) 
Heartbeat CPU 0 instructions: 129000002 cycles: 231337050 heartbeat IPC: 0.509928 cumulative IPC: 0.376298 (Simulation time: 1 hr 22 min 49 sec) 
Heartbeat CPU 0 instructions: 130000000 cycles: 235321887 heartbeat IPC: 0.250951 cumulative IPC: 0.373963 (Simulation time: 1 hr 23 min 28 sec) 
Heartbeat CPU 0 instructions: 131000001 cycles: 236650769 heartbeat IPC: 0.752513 cumulative IPC: 0.3763 (Simulation time: 1 hr 23 min 47 sec) 
Heartbeat CPU 0 instructions: 132000000 cycles: 237788185 heartbeat IPC: 0.879185 cumulative IPC: 0.378943 (Simulation time: 1 hr 24 min 5 sec) 
Heartbeat CPU 0 instructions: 133000002 cycles: 241335680 heartbeat IPC: 0.28189 cumulative IPC: 0.377378 (Simulation time: 1 hr 24 min 37 sec) 
Heartbeat CPU 0 instructions: 134000002 cycles: 244551702 heartbeat IPC: 0.310943 cumulative IPC: 0.37642 (Simulation time: 1 hr 25 min 10 sec) 
Heartbeat CPU 0 instructions: 135000001 cycles: 247281727 heartbeat IPC: 0.366297 cumulative IPC: 0.376298 (Simulation time: 1 hr 25 min 37 sec) 
Heartbeat CPU 0 instructions: 136000000 cycles: 248977982 heartbeat IPC: 0.589533 cumulative IPC: 0.377887 (Simulation time: 1 hr 26 min 3 sec) 
Heartbeat CPU 0 instructions: 137000003 cycles: 252858194 heartbeat IPC: 0.257719 cumulative IPC: 0.375873 (Simulation time: 1 hr 26 min 37 sec) 
Heartbeat CPU 0 instructions: 138000000 cycles: 254615120 heartbeat IPC: 0.569174 cumulative IPC: 0.377329 (Simulation time: 1 hr 26 min 55 sec) 
Heartbeat CPU 0 instructions: 139000000 cycles: 255768404 heartbeat IPC: 0.867089 cumulative IPC: 0.379739 (Simulation time: 1 hr 27 min 12 sec) 
Heartbeat CPU 0 instructions: 140000000 cycles: 259187151 heartbeat IPC: 0.292505 cumulative IPC: 0.378485 (Simulation time: 1 hr 27 min 37 sec) 
Heartbeat CPU 0 instructions: 141000001 cycles: 262121810 heartbeat IPC: 0.340755 cumulative IPC: 0.378025 (Simulation time: 1 hr 28 min 3 sec) 
Heartbeat CPU 0 instructions: 142000001 cycles: 264960509 heartbeat IPC: 0.352274 cumulative IPC: 0.377725 (Simulation time: 1 hr 28 min 26 sec) 
Heartbeat CPU 0 instructions: 143000000 cycles: 266568622 heartbeat IPC: 0.621846 cumulative IPC: 0.379326 (Simulation time: 1 hr 28 min 48 sec) 
Heartbeat CPU 0 instructions: 144000000 cycles: 270417505 heartbeat IPC: 0.259816 cumulative IPC: 0.377479 (Simulation time: 1 hr 29 min 16 sec) 
Heartbeat CPU 0 instructions: 145000001 cycles: 272436512 heartbeat IPC: 0.495293 cumulative IPC: 0.378426 (Simulation time: 1 hr 29 min 32 sec) 
Heartbeat CPU 0 instructions: 146000000 cycles: 273606304 heartbeat IPC: 0.854852 cumulative IPC: 0.380636 (Simulation time: 1 hr 29 min 46 sec) 
Heartbeat CPU 0 instructions: 147000000 cycles: 276810053 heartbeat IPC: 0.312134 cumulative IPC: 0.379777 (Simulation time: 1 hr 30 min 4 sec) 
Heartbeat CPU 0 instructions: 148000000 cycles: 279641521 heartbeat IPC: 0.353174 cumulative IPC: 0.379485 (Simulation time: 1 hr 30 min 27 sec) 
Heartbeat CPU 0 instructions: 149000002 cycles: 282638943 heartbeat IPC: 0.333621 cumulative IPC: 0.378959 (Simulation time: 1 hr 30 min 48 sec) 
Heartbeat CPU 0 instructions: 150000000 cycles: 284102352 heartbeat IPC: 0.683335 cumulative IPC: 0.380655 (Simulation time: 1 hr 31 min 4 sec) 
Finished CPU 0 instructions: 100000001 cycles: 262705414 cummulative IPC: 0.380655 (Simulation time: 1 hr 31 min 4 sec) 

ChampSim completed all CPUs

Region of Interest Statistics

CPU 0 cummulative IPC: 0.380655 instructions: 100000001 cycles: 262705414
LLC TOTAL     ACCESS:    8585761  HIT:    4802933  MISS:    3782828
LLC LOAD      ACCESS:    2180554  HIT:    1050408  MISS:    1130146
LLC RFO       ACCESS:     808499  HIT:     260954  MISS:     547545
LLC PREFETCH  ACCESS:    3497816  HIT:    1622175  MISS:    1875641
LLC WRITEBACK ACCESS:    2098892  HIT:    1869396  MISS:     229496
OPTgen accesses: 65786
OPTgen hits: 49951
OPTgen hit rate: 75.9295


