
*** ChampSim Multicore Out-of-Order Simulator ***

Warmup Instructions: 50000000
Simulation Instructions: 100000000
Configuration: 2
Number of CPUs: 1
LLC sets: 2048
LLC ways: 16
Off-chip DRAM Channels: 1 Width: 64-bit Data Rate: 1600 MT/s

CPU 0 runs /datasets/cs240c-wi22-a00-public/data/Assignment2-gz/libquantum_1735B.trace.gz
CPU 0 L1D next line prefetcher
CPU 0 L2C IP-based stride prefetcher
Initialize Hawkeye state
Heartbeat CPU 0 instructions: 1000001 cycles: 333341 heartbeat IPC: 2.99993 cumulative IPC: 2.99993 (Simulation time: 0 hr 0 min 22 sec) 
Heartbeat CPU 0 instructions: 2000000 cycles: 666674 heartbeat IPC: 3 cumulative IPC: 2.99997 (Simulation time: 0 hr 0 min 45 sec) 
Heartbeat CPU 0 instructions: 3000000 cycles: 989045 heartbeat IPC: 3.10202 cumulative IPC: 3.03323 (Simulation time: 0 hr 1 min 7 sec) 
Heartbeat CPU 0 instructions: 4000000 cycles: 1290770 heartbeat IPC: 3.31428 cumulative IPC: 3.09893 (Simulation time: 0 hr 1 min 31 sec) 
Heartbeat CPU 0 instructions: 5000001 cycles: 1592495 heartbeat IPC: 3.31428 cumulative IPC: 3.13973 (Simulation time: 0 hr 1 min 53 sec) 
Heartbeat CPU 0 instructions: 6000001 cycles: 1894219 heartbeat IPC: 3.31429 cumulative IPC: 3.16753 (Simulation time: 0 hr 2 min 16 sec) 
Heartbeat CPU 0 instructions: 7000002 cycles: 2195942 heartbeat IPC: 3.3143 cumulative IPC: 3.1877 (Simulation time: 0 hr 2 min 40 sec) 
Heartbeat CPU 0 instructions: 8000000 cycles: 2501897 heartbeat IPC: 3.26845 cumulative IPC: 3.19757 (Simulation time: 0 hr 3 min 3 sec) 
Heartbeat CPU 0 instructions: 9000000 cycles: 2835230 heartbeat IPC: 3 cumulative IPC: 3.17435 (Simulation time: 0 hr 3 min 26 sec) 
Heartbeat CPU 0 instructions: 10000002 cycles: 3168564 heartbeat IPC: 3 cumulative IPC: 3.156 (Simulation time: 0 hr 3 min 47 sec) 
Heartbeat CPU 0 instructions: 11000001 cycles: 3501897 heartbeat IPC: 3 cumulative IPC: 3.14116 (Simulation time: 0 hr 4 min 9 sec) 
Heartbeat CPU 0 instructions: 12000000 cycles: 3835230 heartbeat IPC: 3 cumulative IPC: 3.12889 (Simulation time: 0 hr 4 min 32 sec) 
Heartbeat CPU 0 instructions: 13000000 cycles: 4159530 heartbeat IPC: 3.08356 cumulative IPC: 3.12535 (Simulation time: 0 hr 4 min 54 sec) 
Heartbeat CPU 0 instructions: 14000002 cycles: 4471102 heartbeat IPC: 3.20954 cumulative IPC: 3.13122 (Simulation time: 0 hr 5 min 17 sec) 
Heartbeat CPU 0 instructions: 15000000 cycles: 4782674 heartbeat IPC: 3.20952 cumulative IPC: 3.13632 (Simulation time: 0 hr 5 min 40 sec) 
Heartbeat CPU 0 instructions: 16000000 cycles: 5094247 heartbeat IPC: 3.20952 cumulative IPC: 3.1408 (Simulation time: 0 hr 6 min 2 sec) 
Heartbeat CPU 0 instructions: 17000000 cycles: 5405820 heartbeat IPC: 3.20952 cumulative IPC: 3.14476 (Simulation time: 0 hr 6 min 25 sec) 
Heartbeat CPU 0 instructions: 18000001 cycles: 5725379 heartbeat IPC: 3.12932 cumulative IPC: 3.1439 (Simulation time: 0 hr 6 min 46 sec) 
Heartbeat CPU 0 instructions: 19000000 cycles: 6058712 heartbeat IPC: 3 cumulative IPC: 3.13598 (Simulation time: 0 hr 7 min 9 sec) 
Heartbeat CPU 0 instructions: 20000000 cycles: 6392046 heartbeat IPC: 2.99999 cumulative IPC: 3.12889 (Simulation time: 0 hr 7 min 33 sec) 
Heartbeat CPU 0 instructions: 21000001 cycles: 6725379 heartbeat IPC: 3.00001 cumulative IPC: 3.1225 (Simulation time: 0 hr 7 min 55 sec) 
Heartbeat CPU 0 instructions: 22000000 cycles: 7058712 heartbeat IPC: 3 cumulative IPC: 3.11672 (Simulation time: 0 hr 8 min 19 sec) 
Heartbeat CPU 0 instructions: 23000001 cycles: 7377935 heartbeat IPC: 3.13261 cumulative IPC: 3.1174 (Simulation time: 0 hr 8 min 42 sec) 
Heartbeat CPU 0 instructions: 24000000 cycles: 7689508 heartbeat IPC: 3.20952 cumulative IPC: 3.12114 (Simulation time: 0 hr 9 min 4 sec) 
Heartbeat CPU 0 instructions: 25000002 cycles: 8001081 heartbeat IPC: 3.20953 cumulative IPC: 3.12458 (Simulation time: 0 hr 9 min 28 sec) 
Heartbeat CPU 0 instructions: 26000000 cycles: 8312653 heartbeat IPC: 3.20952 cumulative IPC: 3.12776 (Simulation time: 0 hr 9 min 50 sec) 
Heartbeat CPU 0 instructions: 27000003 cycles: 8624226 heartbeat IPC: 3.20953 cumulative IPC: 3.13072 (Simulation time: 0 hr 10 min 13 sec) 
Heartbeat CPU 0 instructions: 28000000 cycles: 8948866 heartbeat IPC: 3.08033 cumulative IPC: 3.12889 (Simulation time: 0 hr 10 min 37 sec) 
Heartbeat CPU 0 instructions: 29000000 cycles: 9282199 heartbeat IPC: 3 cumulative IPC: 3.12426 (Simulation time: 0 hr 10 min 59 sec) 
Heartbeat CPU 0 instructions: 30000001 cycles: 9615533 heartbeat IPC: 3 cumulative IPC: 3.11995 (Simulation time: 0 hr 11 min 23 sec) 
Heartbeat CPU 0 instructions: 31000000 cycles: 9948866 heartbeat IPC: 3 cumulative IPC: 3.11593 (Simulation time: 0 hr 11 min 46 sec) 
Heartbeat CPU 0 instructions: 32000000 cycles: 10282200 heartbeat IPC: 2.99999 cumulative IPC: 3.11217 (Simulation time: 0 hr 12 min 8 sec) 
Heartbeat CPU 0 instructions: 33000003 cycles: 10587669 heartbeat IPC: 3.27366 cumulative IPC: 3.11683 (Simulation time: 0 hr 12 min 31 sec) 
Heartbeat CPU 0 instructions: 34000002 cycles: 10889391 heartbeat IPC: 3.31431 cumulative IPC: 3.12231 (Simulation time: 0 hr 12 min 53 sec) 
Heartbeat CPU 0 instructions: 35000002 cycles: 11191114 heartbeat IPC: 3.3143 cumulative IPC: 3.12748 (Simulation time: 0 hr 13 min 17 sec) 
Heartbeat CPU 0 instructions: 36000000 cycles: 11492840 heartbeat IPC: 3.31426 cumulative IPC: 3.13239 (Simulation time: 0 hr 13 min 41 sec) 
Heartbeat CPU 0 instructions: 37000002 cycles: 11794564 heartbeat IPC: 3.31429 cumulative IPC: 3.13704 (Simulation time: 0 hr 14 min 5 sec) 
Heartbeat CPU 0 instructions: 38000003 cycles: 12117424 heartbeat IPC: 3.09732 cumulative IPC: 3.13598 (Simulation time: 0 hr 14 min 28 sec) 
Heartbeat CPU 0 instructions: 39000002 cycles: 12450757 heartbeat IPC: 3 cumulative IPC: 3.13234 (Simulation time: 0 hr 14 min 51 sec) 
Heartbeat CPU 0 instructions: 40000000 cycles: 12784090 heartbeat IPC: 3 cumulative IPC: 3.12889 (Simulation time: 0 hr 15 min 13 sec) 
Heartbeat CPU 0 instructions: 41000000 cycles: 13117423 heartbeat IPC: 3 cumulative IPC: 3.12561 (Simulation time: 0 hr 15 min 36 sec) 
Heartbeat CPU 0 instructions: 42000001 cycles: 13450757 heartbeat IPC: 3 cumulative IPC: 3.1225 (Simulation time: 0 hr 15 min 59 sec) 
Heartbeat CPU 0 instructions: 43000003 cycles: 13754059 heartbeat IPC: 3.29705 cumulative IPC: 3.12635 (Simulation time: 0 hr 16 min 23 sec) 
Heartbeat CPU 0 instructions: 44000000 cycles: 14055784 heartbeat IPC: 3.31427 cumulative IPC: 3.13038 (Simulation time: 0 hr 16 min 45 sec) 
Heartbeat CPU 0 instructions: 45000000 cycles: 14357508 heartbeat IPC: 3.31429 cumulative IPC: 3.13425 (Simulation time: 0 hr 17 min 8 sec) 
Heartbeat CPU 0 instructions: 46000002 cycles: 14659231 heartbeat IPC: 3.3143 cumulative IPC: 3.13795 (Simulation time: 0 hr 17 min 31 sec) 
Heartbeat CPU 0 instructions: 47000002 cycles: 14960955 heartbeat IPC: 3.31429 cumulative IPC: 3.14151 (Simulation time: 0 hr 17 min 54 sec) 
Heartbeat CPU 0 instructions: 48000000 cycles: 15285989 heartbeat IPC: 3.0766 cumulative IPC: 3.14013 (Simulation time: 0 hr 18 min 18 sec) 
Heartbeat CPU 0 instructions: 49000002 cycles: 15619323 heartbeat IPC: 3 cumulative IPC: 3.13714 (Simulation time: 0 hr 18 min 42 sec) 
Heartbeat CPU 0 instructions: 50000001 cycles: 15952656 heartbeat IPC: 3 cumulative IPC: 3.13427 (Simulation time: 0 hr 19 min 5 sec) 

Warmup complete CPU 0 instructions: 50000001 cycles: 15952656 (Simulation time: 0 hr 19 min 5 sec) 

Heartbeat CPU 0 instructions: 51000000 cycles: 17472253 heartbeat IPC: 0.658069 cumulative IPC: 0.658069 (Simulation time: 0 hr 19 min 43 sec) 
Heartbeat CPU 0 instructions: 52000000 cycles: 18991927 heartbeat IPC: 0.658036 cumulative IPC: 0.658052 (Simulation time: 0 hr 20 min 21 sec) 
Heartbeat CPU 0 instructions: 53000002 cycles: 20447372 heartbeat IPC: 0.687076 cumulative IPC: 0.667451 (Simulation time: 0 hr 20 min 59 sec) 
Heartbeat CPU 0 instructions: 54000001 cycles: 21966512 heartbeat IPC: 0.658267 cumulative IPC: 0.665131 (Simulation time: 0 hr 21 min 37 sec) 
Heartbeat CPU 0 instructions: 55000000 cycles: 23486164 heartbeat IPC: 0.658045 cumulative IPC: 0.663701 (Simulation time: 0 hr 22 min 16 sec) 
Heartbeat CPU 0 instructions: 56000000 cycles: 25005633 heartbeat IPC: 0.658125 cumulative IPC: 0.662765 (Simulation time: 0 hr 22 min 56 sec) 
Heartbeat CPU 0 instructions: 57000000 cycles: 26525226 heartbeat IPC: 0.658071 cumulative IPC: 0.662091 (Simulation time: 0 hr 23 min 35 sec) 
Heartbeat CPU 0 instructions: 58000002 cycles: 28044697 heartbeat IPC: 0.658125 cumulative IPC: 0.661592 (Simulation time: 0 hr 24 min 15 sec) 
Heartbeat CPU 0 instructions: 59000001 cycles: 29410730 heartbeat IPC: 0.732046 cumulative IPC: 0.668744 (Simulation time: 0 hr 24 min 55 sec) 
Heartbeat CPU 0 instructions: 60000000 cycles: 30598220 heartbeat IPC: 0.842112 cumulative IPC: 0.682801 (Simulation time: 0 hr 25 min 33 sec) 
Heartbeat CPU 0 instructions: 61000003 cycles: 32082135 heartbeat IPC: 0.673895 cumulative IPC: 0.681981 (Simulation time: 0 hr 26 min 13 sec) 
Heartbeat CPU 0 instructions: 62000002 cycles: 33601607 heartbeat IPC: 0.658123 cumulative IPC: 0.679927 (Simulation time: 0 hr 26 min 52 sec) 
Heartbeat CPU 0 instructions: 63000001 cycles: 35121151 heartbeat IPC: 0.658091 cumulative IPC: 0.678196 (Simulation time: 0 hr 27 min 29 sec) 
Heartbeat CPU 0 instructions: 64000000 cycles: 36640615 heartbeat IPC: 0.658126 cumulative IPC: 0.676722 (Simulation time: 0 hr 28 min 8 sec) 
Heartbeat CPU 0 instructions: 65000001 cycles: 38160103 heartbeat IPC: 0.658117 cumulative IPC: 0.675449 (Simulation time: 0 hr 28 min 44 sec) 
Heartbeat CPU 0 instructions: 66000000 cycles: 39679666 heartbeat IPC: 0.658083 cumulative IPC: 0.674337 (Simulation time: 0 hr 29 min 25 sec) 
Heartbeat CPU 0 instructions: 67000001 cycles: 41176730 heartbeat IPC: 0.667975 cumulative IPC: 0.673959 (Simulation time: 0 hr 30 min 4 sec) 
Heartbeat CPU 0 instructions: 68000000 cycles: 42668853 heartbeat IPC: 0.670185 cumulative IPC: 0.673749 (Simulation time: 0 hr 30 min 43 sec) 
Heartbeat CPU 0 instructions: 69000002 cycles: 44161000 heartbeat IPC: 0.670177 cumulative IPC: 0.67356 (Simulation time: 0 hr 31 min 21 sec) 
Heartbeat CPU 0 instructions: 70000001 cycles: 45653221 heartbeat IPC: 0.670141 cumulative IPC: 0.673388 (Simulation time: 0 hr 31 min 59 sec) 
Heartbeat CPU 0 instructions: 71000003 cycles: 47203846 heartbeat IPC: 0.644903 cumulative IPC: 0.671974 (Simulation time: 0 hr 32 min 37 sec) 
Heartbeat CPU 0 instructions: 72000000 cycles: 49334940 heartbeat IPC: 0.469241 cumulative IPC: 0.659032 (Simulation time: 0 hr 33 min 10 sec) 
Heartbeat CPU 0 instructions: 73000000 cycles: 51635014 heartbeat IPC: 0.434769 cumulative IPC: 0.644576 (Simulation time: 0 hr 33 min 45 sec) 
Heartbeat CPU 0 instructions: 74000000 cycles: 53921551 heartbeat IPC: 0.437343 cumulative IPC: 0.632096 (Simulation time: 0 hr 34 min 21 sec) 
Heartbeat CPU 0 instructions: 75000000 cycles: 56216831 heartbeat IPC: 0.435677 cumulative IPC: 0.620899 (Simulation time: 0 hr 34 min 56 sec) 
Heartbeat CPU 0 instructions: 76000000 cycles: 58526918 heartbeat IPC: 0.432884 cumulative IPC: 0.610698 (Simulation time: 0 hr 35 min 32 sec) 
Heartbeat CPU 0 instructions: 77000001 cycles: 60159631 heartbeat IPC: 0.612478 cumulative IPC: 0.610763 (Simulation time: 0 hr 36 min 12 sec) 
Heartbeat CPU 0 instructions: 78000000 cycles: 61656032 heartbeat IPC: 0.668269 cumulative IPC: 0.612646 (Simulation time: 0 hr 36 min 46 sec) 
Heartbeat CPU 0 instructions: 79000001 cycles: 62707961 heartbeat IPC: 0.950635 cumulative IPC: 0.62025 (Simulation time: 0 hr 37 min 21 sec) 
Heartbeat CPU 0 instructions: 80000000 cycles: 64154459 heartbeat IPC: 0.691324 cumulative IPC: 0.622383 (Simulation time: 0 hr 37 min 56 sec) 
Heartbeat CPU 0 instructions: 81000002 cycles: 65754946 heartbeat IPC: 0.624811 cumulative IPC: 0.622461 (Simulation time: 0 hr 38 min 29 sec) 
Heartbeat CPU 0 instructions: 82000003 cycles: 68010672 heartbeat IPC: 0.443317 cumulative IPC: 0.614699 (Simulation time: 0 hr 38 min 57 sec) 
Heartbeat CPU 0 instructions: 83000000 cycles: 70299810 heartbeat IPC: 0.436844 cumulative IPC: 0.607207 (Simulation time: 0 hr 39 min 25 sec) 
Heartbeat CPU 0 instructions: 84000000 cycles: 72583245 heartbeat IPC: 0.437937 cumulative IPC: 0.600382 (Simulation time: 0 hr 39 min 54 sec) 
Heartbeat CPU 0 instructions: 85000002 cycles: 74885116 heartbeat IPC: 0.43443 cumulative IPC: 0.5939 (Simulation time: 0 hr 40 min 22 sec) 
Heartbeat CPU 0 instructions: 86000002 cycles: 77186288 heartbeat IPC: 0.434561 cumulative IPC: 0.587912 (Simulation time: 0 hr 40 min 49 sec) 
Heartbeat CPU 0 instructions: 87000002 cycles: 78862212 heartbeat IPC: 0.596686 cumulative IPC: 0.588146 (Simulation time: 0 hr 41 min 20 sec) 
Heartbeat CPU 0 instructions: 88000000 cycles: 80435306 heartbeat IPC: 0.635689 cumulative IPC: 0.589306 (Simulation time: 0 hr 41 min 49 sec) 
Heartbeat CPU 0 instructions: 89000000 cycles: 82008474 heartbeat IPC: 0.63566 cumulative IPC: 0.59041 (Simulation time: 0 hr 42 min 22 sec) 
Heartbeat CPU 0 instructions: 90000000 cycles: 83899079 heartbeat IPC: 0.528931 cumulative IPC: 0.588699 (Simulation time: 0 hr 42 min 52 sec) 
Heartbeat CPU 0 instructions: 91000001 cycles: 86818184 heartbeat IPC: 0.342571 cumulative IPC: 0.578561 (Simulation time: 0 hr 43 min 20 sec) 
Heartbeat CPU 0 instructions: 92000000 cycles: 89733447 heartbeat IPC: 0.343022 cumulative IPC: 0.569254 (Simulation time: 0 hr 43 min 48 sec) 
Heartbeat CPU 0 instructions: 93000001 cycles: 92668924 heartbeat IPC: 0.34066 cumulative IPC: 0.560507 (Simulation time: 0 hr 44 min 15 sec) 
Heartbeat CPU 0 instructions: 94000001 cycles: 95384918 heartbeat IPC: 0.368189 cumulative IPC: 0.553931 (Simulation time: 0 hr 44 min 45 sec) 
Heartbeat CPU 0 instructions: 95000000 cycles: 96968029 heartbeat IPC: 0.631667 cumulative IPC: 0.55545 (Simulation time: 0 hr 45 min 17 sec) 
Heartbeat CPU 0 instructions: 96000000 cycles: 98517569 heartbeat IPC: 0.645353 cumulative IPC: 0.557137 (Simulation time: 0 hr 45 min 49 sec) 
Heartbeat CPU 0 instructions: 97000002 cycles: 100087505 heartbeat IPC: 0.63697 cumulative IPC: 0.558627 (Simulation time: 0 hr 46 min 21 sec) 
Heartbeat CPU 0 instructions: 98000001 cycles: 102273192 heartbeat IPC: 0.457522 cumulative IPC: 0.556067 (Simulation time: 0 hr 46 min 50 sec) 
Heartbeat CPU 0 instructions: 99000003 cycles: 105171390 heartbeat IPC: 0.345043 cumulative IPC: 0.549212 (Simulation time: 0 hr 47 min 21 sec) 
Heartbeat CPU 0 instructions: 100000000 cycles: 108056901 heartbeat IPC: 0.346558 cumulative IPC: 0.542863 (Simulation time: 0 hr 47 min 50 sec) 
Heartbeat CPU 0 instructions: 101000000 cycles: 110959557 heartbeat IPC: 0.344512 cumulative IPC: 0.536803 (Simulation time: 0 hr 48 min 18 sec) 
Heartbeat CPU 0 instructions: 102000000 cycles: 113138390 heartbeat IPC: 0.458961 cumulative IPC: 0.535058 (Simulation time: 0 hr 48 min 44 sec) 
Heartbeat CPU 0 instructions: 103000002 cycles: 114502276 heartbeat IPC: 0.733201 cumulative IPC: 0.5378 (Simulation time: 0 hr 49 min 14 sec) 
Heartbeat CPU 0 instructions: 104000000 cycles: 115973212 heartbeat IPC: 0.679838 cumulative IPC: 0.539889 (Simulation time: 0 hr 49 min 46 sec) 
Heartbeat CPU 0 instructions: 105000000 cycles: 117444093 heartbeat IPC: 0.679865 cumulative IPC: 0.541918 (Simulation time: 0 hr 50 min 15 sec) 
Heartbeat CPU 0 instructions: 106000003 cycles: 118914450 heartbeat IPC: 0.680109 cumulative IPC: 0.543891 (Simulation time: 0 hr 50 min 44 sec) 
Heartbeat CPU 0 instructions: 107000000 cycles: 121073367 heartbeat IPC: 0.463194 cumulative IPC: 0.542234 (Simulation time: 0 hr 51 min 9 sec) 
Heartbeat CPU 0 instructions: 108000000 cycles: 123651990 heartbeat IPC: 0.387804 cumulative IPC: 0.538536 (Simulation time: 0 hr 51 min 33 sec) 
Heartbeat CPU 0 instructions: 109000002 cycles: 126235232 heartbeat IPC: 0.387111 cumulative IPC: 0.534989 (Simulation time: 0 hr 51 min 58 sec) 
Heartbeat CPU 0 instructions: 110000002 cycles: 128817708 heartbeat IPC: 0.387225 cumulative IPC: 0.531608 (Simulation time: 0 hr 52 min 25 sec) 
Heartbeat CPU 0 instructions: 111000001 cycles: 131416667 heartbeat IPC: 0.384769 cumulative IPC: 0.528303 (Simulation time: 0 hr 52 min 52 sec) 
Heartbeat CPU 0 instructions: 112000000 cycles: 133288701 heartbeat IPC: 0.534178 cumulative IPC: 0.528397 (Simulation time: 0 hr 53 min 21 sec) 
Heartbeat CPU 0 instructions: 113000002 cycles: 134776718 heartbeat IPC: 0.672037 cumulative IPC: 0.530196 (Simulation time: 0 hr 53 min 51 sec) 
Heartbeat CPU 0 instructions: 114000001 cycles: 136227403 heartbeat IPC: 0.689329 cumulative IPC: 0.532115 (Simulation time: 0 hr 54 min 24 sec) 
Heartbeat CPU 0 instructions: 115000000 cycles: 137707659 heartbeat IPC: 0.675558 cumulative IPC: 0.533859 (Simulation time: 0 hr 54 min 57 sec) 
Heartbeat CPU 0 instructions: 116000000 cycles: 139204823 heartbeat IPC: 0.667929 cumulative IPC: 0.535488 (Simulation time: 0 hr 55 min 29 sec) 
Heartbeat CPU 0 instructions: 117000000 cycles: 141811491 heartbeat IPC: 0.383632 cumulative IPC: 0.532342 (Simulation time: 0 hr 55 min 55 sec) 
Heartbeat CPU 0 instructions: 118000001 cycles: 144580106 heartbeat IPC: 0.361192 cumulative IPC: 0.528659 (Simulation time: 0 hr 56 min 21 sec) 
Heartbeat CPU 0 instructions: 119000001 cycles: 147351456 heartbeat IPC: 0.360835 cumulative IPC: 0.525119 (Simulation time: 0 hr 56 min 47 sec) 
Heartbeat CPU 0 instructions: 120000000 cycles: 150127752 heartbeat IPC: 0.360192 cumulative IPC: 0.521706 (Simulation time: 0 hr 57 min 13 sec) 
Heartbeat CPU 0 instructions: 121000000 cycles: 152884112 heartbeat IPC: 0.362797 cumulative IPC: 0.518508 (Simulation time: 0 hr 57 min 38 sec) 
Heartbeat CPU 0 instructions: 122000000 cycles: 154266242 heartbeat IPC: 0.723521 cumulative IPC: 0.520556 (Simulation time: 0 hr 58 min 9 sec) 
Heartbeat CPU 0 instructions: 123000001 cycles: 155735962 heartbeat IPC: 0.680402 cumulative IPC: 0.522237 (Simulation time: 0 hr 58 min 41 sec) 
Heartbeat CPU 0 instructions: 124000000 cycles: 157202045 heartbeat IPC: 0.682089 cumulative IPC: 0.523896 (Simulation time: 0 hr 59 min 14 sec) 
Heartbeat CPU 0 instructions: 125000002 cycles: 158668478 heartbeat IPC: 0.681928 cumulative IPC: 0.52552 (Simulation time: 0 hr 59 min 44 sec) 
Heartbeat CPU 0 instructions: 126000001 cycles: 160208240 heartbeat IPC: 0.64945 cumulative IPC: 0.526843 (Simulation time: 1 hr 0 min 13 sec) 
Heartbeat CPU 0 instructions: 127000000 cycles: 162458675 heartbeat IPC: 0.444358 cumulative IPC: 0.525576 (Simulation time: 1 hr 0 min 40 sec) 
Heartbeat CPU 0 instructions: 128000000 cycles: 164757053 heartbeat IPC: 0.435089 cumulative IPC: 0.524178 (Simulation time: 1 hr 1 min 8 sec) 
Heartbeat CPU 0 instructions: 129000002 cycles: 167049124 heartbeat IPC: 0.436288 cumulative IPC: 0.522845 (Simulation time: 1 hr 1 min 37 sec) 
Heartbeat CPU 0 instructions: 130000003 cycles: 169347839 heartbeat IPC: 0.435026 cumulative IPC: 0.521529 (Simulation time: 1 hr 2 min 4 sec) 
Heartbeat CPU 0 instructions: 131000001 cycles: 171656090 heartbeat IPC: 0.433228 cumulative IPC: 0.52022 (Simulation time: 1 hr 2 min 30 sec) 
Heartbeat CPU 0 instructions: 132000000 cycles: 173162078 heartbeat IPC: 0.664015 cumulative IPC: 0.521597 (Simulation time: 1 hr 3 min 2 sec) 
Heartbeat CPU 0 instructions: 133000001 cycles: 174598663 heartbeat IPC: 0.696096 cumulative IPC: 0.523177 (Simulation time: 1 hr 3 min 33 sec) 
Heartbeat CPU 0 instructions: 134000000 cycles: 176050553 heartbeat IPC: 0.688757 cumulative IPC: 0.524679 (Simulation time: 1 hr 4 min 4 sec) 
Heartbeat CPU 0 instructions: 135000001 cycles: 177520554 heartbeat IPC: 0.680272 cumulative IPC: 0.526095 (Simulation time: 1 hr 4 min 34 sec) 
Heartbeat CPU 0 instructions: 136000000 cycles: 179104675 heartbeat IPC: 0.631264 cumulative IPC: 0.527116 (Simulation time: 1 hr 5 min 6 sec) 
Heartbeat CPU 0 instructions: 137000001 cycles: 181389050 heartbeat IPC: 0.437757 cumulative IPC: 0.525882 (Simulation time: 1 hr 5 min 35 sec) 
Heartbeat CPU 0 instructions: 138000001 cycles: 183697773 heartbeat IPC: 0.43314 cumulative IPC: 0.524605 (Simulation time: 1 hr 6 min 2 sec) 
Heartbeat CPU 0 instructions: 139000000 cycles: 185995443 heartbeat IPC: 0.435223 cumulative IPC: 0.523398 (Simulation time: 1 hr 6 min 29 sec) 
Heartbeat CPU 0 instructions: 140000000 cycles: 188307900 heartbeat IPC: 0.43244 cumulative IPC: 0.522177 (Simulation time: 1 hr 6 min 54 sec) 
Heartbeat CPU 0 instructions: 141000000 cycles: 190573766 heartbeat IPC: 0.441332 cumulative IPC: 0.521128 (Simulation time: 1 hr 7 min 19 sec) 
Heartbeat CPU 0 instructions: 142000002 cycles: 191814442 heartbeat IPC: 0.806014 cumulative IPC: 0.523138 (Simulation time: 1 hr 7 min 48 sec) 
Heartbeat CPU 0 instructions: 143000001 cycles: 193243206 heartbeat IPC: 0.699905 cumulative IPC: 0.524563 (Simulation time: 1 hr 8 min 19 sec) 
Heartbeat CPU 0 instructions: 144000000 cycles: 194671530 heartbeat IPC: 0.700121 cumulative IPC: 0.525966 (Simulation time: 1 hr 8 min 51 sec) 
Heartbeat CPU 0 instructions: 145000003 cycles: 196099759 heartbeat IPC: 0.70017 cumulative IPC: 0.527347 (Simulation time: 1 hr 9 min 21 sec) 
Heartbeat CPU 0 instructions: 146000002 cycles: 197521654 heartbeat IPC: 0.703286 cumulative IPC: 0.528725 (Simulation time: 1 hr 9 min 54 sec) 
Heartbeat CPU 0 instructions: 147000001 cycles: 198949387 heartbeat IPC: 0.70041 cumulative IPC: 0.530064 (Simulation time: 1 hr 10 min 29 sec) 
Heartbeat CPU 0 instructions: 148000000 cycles: 200377491 heartbeat IPC: 0.700228 cumulative IPC: 0.531382 (Simulation time: 1 hr 11 min 2 sec) 
Heartbeat CPU 0 instructions: 149000001 cycles: 201805839 heartbeat IPC: 0.70011 cumulative IPC: 0.532679 (Simulation time: 1 hr 11 min 33 sec) 
Heartbeat CPU 0 instructions: 150000000 cycles: 203234262 heartbeat IPC: 0.700072 cumulative IPC: 0.533955 (Simulation time: 1 hr 12 min 4 sec) 
Finished CPU 0 instructions: 100000002 cycles: 187281607 cummulative IPC: 0.533955 (Simulation time: 1 hr 12 min 4 sec) 

ChampSim completed all CPUs

Region of Interest Statistics

CPU 0 cummulative IPC: 0.533955 instructions: 100000002 cycles: 187281607
LLC TOTAL     ACCESS:    3739906  HIT:     141205  MISS:    3598701
LLC LOAD      ACCESS:     679986  HIT:      33442  MISS:     646544
LLC RFO       ACCESS:         20  HIT:         18  MISS:          2
LLC PREFETCH  ACCESS:    2116153  HIT:      85031  MISS:    2031122
LLC WRITEBACK ACCESS:     943747  HIT:      22714  MISS:     921033
OPTgen accesses: 11290
OPTgen hits: 35
OPTgen hit rate: 0.310009


