
*** ChampSim Multicore Out-of-Order Simulator ***

Warmup Instructions: 50000000
Simulation Instructions: 100000000
Configuration: 2
Number of CPUs: 1
LLC sets: 2048
LLC ways: 16
Off-chip DRAM Channels: 1 Width: 64-bit Data Rate: 1600 MT/s

CPU 0 runs /datasets/cs240c-wi22-a00-public/data/Assignment2-gz/lbm_564B.trace.gz
CPU 0 L1D next line prefetcher
CPU 0 L2C IP-based stride prefetcher
Initialize Hawkeye state
Heartbeat CPU 0 instructions: 1000000 cycles: 390168 heartbeat IPC: 2.563 cumulative IPC: 2.563 (Simulation time: 0 hr 0 min 36 sec) 
Heartbeat CPU 0 instructions: 2000003 cycles: 785204 heartbeat IPC: 2.53142 cumulative IPC: 2.54711 (Simulation time: 0 hr 1 min 11 sec) 
Heartbeat CPU 0 instructions: 3000002 cycles: 1175398 heartbeat IPC: 2.56283 cumulative IPC: 2.55233 (Simulation time: 0 hr 1 min 47 sec) 
Heartbeat CPU 0 instructions: 4000000 cycles: 1565574 heartbeat IPC: 2.56294 cumulative IPC: 2.55497 (Simulation time: 0 hr 2 min 23 sec) 
Heartbeat CPU 0 instructions: 5000000 cycles: 1960690 heartbeat IPC: 2.5309 cumulative IPC: 2.55012 (Simulation time: 0 hr 2 min 58 sec) 
Heartbeat CPU 0 instructions: 6000002 cycles: 2350863 heartbeat IPC: 2.56297 cumulative IPC: 2.55226 (Simulation time: 0 hr 3 min 34 sec) 
Heartbeat CPU 0 instructions: 7000001 cycles: 2741129 heartbeat IPC: 2.56235 cumulative IPC: 2.55369 (Simulation time: 0 hr 4 min 9 sec) 
Heartbeat CPU 0 instructions: 8000000 cycles: 3136125 heartbeat IPC: 2.53167 cumulative IPC: 2.55092 (Simulation time: 0 hr 4 min 45 sec) 
Heartbeat CPU 0 instructions: 9000000 cycles: 3526363 heartbeat IPC: 2.56254 cumulative IPC: 2.5522 (Simulation time: 0 hr 5 min 20 sec) 
Heartbeat CPU 0 instructions: 10000002 cycles: 3916513 heartbeat IPC: 2.56312 cumulative IPC: 2.55329 (Simulation time: 0 hr 5 min 56 sec) 
Heartbeat CPU 0 instructions: 11000000 cycles: 4306746 heartbeat IPC: 2.56257 cumulative IPC: 2.55413 (Simulation time: 0 hr 6 min 29 sec) 
Heartbeat CPU 0 instructions: 12000000 cycles: 4701705 heartbeat IPC: 2.53191 cumulative IPC: 2.55227 (Simulation time: 0 hr 7 min 3 sec) 
Heartbeat CPU 0 instructions: 13000001 cycles: 5091913 heartbeat IPC: 2.56274 cumulative IPC: 2.55307 (Simulation time: 0 hr 7 min 39 sec) 
Heartbeat CPU 0 instructions: 14000003 cycles: 5482101 heartbeat IPC: 2.56287 cumulative IPC: 2.55377 (Simulation time: 0 hr 8 min 13 sec) 
Heartbeat CPU 0 instructions: 15000000 cycles: 5877158 heartbeat IPC: 2.53127 cumulative IPC: 2.55225 (Simulation time: 0 hr 8 min 47 sec) 
Heartbeat CPU 0 instructions: 16000000 cycles: 6267369 heartbeat IPC: 2.56272 cumulative IPC: 2.55291 (Simulation time: 0 hr 9 min 21 sec) 
Heartbeat CPU 0 instructions: 17000000 cycles: 6657567 heartbeat IPC: 2.5628 cumulative IPC: 2.55349 (Simulation time: 0 hr 9 min 56 sec) 
Heartbeat CPU 0 instructions: 18000000 cycles: 7052653 heartbeat IPC: 2.53109 cumulative IPC: 2.55223 (Simulation time: 0 hr 10 min 33 sec) 
Heartbeat CPU 0 instructions: 19000001 cycles: 7442814 heartbeat IPC: 2.56305 cumulative IPC: 2.5528 (Simulation time: 0 hr 11 min 8 sec) 
Heartbeat CPU 0 instructions: 20000000 cycles: 7832980 heartbeat IPC: 2.56301 cumulative IPC: 2.55331 (Simulation time: 0 hr 11 min 41 sec) 
Heartbeat CPU 0 instructions: 21000003 cycles: 8223160 heartbeat IPC: 2.56293 cumulative IPC: 2.55376 (Simulation time: 0 hr 12 min 15 sec) 
Heartbeat CPU 0 instructions: 22000002 cycles: 8687180 heartbeat IPC: 2.15508 cumulative IPC: 2.53247 (Simulation time: 0 hr 12 min 55 sec) 
Heartbeat CPU 0 instructions: 23000003 cycles: 9180418 heartbeat IPC: 2.02742 cumulative IPC: 2.50533 (Simulation time: 0 hr 13 min 39 sec) 
Heartbeat CPU 0 instructions: 24000000 cycles: 10024428 heartbeat IPC: 1.18482 cumulative IPC: 2.39415 (Simulation time: 0 hr 14 min 40 sec) 
Heartbeat CPU 0 instructions: 25000003 cycles: 10553074 heartbeat IPC: 1.89163 cumulative IPC: 2.36898 (Simulation time: 0 hr 15 min 23 sec) 
Heartbeat CPU 0 instructions: 26000002 cycles: 11043419 heartbeat IPC: 2.03938 cumulative IPC: 2.35434 (Simulation time: 0 hr 16 min 5 sec) 
Heartbeat CPU 0 instructions: 27000001 cycles: 11433700 heartbeat IPC: 2.56225 cumulative IPC: 2.36144 (Simulation time: 0 hr 16 min 40 sec) 
Heartbeat CPU 0 instructions: 28000000 cycles: 11824049 heartbeat IPC: 2.56181 cumulative IPC: 2.36806 (Simulation time: 0 hr 17 min 15 sec) 
Heartbeat CPU 0 instructions: 29000002 cycles: 12214354 heartbeat IPC: 2.5621 cumulative IPC: 2.37426 (Simulation time: 0 hr 17 min 50 sec) 
Heartbeat CPU 0 instructions: 30000000 cycles: 12609481 heartbeat IPC: 2.53083 cumulative IPC: 2.37916 (Simulation time: 0 hr 18 min 25 sec) 
Heartbeat CPU 0 instructions: 31000000 cycles: 12999793 heartbeat IPC: 2.56205 cumulative IPC: 2.38465 (Simulation time: 0 hr 18 min 59 sec) 
Heartbeat CPU 0 instructions: 32000000 cycles: 13390123 heartbeat IPC: 2.56193 cumulative IPC: 2.38982 (Simulation time: 0 hr 19 min 32 sec) 
Heartbeat CPU 0 instructions: 33000001 cycles: 13785269 heartbeat IPC: 2.53071 cumulative IPC: 2.39386 (Simulation time: 0 hr 20 min 8 sec) 
Heartbeat CPU 0 instructions: 34000001 cycles: 14175486 heartbeat IPC: 2.56268 cumulative IPC: 2.39851 (Simulation time: 0 hr 20 min 44 sec) 
Heartbeat CPU 0 instructions: 35000002 cycles: 14565839 heartbeat IPC: 2.56179 cumulative IPC: 2.40288 (Simulation time: 0 hr 21 min 19 sec) 
Heartbeat CPU 0 instructions: 36000000 cycles: 14956092 heartbeat IPC: 2.56244 cumulative IPC: 2.40705 (Simulation time: 0 hr 21 min 52 sec) 
Heartbeat CPU 0 instructions: 37000003 cycles: 15351182 heartbeat IPC: 2.53108 cumulative IPC: 2.41024 (Simulation time: 0 hr 22 min 27 sec) 
Heartbeat CPU 0 instructions: 38000003 cycles: 15741480 heartbeat IPC: 2.56214 cumulative IPC: 2.414 (Simulation time: 0 hr 23 min 4 sec) 
Heartbeat CPU 0 instructions: 39000002 cycles: 16131840 heartbeat IPC: 2.56174 cumulative IPC: 2.41758 (Simulation time: 0 hr 23 min 40 sec) 
Heartbeat CPU 0 instructions: 40000000 cycles: 16526877 heartbeat IPC: 2.5314 cumulative IPC: 2.4203 (Simulation time: 0 hr 24 min 15 sec) 
Heartbeat CPU 0 instructions: 41000000 cycles: 16917181 heartbeat IPC: 2.56211 cumulative IPC: 2.42357 (Simulation time: 0 hr 24 min 51 sec) 
Heartbeat CPU 0 instructions: 42000002 cycles: 17307521 heartbeat IPC: 2.56187 cumulative IPC: 2.42669 (Simulation time: 0 hr 25 min 29 sec) 
Heartbeat CPU 0 instructions: 43000001 cycles: 17702616 heartbeat IPC: 2.53103 cumulative IPC: 2.42902 (Simulation time: 0 hr 26 min 6 sec) 
Heartbeat CPU 0 instructions: 44000000 cycles: 18092888 heartbeat IPC: 2.56231 cumulative IPC: 2.43189 (Simulation time: 0 hr 26 min 44 sec) 
Heartbeat CPU 0 instructions: 45000001 cycles: 18483219 heartbeat IPC: 2.56193 cumulative IPC: 2.43464 (Simulation time: 0 hr 27 min 19 sec) 
Heartbeat CPU 0 instructions: 46000002 cycles: 18873513 heartbeat IPC: 2.56217 cumulative IPC: 2.43728 (Simulation time: 0 hr 27 min 54 sec) 
Heartbeat CPU 0 instructions: 47000002 cycles: 19268543 heartbeat IPC: 2.53145 cumulative IPC: 2.43921 (Simulation time: 0 hr 28 min 29 sec) 
Heartbeat CPU 0 instructions: 48000000 cycles: 19658863 heartbeat IPC: 2.562 cumulative IPC: 2.44165 (Simulation time: 0 hr 29 min 2 sec) 
Heartbeat CPU 0 instructions: 49000003 cycles: 20049198 heartbeat IPC: 2.56191 cumulative IPC: 2.44399 (Simulation time: 0 hr 29 min 37 sec) 
Heartbeat CPU 0 instructions: 50000002 cycles: 20444320 heartbeat IPC: 2.53086 cumulative IPC: 2.44567 (Simulation time: 0 hr 30 min 12 sec) 

Warmup complete CPU 0 instructions: 50000002 cycles: 20444320 (Simulation time: 0 hr 30 min 12 sec) 

Heartbeat CPU 0 instructions: 51000002 cycles: 21898581 heartbeat IPC: 0.687634 cumulative IPC: 0.687634 (Simulation time: 0 hr 30 min 51 sec) 
Heartbeat CPU 0 instructions: 52000000 cycles: 23398918 heartbeat IPC: 0.666516 cumulative IPC: 0.67691 (Simulation time: 0 hr 31 min 32 sec) 
Heartbeat CPU 0 instructions: 53000001 cycles: 24881064 heartbeat IPC: 0.674698 cumulative IPC: 0.676171 (Simulation time: 0 hr 32 min 15 sec) 
Heartbeat CPU 0 instructions: 54000001 cycles: 26371986 heartbeat IPC: 0.670726 cumulative IPC: 0.674802 (Simulation time: 0 hr 32 min 53 sec) 
Heartbeat CPU 0 instructions: 55000003 cycles: 27785113 heartbeat IPC: 0.707652 cumulative IPC: 0.681125 (Simulation time: 0 hr 33 min 33 sec) 
Heartbeat CPU 0 instructions: 56000000 cycles: 29205382 heartbeat IPC: 0.70409 cumulative IPC: 0.684848 (Simulation time: 0 hr 34 min 15 sec) 
Heartbeat CPU 0 instructions: 57000001 cycles: 30682856 heartbeat IPC: 0.676832 cumulative IPC: 0.683691 (Simulation time: 0 hr 34 min 55 sec) 
Heartbeat CPU 0 instructions: 58000002 cycles: 32182087 heartbeat IPC: 0.667009 cumulative IPC: 0.681561 (Simulation time: 0 hr 35 min 38 sec) 
Heartbeat CPU 0 instructions: 59000001 cycles: 33603108 heartbeat IPC: 0.703719 cumulative IPC: 0.683953 (Simulation time: 0 hr 36 min 18 sec) 
Heartbeat CPU 0 instructions: 60000000 cycles: 35091078 heartbeat IPC: 0.672056 cumulative IPC: 0.682745 (Simulation time: 0 hr 36 min 56 sec) 
Heartbeat CPU 0 instructions: 61000003 cycles: 36592547 heartbeat IPC: 0.666016 cumulative IPC: 0.681189 (Simulation time: 0 hr 37 min 37 sec) 
Heartbeat CPU 0 instructions: 62000003 cycles: 38008402 heartbeat IPC: 0.706287 cumulative IPC: 0.683213 (Simulation time: 0 hr 38 min 17 sec) 
Heartbeat CPU 0 instructions: 63000000 cycles: 39469107 heartbeat IPC: 0.684599 cumulative IPC: 0.683319 (Simulation time: 0 hr 38 min 57 sec) 
Heartbeat CPU 0 instructions: 64000000 cycles: 40971653 heartbeat IPC: 0.665537 cumulative IPC: 0.682017 (Simulation time: 0 hr 39 min 36 sec) 
Heartbeat CPU 0 instructions: 65000003 cycles: 42418995 heartbeat IPC: 0.690924 cumulative IPC: 0.682604 (Simulation time: 0 hr 40 min 17 sec) 
Heartbeat CPU 0 instructions: 66000001 cycles: 43829093 heartbeat IPC: 0.709169 cumulative IPC: 0.684206 (Simulation time: 0 hr 40 min 52 sec) 
Heartbeat CPU 0 instructions: 67000001 cycles: 45351725 heartbeat IPC: 0.656758 cumulative IPC: 0.682528 (Simulation time: 0 hr 41 min 36 sec) 
Heartbeat CPU 0 instructions: 68000000 cycles: 46866624 heartbeat IPC: 0.660109 cumulative IPC: 0.681243 (Simulation time: 0 hr 42 min 21 sec) 
Heartbeat CPU 0 instructions: 69000003 cycles: 48202127 heartbeat IPC: 0.748784 cumulative IPC: 0.684492 (Simulation time: 0 hr 43 min 0 sec) 
Heartbeat CPU 0 instructions: 70000003 cycles: 49638224 heartbeat IPC: 0.696332 cumulative IPC: 0.685075 (Simulation time: 0 hr 43 min 39 sec) 
Heartbeat CPU 0 instructions: 71000000 cycles: 51194831 heartbeat IPC: 0.642421 cumulative IPC: 0.682915 (Simulation time: 0 hr 44 min 18 sec) 
Heartbeat CPU 0 instructions: 72000000 cycles: 52600229 heartbeat IPC: 0.711542 cumulative IPC: 0.684167 (Simulation time: 0 hr 44 min 53 sec) 
Heartbeat CPU 0 instructions: 73000003 cycles: 54048948 heartbeat IPC: 0.690267 cumulative IPC: 0.68443 (Simulation time: 0 hr 45 min 26 sec) 
Heartbeat CPU 0 instructions: 74000002 cycles: 55640198 heartbeat IPC: 0.628436 cumulative IPC: 0.681898 (Simulation time: 0 hr 46 min 1 sec) 
Heartbeat CPU 0 instructions: 75000002 cycles: 57096622 heartbeat IPC: 0.686613 cumulative IPC: 0.682085 (Simulation time: 0 hr 46 min 33 sec) 
Heartbeat CPU 0 instructions: 76000000 cycles: 58610354 heartbeat IPC: 0.660618 cumulative IPC: 0.681234 (Simulation time: 0 hr 47 min 7 sec) 
Heartbeat CPU 0 instructions: 77000001 cycles: 60256567 heartbeat IPC: 0.607455 cumulative IPC: 0.678183 (Simulation time: 0 hr 47 min 41 sec) 
Heartbeat CPU 0 instructions: 78000002 cycles: 61726229 heartbeat IPC: 0.680429 cumulative IPC: 0.678263 (Simulation time: 0 hr 48 min 13 sec) 
Heartbeat CPU 0 instructions: 79000000 cycles: 63192266 heartbeat IPC: 0.68211 cumulative IPC: 0.678395 (Simulation time: 0 hr 48 min 45 sec) 
Heartbeat CPU 0 instructions: 80000000 cycles: 64759581 heartbeat IPC: 0.638034 cumulative IPC: 0.676968 (Simulation time: 0 hr 49 min 18 sec) 
Heartbeat CPU 0 instructions: 81000003 cycles: 66210562 heartbeat IPC: 0.689191 cumulative IPC: 0.677355 (Simulation time: 0 hr 49 min 51 sec) 
Heartbeat CPU 0 instructions: 82000001 cycles: 67723578 heartbeat IPC: 0.66093 cumulative IPC: 0.67683 (Simulation time: 0 hr 50 min 25 sec) 
Heartbeat CPU 0 instructions: 83000001 cycles: 69373813 heartbeat IPC: 0.605974 cumulative IPC: 0.67444 (Simulation time: 0 hr 51 min 1 sec) 
Heartbeat CPU 0 instructions: 84000000 cycles: 70884226 heartbeat IPC: 0.66207 cumulative IPC: 0.674069 (Simulation time: 0 hr 51 min 35 sec) 
Heartbeat CPU 0 instructions: 85000002 cycles: 72222922 heartbeat IPC: 0.746997 cumulative IPC: 0.675955 (Simulation time: 0 hr 52 min 7 sec) 
Heartbeat CPU 0 instructions: 86000001 cycles: 73797542 heartbeat IPC: 0.635073 cumulative IPC: 0.674748 (Simulation time: 0 hr 52 min 41 sec) 
Heartbeat CPU 0 instructions: 87000003 cycles: 75330726 heartbeat IPC: 0.652239 cumulative IPC: 0.67412 (Simulation time: 0 hr 53 min 14 sec) 
Heartbeat CPU 0 instructions: 88000000 cycles: 76765660 heartbeat IPC: 0.696894 cumulative IPC: 0.6747 (Simulation time: 0 hr 53 min 47 sec) 
Heartbeat CPU 0 instructions: 89000003 cycles: 78422121 heartbeat IPC: 0.603698 cumulative IPC: 0.672671 (Simulation time: 0 hr 54 min 23 sec) 
Heartbeat CPU 0 instructions: 90000001 cycles: 80012495 heartbeat IPC: 0.628782 cumulative IPC: 0.671499 (Simulation time: 0 hr 54 min 58 sec) 
Heartbeat CPU 0 instructions: 91000000 cycles: 81385523 heartbeat IPC: 0.728317 cumulative IPC: 0.67278 (Simulation time: 0 hr 55 min 29 sec) 
Heartbeat CPU 0 instructions: 92000000 cycles: 82979144 heartbeat IPC: 0.627502 cumulative IPC: 0.671626 (Simulation time: 0 hr 56 min 4 sec) 
Heartbeat CPU 0 instructions: 93000003 cycles: 84538529 heartbeat IPC: 0.64128 cumulative IPC: 0.670887 (Simulation time: 0 hr 56 min 40 sec) 
Heartbeat CPU 0 instructions: 94000002 cycles: 85936931 heartbeat IPC: 0.715101 cumulative IPC: 0.671831 (Simulation time: 0 hr 57 min 11 sec) 
Heartbeat CPU 0 instructions: 95000001 cycles: 87545267 heartbeat IPC: 0.62176 cumulative IPC: 0.670631 (Simulation time: 0 hr 57 min 46 sec) 
Heartbeat CPU 0 instructions: 96000000 cycles: 89122796 heartbeat IPC: 0.633902 cumulative IPC: 0.669788 (Simulation time: 0 hr 58 min 22 sec) 
Heartbeat CPU 0 instructions: 97000002 cycles: 90544178 heartbeat IPC: 0.703542 cumulative IPC: 0.670472 (Simulation time: 0 hr 59 min 2 sec) 
Heartbeat CPU 0 instructions: 98000000 cycles: 92178548 heartbeat IPC: 0.611855 cumulative IPC: 0.669137 (Simulation time: 0 hr 59 min 37 sec) 
Heartbeat CPU 0 instructions: 99000001 cycles: 93775530 heartbeat IPC: 0.626182 cumulative IPC: 0.668201 (Simulation time: 1 hr 0 min 14 sec) 
Heartbeat CPU 0 instructions: 100000000 cycles: 95218036 heartbeat IPC: 0.693237 cumulative IPC: 0.668684 (Simulation time: 1 hr 0 min 49 sec) 
Heartbeat CPU 0 instructions: 101000002 cycles: 96869843 heartbeat IPC: 0.605399 cumulative IPC: 0.667316 (Simulation time: 1 hr 1 min 24 sec) 
Heartbeat CPU 0 instructions: 102000002 cycles: 98404038 heartbeat IPC: 0.651808 cumulative IPC: 0.667011 (Simulation time: 1 hr 2 min 3 sec) 
Heartbeat CPU 0 instructions: 103000001 cycles: 99782847 heartbeat IPC: 0.725263 cumulative IPC: 0.668023 (Simulation time: 1 hr 2 min 39 sec) 
Heartbeat CPU 0 instructions: 104000000 cycles: 101446512 heartbeat IPC: 0.601082 cumulative IPC: 0.666649 (Simulation time: 1 hr 3 min 19 sec) 
Heartbeat CPU 0 instructions: 105000001 cycles: 103010466 heartbeat IPC: 0.639406 cumulative IPC: 0.666133 (Simulation time: 1 hr 3 min 53 sec) 
Heartbeat CPU 0 instructions: 106000001 cycles: 104469229 heartbeat IPC: 0.685512 cumulative IPC: 0.666469 (Simulation time: 1 hr 4 min 28 sec) 
Heartbeat CPU 0 instructions: 107000001 cycles: 106193076 heartbeat IPC: 0.580098 cumulative IPC: 0.664733 (Simulation time: 1 hr 5 min 4 sec) 
Heartbeat CPU 0 instructions: 108000000 cycles: 107740968 heartbeat IPC: 0.646039 cumulative IPC: 0.664401 (Simulation time: 1 hr 5 min 36 sec) 
Heartbeat CPU 0 instructions: 109000003 cycles: 109180575 heartbeat IPC: 0.694636 cumulative IPC: 0.664892 (Simulation time: 1 hr 6 min 13 sec) 
Heartbeat CPU 0 instructions: 110000001 cycles: 110956219 heartbeat IPC: 0.563175 cumulative IPC: 0.662896 (Simulation time: 1 hr 6 min 52 sec) 
Heartbeat CPU 0 instructions: 111000002 cycles: 112493768 heartbeat IPC: 0.650386 cumulative IPC: 0.662687 (Simulation time: 1 hr 7 min 26 sec) 
Heartbeat CPU 0 instructions: 112000000 cycles: 113976044 heartbeat IPC: 0.674637 cumulative IPC: 0.662877 (Simulation time: 1 hr 8 min 2 sec) 
Heartbeat CPU 0 instructions: 113000001 cycles: 115721599 heartbeat IPC: 0.572884 cumulative IPC: 0.661228 (Simulation time: 1 hr 8 min 41 sec) 
Heartbeat CPU 0 instructions: 114000002 cycles: 117238663 heartbeat IPC: 0.659169 cumulative IPC: 0.661196 (Simulation time: 1 hr 9 min 15 sec) 
Heartbeat CPU 0 instructions: 115000002 cycles: 118685033 heartbeat IPC: 0.691386 cumulative IPC: 0.66164 (Simulation time: 1 hr 9 min 48 sec) 
Heartbeat CPU 0 instructions: 116000000 cycles: 120427905 heartbeat IPC: 0.573764 cumulative IPC: 0.660108 (Simulation time: 1 hr 10 min 24 sec) 
Heartbeat CPU 0 instructions: 117000001 cycles: 121920933 heartbeat IPC: 0.66978 cumulative IPC: 0.660251 (Simulation time: 1 hr 10 min 59 sec) 
Heartbeat CPU 0 instructions: 118000003 cycles: 123405628 heartbeat IPC: 0.67354 cumulative IPC: 0.660442 (Simulation time: 1 hr 11 min 31 sec) 
Heartbeat CPU 0 instructions: 119000002 cycles: 125130999 heartbeat IPC: 0.579585 cumulative IPC: 0.65911 (Simulation time: 1 hr 12 min 4 sec) 
Heartbeat CPU 0 instructions: 120000000 cycles: 126564063 heartbeat IPC: 0.697804 cumulative IPC: 0.659632 (Simulation time: 1 hr 12 min 33 sec) 
Heartbeat CPU 0 instructions: 121000000 cycles: 127997197 heartbeat IPC: 0.697771 cumulative IPC: 0.66014 (Simulation time: 1 hr 13 min 4 sec) 
Heartbeat CPU 0 instructions: 122000001 cycles: 129782786 heartbeat IPC: 0.56004 cumulative IPC: 0.658506 (Simulation time: 1 hr 13 min 36 sec) 
Heartbeat CPU 0 instructions: 123000002 cycles: 131229225 heartbeat IPC: 0.691354 cumulative IPC: 0.658935 (Simulation time: 1 hr 14 min 4 sec) 
Heartbeat CPU 0 instructions: 124000000 cycles: 132701584 heartbeat IPC: 0.679181 cumulative IPC: 0.6592 (Simulation time: 1 hr 14 min 34 sec) 
Heartbeat CPU 0 instructions: 125000003 cycles: 134547256 heartbeat IPC: 0.54181 cumulative IPC: 0.657301 (Simulation time: 1 hr 15 min 5 sec) 
Heartbeat CPU 0 instructions: 126000001 cycles: 135958023 heartbeat IPC: 0.708833 cumulative IPC: 0.657931 (Simulation time: 1 hr 15 min 34 sec) 
Heartbeat CPU 0 instructions: 127000001 cycles: 137425779 heartbeat IPC: 0.681312 cumulative IPC: 0.658224 (Simulation time: 1 hr 16 min 2 sec) 
Heartbeat CPU 0 instructions: 128000000 cycles: 139200297 heartbeat IPC: 0.563533 cumulative IPC: 0.656809 (Simulation time: 1 hr 16 min 36 sec) 
Heartbeat CPU 0 instructions: 129000003 cycles: 140626314 heartbeat IPC: 0.701256 cumulative IPC: 0.657336 (Simulation time: 1 hr 17 min 3 sec) 
Heartbeat CPU 0 instructions: 130000003 cycles: 142139032 heartbeat IPC: 0.661062 cumulative IPC: 0.657383 (Simulation time: 1 hr 17 min 32 sec) 
Heartbeat CPU 0 instructions: 131000000 cycles: 143925415 heartbeat IPC: 0.559789 cumulative IPC: 0.655971 (Simulation time: 1 hr 18 min 2 sec) 
Heartbeat CPU 0 instructions: 132000000 cycles: 145316639 heartbeat IPC: 0.718791 cumulative IPC: 0.656671 (Simulation time: 1 hr 18 min 30 sec) 
Heartbeat CPU 0 instructions: 133000001 cycles: 146744416 heartbeat IPC: 0.70039 cumulative IPC: 0.657165 (Simulation time: 1 hr 18 min 56 sec) 
Heartbeat CPU 0 instructions: 134000000 cycles: 148521159 heartbeat IPC: 0.562827 cumulative IPC: 0.655856 (Simulation time: 1 hr 19 min 26 sec) 
Heartbeat CPU 0 instructions: 135000003 cycles: 149956490 heartbeat IPC: 0.696706 cumulative IPC: 0.656309 (Simulation time: 1 hr 19 min 49 sec) 
Heartbeat CPU 0 instructions: 136000000 cycles: 151469027 heartbeat IPC: 0.661139 cumulative IPC: 0.656365 (Simulation time: 1 hr 20 min 14 sec) 
Heartbeat CPU 0 instructions: 137000001 cycles: 153203356 heartbeat IPC: 0.576592 cumulative IPC: 0.655323 (Simulation time: 1 hr 20 min 39 sec) 
Heartbeat CPU 0 instructions: 138000000 cycles: 154614907 heartbeat IPC: 0.70844 cumulative IPC: 0.655881 (Simulation time: 1 hr 21 min 2 sec) 
Heartbeat CPU 0 instructions: 139000003 cycles: 156068379 heartbeat IPC: 0.68801 cumulative IPC: 0.656226 (Simulation time: 1 hr 21 min 25 sec) 
Heartbeat CPU 0 instructions: 140000000 cycles: 157787594 heartbeat IPC: 0.581659 cumulative IPC: 0.655292 (Simulation time: 1 hr 21 min 50 sec) 
Heartbeat CPU 0 instructions: 141000003 cycles: 159180045 heartbeat IPC: 0.71816 cumulative IPC: 0.655923 (Simulation time: 1 hr 22 min 15 sec) 
Heartbeat CPU 0 instructions: 142000001 cycles: 160652438 heartbeat IPC: 0.679165 cumulative IPC: 0.656167 (Simulation time: 1 hr 22 min 41 sec) 
Heartbeat CPU 0 instructions: 143000000 cycles: 162343632 heartbeat IPC: 0.591298 cumulative IPC: 0.655394 (Simulation time: 1 hr 23 min 9 sec) 
Heartbeat CPU 0 instructions: 144000000 cycles: 163748399 heartbeat IPC: 0.711862 cumulative IPC: 0.655948 (Simulation time: 1 hr 23 min 35 sec) 
Heartbeat CPU 0 instructions: 145000002 cycles: 165284110 heartbeat IPC: 0.651165 cumulative IPC: 0.655897 (Simulation time: 1 hr 24 min 0 sec) 
Heartbeat CPU 0 instructions: 146000001 cycles: 167011851 heartbeat IPC: 0.57879 cumulative IPC: 0.654988 (Simulation time: 1 hr 24 min 29 sec) 
Heartbeat CPU 0 instructions: 147000000 cycles: 168426691 heartbeat IPC: 0.706793 cumulative IPC: 0.655483 (Simulation time: 1 hr 24 min 52 sec) 
Heartbeat CPU 0 instructions: 148000000 cycles: 169923507 heartbeat IPC: 0.668085 cumulative IPC: 0.65561 (Simulation time: 1 hr 25 min 17 sec) 
Heartbeat CPU 0 instructions: 149000003 cycles: 171639531 heartbeat IPC: 0.582744 cumulative IPC: 0.654783 (Simulation time: 1 hr 25 min 43 sec) 
Heartbeat CPU 0 instructions: 150000003 cycles: 173035037 heartbeat IPC: 0.716586 cumulative IPC: 0.655348 (Simulation time: 1 hr 26 min 6 sec) 
Finished CPU 0 instructions: 100000001 cycles: 152590717 cummulative IPC: 0.655348 (Simulation time: 1 hr 26 min 6 sec) 

ChampSim completed all CPUs

Region of Interest Statistics

CPU 0 cummulative IPC: 0.655348 instructions: 100000001 cycles: 152590717
LLC TOTAL     ACCESS:    5888761  HIT:    1907287  MISS:    3981474
LLC LOAD      ACCESS:     434168  HIT:      19219  MISS:     414949
LLC RFO       ACCESS:    2513650  HIT:     662478  MISS:    1851172
LLC PREFETCH  ACCESS:     426985  HIT:      23733  MISS:     403252
LLC WRITEBACK ACCESS:    2513958  HIT:    1201857  MISS:    1312101
OPTgen accesses: 69854
OPTgen hits: 22511
OPTgen hit rate: 32.2258


