
*** ChampSim Multicore Out-of-Order Simulator ***

Warmup Instructions: 50000000
Simulation Instructions: 100000000
Configuration: 2
Number of CPUs: 1
LLC sets: 2048
LLC ways: 16
Off-chip DRAM Channels: 1 Width: 64-bit Data Rate: 1600 MT/s

CPU 0 runs /datasets/cs240c-wi22-a00-public/data/Assignment2-gz/libquantum_1210B.trace.gz
CPU 0 L1D next line prefetcher
CPU 0 L2C IP-based stride prefetcher
Initialize Hawkeye state
Heartbeat CPU 0 instructions: 1000003 cycles: 314916 heartbeat IPC: 3.17546 cumulative IPC: 3.17546 (Simulation time: 0 hr 0 min 25 sec) 
Heartbeat CPU 0 instructions: 2000000 cycles: 630170 heartbeat IPC: 3.17204 cumulative IPC: 3.17375 (Simulation time: 0 hr 0 min 48 sec) 
Heartbeat CPU 0 instructions: 3000001 cycles: 945979 heartbeat IPC: 3.16647 cumulative IPC: 3.17132 (Simulation time: 0 hr 1 min 10 sec) 
Heartbeat CPU 0 instructions: 4000000 cycles: 1260333 heartbeat IPC: 3.18112 cumulative IPC: 3.17376 (Simulation time: 0 hr 1 min 32 sec) 
Heartbeat CPU 0 instructions: 5000001 cycles: 1576818 heartbeat IPC: 3.15971 cumulative IPC: 3.17094 (Simulation time: 0 hr 1 min 55 sec) 
Heartbeat CPU 0 instructions: 6000002 cycles: 1891318 heartbeat IPC: 3.17965 cumulative IPC: 3.17239 (Simulation time: 0 hr 2 min 17 sec) 
Heartbeat CPU 0 instructions: 7000001 cycles: 2206981 heartbeat IPC: 3.16793 cumulative IPC: 3.17175 (Simulation time: 0 hr 2 min 39 sec) 
Heartbeat CPU 0 instructions: 8000000 cycles: 2522385 heartbeat IPC: 3.17053 cumulative IPC: 3.1716 (Simulation time: 0 hr 3 min 2 sec) 
Heartbeat CPU 0 instructions: 9000002 cycles: 2837144 heartbeat IPC: 3.17704 cumulative IPC: 3.1722 (Simulation time: 0 hr 3 min 25 sec) 
Heartbeat CPU 0 instructions: 10000003 cycles: 3153454 heartbeat IPC: 3.16146 cumulative IPC: 3.17113 (Simulation time: 0 hr 3 min 47 sec) 
Heartbeat CPU 0 instructions: 11000001 cycles: 3467723 heartbeat IPC: 3.18198 cumulative IPC: 3.17211 (Simulation time: 0 hr 4 min 9 sec) 
Heartbeat CPU 0 instructions: 12000000 cycles: 3783792 heartbeat IPC: 3.16386 cumulative IPC: 3.17142 (Simulation time: 0 hr 4 min 32 sec) 
Heartbeat CPU 0 instructions: 13000003 cycles: 4264651 heartbeat IPC: 2.07962 cumulative IPC: 3.04832 (Simulation time: 0 hr 5 min 3 sec) 
Heartbeat CPU 0 instructions: 14000001 cycles: 4772750 heartbeat IPC: 1.96812 cumulative IPC: 2.93332 (Simulation time: 0 hr 5 min 33 sec) 
Heartbeat CPU 0 instructions: 15000001 cycles: 5279404 heartbeat IPC: 1.97373 cumulative IPC: 2.84123 (Simulation time: 0 hr 6 min 2 sec) 
Heartbeat CPU 0 instructions: 16000000 cycles: 5788628 heartbeat IPC: 1.96377 cumulative IPC: 2.76404 (Simulation time: 0 hr 6 min 30 sec) 
Heartbeat CPU 0 instructions: 17000000 cycles: 6300340 heartbeat IPC: 1.95422 cumulative IPC: 2.69827 (Simulation time: 0 hr 7 min 0 sec) 
Heartbeat CPU 0 instructions: 18000000 cycles: 6813181 heartbeat IPC: 1.94992 cumulative IPC: 2.64194 (Simulation time: 0 hr 7 min 29 sec) 
Heartbeat CPU 0 instructions: 19000000 cycles: 7323126 heartbeat IPC: 1.961 cumulative IPC: 2.59452 (Simulation time: 0 hr 7 min 59 sec) 
Heartbeat CPU 0 instructions: 20000000 cycles: 7831196 heartbeat IPC: 1.96823 cumulative IPC: 2.55389 (Simulation time: 0 hr 8 min 27 sec) 
Heartbeat CPU 0 instructions: 21000000 cycles: 8339286 heartbeat IPC: 1.96816 cumulative IPC: 2.5182 (Simulation time: 0 hr 8 min 56 sec) 
Heartbeat CPU 0 instructions: 22000003 cycles: 8847294 heartbeat IPC: 1.96848 cumulative IPC: 2.48664 (Simulation time: 0 hr 9 min 24 sec) 
Heartbeat CPU 0 instructions: 23000000 cycles: 9352298 heartbeat IPC: 1.98018 cumulative IPC: 2.45929 (Simulation time: 0 hr 9 min 54 sec) 
Heartbeat CPU 0 instructions: 24000000 cycles: 9862866 heartbeat IPC: 1.9586 cumulative IPC: 2.43337 (Simulation time: 0 hr 10 min 22 sec) 
Heartbeat CPU 0 instructions: 25000000 cycles: 10374319 heartbeat IPC: 1.95521 cumulative IPC: 2.4098 (Simulation time: 0 hr 10 min 52 sec) 
Heartbeat CPU 0 instructions: 26000000 cycles: 10886972 heartbeat IPC: 1.95064 cumulative IPC: 2.38818 (Simulation time: 0 hr 11 min 20 sec) 
Heartbeat CPU 0 instructions: 27000000 cycles: 11395325 heartbeat IPC: 1.96714 cumulative IPC: 2.36939 (Simulation time: 0 hr 11 min 48 sec) 
Heartbeat CPU 0 instructions: 28000000 cycles: 11881150 heartbeat IPC: 2.05835 cumulative IPC: 2.35667 (Simulation time: 0 hr 12 min 17 sec) 
Heartbeat CPU 0 instructions: 29000002 cycles: 12220214 heartbeat IPC: 2.9493 cumulative IPC: 2.37312 (Simulation time: 0 hr 12 min 42 sec) 
Heartbeat CPU 0 instructions: 30000001 cycles: 12559582 heartbeat IPC: 2.94665 cumulative IPC: 2.38861 (Simulation time: 0 hr 13 min 7 sec) 
Heartbeat CPU 0 instructions: 31000000 cycles: 12898996 heartbeat IPC: 2.94625 cumulative IPC: 2.40329 (Simulation time: 0 hr 13 min 32 sec) 
Heartbeat CPU 0 instructions: 32000000 cycles: 13238401 heartbeat IPC: 2.94633 cumulative IPC: 2.41721 (Simulation time: 0 hr 13 min 56 sec) 
Heartbeat CPU 0 instructions: 33000000 cycles: 13577811 heartbeat IPC: 2.94629 cumulative IPC: 2.43044 (Simulation time: 0 hr 14 min 21 sec) 
Heartbeat CPU 0 instructions: 34000002 cycles: 13917221 heartbeat IPC: 2.9463 cumulative IPC: 2.44302 (Simulation time: 0 hr 14 min 44 sec) 
Heartbeat CPU 0 instructions: 35000001 cycles: 14256633 heartbeat IPC: 2.94627 cumulative IPC: 2.455 (Simulation time: 0 hr 15 min 9 sec) 
Heartbeat CPU 0 instructions: 36000000 cycles: 14595999 heartbeat IPC: 2.94667 cumulative IPC: 2.46643 (Simulation time: 0 hr 15 min 34 sec) 
Heartbeat CPU 0 instructions: 37000003 cycles: 14935386 heartbeat IPC: 2.9465 cumulative IPC: 2.47734 (Simulation time: 0 hr 15 min 58 sec) 
Heartbeat CPU 0 instructions: 38000002 cycles: 15274795 heartbeat IPC: 2.94629 cumulative IPC: 2.48776 (Simulation time: 0 hr 16 min 24 sec) 
Heartbeat CPU 0 instructions: 39000001 cycles: 15614204 heartbeat IPC: 2.94629 cumulative IPC: 2.49773 (Simulation time: 0 hr 16 min 48 sec) 
Heartbeat CPU 0 instructions: 40000000 cycles: 15953613 heartbeat IPC: 2.94629 cumulative IPC: 2.50727 (Simulation time: 0 hr 17 min 14 sec) 
Heartbeat CPU 0 instructions: 41000001 cycles: 16293025 heartbeat IPC: 2.94627 cumulative IPC: 2.51641 (Simulation time: 0 hr 17 min 39 sec) 
Heartbeat CPU 0 instructions: 42000000 cycles: 16632434 heartbeat IPC: 2.94629 cumulative IPC: 2.52519 (Simulation time: 0 hr 18 min 5 sec) 
Heartbeat CPU 0 instructions: 43000002 cycles: 16971844 heartbeat IPC: 2.9463 cumulative IPC: 2.53361 (Simulation time: 0 hr 18 min 31 sec) 
Heartbeat CPU 0 instructions: 44000000 cycles: 17311253 heartbeat IPC: 2.94629 cumulative IPC: 2.5417 (Simulation time: 0 hr 18 min 57 sec) 
Heartbeat CPU 0 instructions: 45000000 cycles: 17650662 heartbeat IPC: 2.9463 cumulative IPC: 2.54948 (Simulation time: 0 hr 19 min 21 sec) 
Heartbeat CPU 0 instructions: 46000003 cycles: 17990072 heartbeat IPC: 2.9463 cumulative IPC: 2.55697 (Simulation time: 0 hr 19 min 44 sec) 
Heartbeat CPU 0 instructions: 47000001 cycles: 18367322 heartbeat IPC: 2.65076 cumulative IPC: 2.55889 (Simulation time: 0 hr 20 min 9 sec) 
Heartbeat CPU 0 instructions: 48000000 cycles: 18874712 heartbeat IPC: 1.97087 cumulative IPC: 2.54309 (Simulation time: 0 hr 20 min 39 sec) 
Heartbeat CPU 0 instructions: 49000000 cycles: 19367506 heartbeat IPC: 2.02925 cumulative IPC: 2.53001 (Simulation time: 0 hr 21 min 8 sec) 
Heartbeat CPU 0 instructions: 50000001 cycles: 19868141 heartbeat IPC: 1.99747 cumulative IPC: 2.51659 (Simulation time: 0 hr 21 min 37 sec) 

Warmup complete CPU 0 instructions: 50000001 cycles: 19868141 (Simulation time: 0 hr 21 min 37 sec) 

Heartbeat CPU 0 instructions: 51000000 cycles: 22178873 heartbeat IPC: 0.432763 cumulative IPC: 0.432763 (Simulation time: 0 hr 22 min 16 sec) 
Heartbeat CPU 0 instructions: 52000000 cycles: 24505086 heartbeat IPC: 0.429883 cumulative IPC: 0.431318 (Simulation time: 0 hr 22 min 58 sec) 
Heartbeat CPU 0 instructions: 53000003 cycles: 26770249 heartbeat IPC: 0.441471 cumulative IPC: 0.43465 (Simulation time: 0 hr 23 min 38 sec) 
Heartbeat CPU 0 instructions: 54000003 cycles: 28812360 heartbeat IPC: 0.489689 cumulative IPC: 0.447216 (Simulation time: 0 hr 24 min 15 sec) 
Heartbeat CPU 0 instructions: 55000002 cycles: 31102351 heartbeat IPC: 0.436682 cumulative IPC: 0.445069 (Simulation time: 0 hr 24 min 56 sec) 
Heartbeat CPU 0 instructions: 56000000 cycles: 33418608 heartbeat IPC: 0.43173 cumulative IPC: 0.442789 (Simulation time: 0 hr 25 min 34 sec) 
Heartbeat CPU 0 instructions: 57000001 cycles: 35738313 heartbeat IPC: 0.43109 cumulative IPC: 0.441079 (Simulation time: 0 hr 26 min 14 sec) 
Heartbeat CPU 0 instructions: 58000000 cycles: 38050837 heartbeat IPC: 0.432428 cumulative IPC: 0.439979 (Simulation time: 0 hr 26 min 53 sec) 
Heartbeat CPU 0 instructions: 59000000 cycles: 40368635 heartbeat IPC: 0.431444 cumulative IPC: 0.439014 (Simulation time: 0 hr 27 min 31 sec) 
Heartbeat CPU 0 instructions: 60000000 cycles: 42661284 heartbeat IPC: 0.436177 cumulative IPC: 0.438728 (Simulation time: 0 hr 28 min 12 sec) 
Heartbeat CPU 0 instructions: 61000001 cycles: 44974211 heartbeat IPC: 0.432353 cumulative IPC: 0.438141 (Simulation time: 0 hr 28 min 55 sec) 
Heartbeat CPU 0 instructions: 62000000 cycles: 47283275 heartbeat IPC: 0.433075 cumulative IPC: 0.437714 (Simulation time: 0 hr 29 min 37 sec) 
Heartbeat CPU 0 instructions: 63000001 cycles: 49430054 heartbeat IPC: 0.465815 cumulative IPC: 0.439755 (Simulation time: 0 hr 30 min 12 sec) 
Heartbeat CPU 0 instructions: 64000000 cycles: 51554863 heartbeat IPC: 0.47063 cumulative IPC: 0.441825 (Simulation time: 0 hr 30 min 50 sec) 
Heartbeat CPU 0 instructions: 65000000 cycles: 53684466 heartbeat IPC: 0.469571 cumulative IPC: 0.443573 (Simulation time: 0 hr 31 min 28 sec) 
Heartbeat CPU 0 instructions: 66000001 cycles: 55837923 heartbeat IPC: 0.46437 cumulative IPC: 0.444818 (Simulation time: 0 hr 32 min 5 sec) 
Heartbeat CPU 0 instructions: 67000000 cycles: 57937841 heartbeat IPC: 0.476209 cumulative IPC: 0.446549 (Simulation time: 0 hr 32 min 43 sec) 
Heartbeat CPU 0 instructions: 68000000 cycles: 60094889 heartbeat IPC: 0.463597 cumulative IPC: 0.447463 (Simulation time: 0 hr 33 min 22 sec) 
Heartbeat CPU 0 instructions: 69000002 cycles: 62240526 heartbeat IPC: 0.466063 cumulative IPC: 0.448405 (Simulation time: 0 hr 34 min 2 sec) 
Heartbeat CPU 0 instructions: 70000001 cycles: 64377098 heartbeat IPC: 0.468039 cumulative IPC: 0.449348 (Simulation time: 0 hr 34 min 37 sec) 
Heartbeat CPU 0 instructions: 71000000 cycles: 66374423 heartbeat IPC: 0.500669 cumulative IPC: 0.451552 (Simulation time: 0 hr 35 min 15 sec) 
Heartbeat CPU 0 instructions: 72000000 cycles: 68150777 heartbeat IPC: 0.562951 cumulative IPC: 0.45565 (Simulation time: 0 hr 35 min 50 sec) 
Heartbeat CPU 0 instructions: 73000002 cycles: 70301008 heartbeat IPC: 0.465067 cumulative IPC: 0.456052 (Simulation time: 0 hr 36 min 25 sec) 
Heartbeat CPU 0 instructions: 74000002 cycles: 72413221 heartbeat IPC: 0.473437 cumulative IPC: 0.456751 (Simulation time: 0 hr 37 min 4 sec) 
Heartbeat CPU 0 instructions: 75000001 cycles: 74554998 heartbeat IPC: 0.466902 cumulative IPC: 0.457148 (Simulation time: 0 hr 37 min 40 sec) 
Heartbeat CPU 0 instructions: 76000000 cycles: 76695511 heartbeat IPC: 0.467177 cumulative IPC: 0.457526 (Simulation time: 0 hr 38 min 16 sec) 
Heartbeat CPU 0 instructions: 77000000 cycles: 78829344 heartbeat IPC: 0.46864 cumulative IPC: 0.457928 (Simulation time: 0 hr 38 min 50 sec) 
Heartbeat CPU 0 instructions: 78000002 cycles: 80996660 heartbeat IPC: 0.461401 cumulative IPC: 0.458051 (Simulation time: 0 hr 39 min 18 sec) 
Heartbeat CPU 0 instructions: 79000001 cycles: 83112353 heartbeat IPC: 0.472658 cumulative IPC: 0.45854 (Simulation time: 0 hr 39 min 52 sec) 
Heartbeat CPU 0 instructions: 80000000 cycles: 85281104 heartbeat IPC: 0.461094 cumulative IPC: 0.458625 (Simulation time: 0 hr 40 min 23 sec) 
Heartbeat CPU 0 instructions: 81000000 cycles: 87408462 heartbeat IPC: 0.470067 cumulative IPC: 0.458985 (Simulation time: 0 hr 40 min 52 sec) 
Heartbeat CPU 0 instructions: 82000000 cycles: 89547626 heartbeat IPC: 0.467472 cumulative IPC: 0.459246 (Simulation time: 0 hr 41 min 20 sec) 
Heartbeat CPU 0 instructions: 83000001 cycles: 91859131 heartbeat IPC: 0.432619 cumulative IPC: 0.458391 (Simulation time: 0 hr 41 min 48 sec) 
Heartbeat CPU 0 instructions: 84000000 cycles: 94347938 heartbeat IPC: 0.401799 cumulative IPC: 0.4565 (Simulation time: 0 hr 42 min 22 sec) 
Heartbeat CPU 0 instructions: 85000001 cycles: 96842945 heartbeat IPC: 0.400801 cumulative IPC: 0.454694 (Simulation time: 0 hr 42 min 53 sec) 
Heartbeat CPU 0 instructions: 86000001 cycles: 99333075 heartbeat IPC: 0.401585 cumulative IPC: 0.45303 (Simulation time: 0 hr 43 min 26 sec) 
Heartbeat CPU 0 instructions: 87000003 cycles: 101842734 heartbeat IPC: 0.398461 cumulative IPC: 0.451359 (Simulation time: 0 hr 43 min 59 sec) 
Heartbeat CPU 0 instructions: 88000000 cycles: 104354747 heartbeat IPC: 0.398086 cumulative IPC: 0.449775 (Simulation time: 0 hr 44 min 31 sec) 
Heartbeat CPU 0 instructions: 89000001 cycles: 106725767 heartbeat IPC: 0.42176 cumulative IPC: 0.449011 (Simulation time: 0 hr 45 min 3 sec) 
Heartbeat CPU 0 instructions: 90000000 cycles: 108842204 heartbeat IPC: 0.472492 cumulative IPC: 0.449569 (Simulation time: 0 hr 45 min 33 sec) 
Heartbeat CPU 0 instructions: 91000002 cycles: 111324249 heartbeat IPC: 0.402894 cumulative IPC: 0.448302 (Simulation time: 0 hr 46 min 5 sec) 
Heartbeat CPU 0 instructions: 92000000 cycles: 113800878 heartbeat IPC: 0.403774 cumulative IPC: 0.447128 (Simulation time: 0 hr 46 min 36 sec) 
Heartbeat CPU 0 instructions: 93000003 cycles: 116297549 heartbeat IPC: 0.400535 cumulative IPC: 0.445922 (Simulation time: 0 hr 47 min 7 sec) 
Heartbeat CPU 0 instructions: 94000000 cycles: 118809288 heartbeat IPC: 0.398129 cumulative IPC: 0.444709 (Simulation time: 0 hr 47 min 38 sec) 
Heartbeat CPU 0 instructions: 95000002 cycles: 121322544 heartbeat IPC: 0.397891 cumulative IPC: 0.443549 (Simulation time: 0 hr 48 min 8 sec) 
Heartbeat CPU 0 instructions: 96000000 cycles: 123842423 heartbeat IPC: 0.396844 cumulative IPC: 0.442417 (Simulation time: 0 hr 48 min 38 sec) 
Heartbeat CPU 0 instructions: 97000001 cycles: 126362127 heartbeat IPC: 0.396872 cumulative IPC: 0.441339 (Simulation time: 0 hr 49 min 10 sec) 
Heartbeat CPU 0 instructions: 98000002 cycles: 128864235 heartbeat IPC: 0.399663 cumulative IPC: 0.440383 (Simulation time: 0 hr 49 min 45 sec) 
Heartbeat CPU 0 instructions: 99000002 cycles: 130451739 heartbeat IPC: 0.62992 cumulative IPC: 0.443104 (Simulation time: 0 hr 50 min 15 sec) 
Heartbeat CPU 0 instructions: 100000000 cycles: 131878405 heartbeat IPC: 0.700934 cumulative IPC: 0.446388 (Simulation time: 0 hr 50 min 47 sec) 
Heartbeat CPU 0 instructions: 101000000 cycles: 133305119 heartbeat IPC: 0.700911 cumulative IPC: 0.449589 (Simulation time: 0 hr 51 min 18 sec) 
Heartbeat CPU 0 instructions: 102000003 cycles: 134731713 heartbeat IPC: 0.700972 cumulative IPC: 0.452711 (Simulation time: 0 hr 51 min 50 sec) 
Heartbeat CPU 0 instructions: 103000002 cycles: 136158309 heartbeat IPC: 0.700969 cumulative IPC: 0.455757 (Simulation time: 0 hr 52 min 22 sec) 
Heartbeat CPU 0 instructions: 104000000 cycles: 137584973 heartbeat IPC: 0.700934 cumulative IPC: 0.458728 (Simulation time: 0 hr 52 min 57 sec) 
Heartbeat CPU 0 instructions: 105000000 cycles: 139011687 heartbeat IPC: 0.700911 cumulative IPC: 0.461628 (Simulation time: 0 hr 53 min 26 sec) 
Heartbeat CPU 0 instructions: 106000001 cycles: 140402520 heartbeat IPC: 0.718994 cumulative IPC: 0.464598 (Simulation time: 0 hr 53 min 54 sec) 
Heartbeat CPU 0 instructions: 107000000 cycles: 141702619 heartbeat IPC: 0.769171 cumulative IPC: 0.467848 (Simulation time: 0 hr 54 min 24 sec) 
Heartbeat CPU 0 instructions: 108000000 cycles: 143102496 heartbeat IPC: 0.714348 cumulative IPC: 0.470648 (Simulation time: 0 hr 54 min 56 sec) 
Heartbeat CPU 0 instructions: 109000001 cycles: 144528037 heartbeat IPC: 0.701489 cumulative IPC: 0.473288 (Simulation time: 0 hr 55 min 26 sec) 
Heartbeat CPU 0 instructions: 110000000 cycles: 145954629 heartbeat IPC: 0.700971 cumulative IPC: 0.475864 (Simulation time: 0 hr 55 min 57 sec) 
Heartbeat CPU 0 instructions: 111000001 cycles: 147381229 heartbeat IPC: 0.700968 cumulative IPC: 0.478382 (Simulation time: 0 hr 56 min 29 sec) 
Heartbeat CPU 0 instructions: 112000000 cycles: 148807891 heartbeat IPC: 0.700936 cumulative IPC: 0.480845 (Simulation time: 0 hr 56 min 58 sec) 
Heartbeat CPU 0 instructions: 113000001 cycles: 150234622 heartbeat IPC: 0.700904 cumulative IPC: 0.483253 (Simulation time: 0 hr 57 min 29 sec) 
Heartbeat CPU 0 instructions: 114000000 cycles: 151661403 heartbeat IPC: 0.700878 cumulative IPC: 0.485609 (Simulation time: 0 hr 58 min 1 sec) 
Heartbeat CPU 0 instructions: 115000000 cycles: 153087994 heartbeat IPC: 0.700972 cumulative IPC: 0.487915 (Simulation time: 0 hr 58 min 34 sec) 
Heartbeat CPU 0 instructions: 116000000 cycles: 154514585 heartbeat IPC: 0.700972 cumulative IPC: 0.490173 (Simulation time: 0 hr 59 min 5 sec) 
Heartbeat CPU 0 instructions: 117000000 cycles: 155941050 heartbeat IPC: 0.701034 cumulative IPC: 0.492383 (Simulation time: 0 hr 59 min 35 sec) 
Heartbeat CPU 0 instructions: 118000000 cycles: 158139776 heartbeat IPC: 0.454809 cumulative IPC: 0.491786 (Simulation time: 1 hr 0 min 10 sec) 
Heartbeat CPU 0 instructions: 119000000 cycles: 160440540 heartbeat IPC: 0.434638 cumulative IPC: 0.49085 (Simulation time: 1 hr 0 min 42 sec) 
Heartbeat CPU 0 instructions: 120000000 cycles: 162744948 heartbeat IPC: 0.433951 cumulative IPC: 0.489933 (Simulation time: 1 hr 1 min 14 sec) 
Heartbeat CPU 0 instructions: 121000003 cycles: 165055384 heartbeat IPC: 0.43282 cumulative IPC: 0.489024 (Simulation time: 1 hr 1 min 46 sec) 
Heartbeat CPU 0 instructions: 122000000 cycles: 167374159 heartbeat IPC: 0.431261 cumulative IPC: 0.488116 (Simulation time: 1 hr 2 min 18 sec) 
Heartbeat CPU 0 instructions: 123000001 cycles: 169683461 heartbeat IPC: 0.433032 cumulative IPC: 0.487267 (Simulation time: 1 hr 2 min 49 sec) 
Heartbeat CPU 0 instructions: 124000000 cycles: 171805873 heartbeat IPC: 0.471162 cumulative IPC: 0.487042 (Simulation time: 1 hr 3 min 21 sec) 
Heartbeat CPU 0 instructions: 125000001 cycles: 173987263 heartbeat IPC: 0.458424 cumulative IPC: 0.486637 (Simulation time: 1 hr 3 min 51 sec) 
Heartbeat CPU 0 instructions: 126000001 cycles: 176289076 heartbeat IPC: 0.43444 cumulative IPC: 0.485868 (Simulation time: 1 hr 4 min 25 sec) 
Heartbeat CPU 0 instructions: 127000003 cycles: 178594674 heartbeat IPC: 0.433728 cumulative IPC: 0.485111 (Simulation time: 1 hr 4 min 59 sec) 
Heartbeat CPU 0 instructions: 128000000 cycles: 180916451 heartbeat IPC: 0.430703 cumulative IPC: 0.484327 (Simulation time: 1 hr 5 min 31 sec) 
Heartbeat CPU 0 instructions: 129000002 cycles: 183229774 heartbeat IPC: 0.432279 cumulative IPC: 0.48359 (Simulation time: 1 hr 6 min 5 sec) 
Heartbeat CPU 0 instructions: 130000002 cycles: 185530775 heartbeat IPC: 0.434593 cumulative IPC: 0.482909 (Simulation time: 1 hr 6 min 38 sec) 
Heartbeat CPU 0 instructions: 131000002 cycles: 187836437 heartbeat IPC: 0.433715 cumulative IPC: 0.482234 (Simulation time: 1 hr 7 min 11 sec) 
Heartbeat CPU 0 instructions: 132000000 cycles: 190159211 heartbeat IPC: 0.430519 cumulative IPC: 0.481528 (Simulation time: 1 hr 7 min 51 sec) 
Heartbeat CPU 0 instructions: 133000000 cycles: 192223128 heartbeat IPC: 0.484516 cumulative IPC: 0.481564 (Simulation time: 1 hr 8 min 21 sec) 
Heartbeat CPU 0 instructions: 134000003 cycles: 193677667 heartbeat IPC: 0.687505 cumulative IPC: 0.483288 (Simulation time: 1 hr 8 min 51 sec) 
Heartbeat CPU 0 instructions: 135000002 cycles: 195187591 heartbeat IPC: 0.662284 cumulative IPC: 0.484829 (Simulation time: 1 hr 9 min 20 sec) 
Heartbeat CPU 0 instructions: 136000000 cycles: 196697585 heartbeat IPC: 0.662253 cumulative IPC: 0.486344 (Simulation time: 1 hr 9 min 50 sec) 
Heartbeat CPU 0 instructions: 137000000 cycles: 198207628 heartbeat IPC: 0.662233 cumulative IPC: 0.487834 (Simulation time: 1 hr 10 min 18 sec) 
Heartbeat CPU 0 instructions: 138000001 cycles: 199717751 heartbeat IPC: 0.662198 cumulative IPC: 0.489298 (Simulation time: 1 hr 10 min 50 sec) 
Heartbeat CPU 0 instructions: 139000000 cycles: 201227671 heartbeat IPC: 0.662286 cumulative IPC: 0.490738 (Simulation time: 1 hr 11 min 20 sec) 
Heartbeat CPU 0 instructions: 140000000 cycles: 202735477 heartbeat IPC: 0.663215 cumulative IPC: 0.49216 (Simulation time: 1 hr 11 min 48 sec) 
Heartbeat CPU 0 instructions: 141000001 cycles: 204109629 heartbeat IPC: 0.727722 cumulative IPC: 0.493917 (Simulation time: 1 hr 12 min 17 sec) 
Heartbeat CPU 0 instructions: 142000000 cycles: 205483690 heartbeat IPC: 0.727769 cumulative IPC: 0.495648 (Simulation time: 1 hr 12 min 45 sec) 
Heartbeat CPU 0 instructions: 143000003 cycles: 206989853 heartbeat IPC: 0.663941 cumulative IPC: 0.497003 (Simulation time: 1 hr 13 min 15 sec) 
Heartbeat CPU 0 instructions: 144000000 cycles: 208499845 heartbeat IPC: 0.662253 cumulative IPC: 0.498326 (Simulation time: 1 hr 13 min 43 sec) 
Heartbeat CPU 0 instructions: 145000001 cycles: 210009887 heartbeat IPC: 0.662234 cumulative IPC: 0.499627 (Simulation time: 1 hr 14 min 13 sec) 
Heartbeat CPU 0 instructions: 146000000 cycles: 211519807 heartbeat IPC: 0.662286 cumulative IPC: 0.500909 (Simulation time: 1 hr 14 min 42 sec) 
Heartbeat CPU 0 instructions: 147000001 cycles: 213029732 heartbeat IPC: 0.662285 cumulative IPC: 0.50217 (Simulation time: 1 hr 15 min 10 sec) 
Heartbeat CPU 0 instructions: 148000000 cycles: 214539724 heartbeat IPC: 0.662255 cumulative IPC: 0.503412 (Simulation time: 1 hr 15 min 39 sec) 
Heartbeat CPU 0 instructions: 149000002 cycles: 216049768 heartbeat IPC: 0.662234 cumulative IPC: 0.504634 (Simulation time: 1 hr 16 min 9 sec) 
Heartbeat CPU 0 instructions: 150000001 cycles: 217559688 heartbeat IPC: 0.662286 cumulative IPC: 0.505839 (Simulation time: 1 hr 16 min 37 sec) 
Finished CPU 0 instructions: 100000000 cycles: 197691547 cummulative IPC: 0.505839 (Simulation time: 1 hr 16 min 37 sec) 

ChampSim completed all CPUs

Region of Interest Statistics

CPU 0 cummulative IPC: 0.505839 instructions: 100000000 cycles: 197691547
LLC TOTAL     ACCESS:    3948315  HIT:     251996  MISS:    3696319
LLC LOAD      ACCESS:     888347  HIT:      41918  MISS:     846429
LLC RFO       ACCESS:         21  HIT:         20  MISS:          1
LLC PREFETCH  ACCESS:    2105557  HIT:     111509  MISS:    1994048
LLC WRITEBACK ACCESS:     954390  HIT:      98549  MISS:     855841
OPTgen accesses: 15119
OPTgen hits: 46
OPTgen hit rate: 0.304253


