
*** ChampSim Multicore Out-of-Order Simulator ***

Warmup Instructions: 50000000
Simulation Instructions: 100000000
Configuration: 2
Number of CPUs: 1
LLC sets: 2048
LLC ways: 16
Off-chip DRAM Channels: 1 Width: 64-bit Data Rate: 1600 MT/s

CPU 0 runs /datasets/cs240c-wi22-a00-public/data/Assignment2-gz/GemsFDTD_716B.trace.gz
CPU 0 L1D next line prefetcher
CPU 0 L2C IP-based stride prefetcher
Initialize Hawkeye state
Heartbeat CPU 0 instructions: 1000000 cycles: 415045 heartbeat IPC: 2.40938 cumulative IPC: 2.40938 (Simulation time: 0 hr 0 min 44 sec) 
Heartbeat CPU 0 instructions: 2000003 cycles: 829979 heartbeat IPC: 2.41003 cumulative IPC: 2.4097 (Simulation time: 0 hr 1 min 32 sec) 
Heartbeat CPU 0 instructions: 3000000 cycles: 1280233 heartbeat IPC: 2.22096 cumulative IPC: 2.34332 (Simulation time: 0 hr 2 min 14 sec) 
Heartbeat CPU 0 instructions: 4000000 cycles: 1737264 heartbeat IPC: 2.18804 cumulative IPC: 2.30247 (Simulation time: 0 hr 2 min 57 sec) 
Heartbeat CPU 0 instructions: 5000000 cycles: 2152245 heartbeat IPC: 2.40975 cumulative IPC: 2.32316 (Simulation time: 0 hr 3 min 40 sec) 
Heartbeat CPU 0 instructions: 6000000 cycles: 2567261 heartbeat IPC: 2.40955 cumulative IPC: 2.33712 (Simulation time: 0 hr 4 min 25 sec) 
Heartbeat CPU 0 instructions: 7000000 cycles: 2982264 heartbeat IPC: 2.40962 cumulative IPC: 2.34721 (Simulation time: 0 hr 5 min 11 sec) 
Heartbeat CPU 0 instructions: 8000000 cycles: 3395191 heartbeat IPC: 2.42174 cumulative IPC: 2.35627 (Simulation time: 0 hr 5 min 59 sec) 
Heartbeat CPU 0 instructions: 9000003 cycles: 3840223 heartbeat IPC: 2.24704 cumulative IPC: 2.34361 (Simulation time: 0 hr 6 min 50 sec) 
Heartbeat CPU 0 instructions: 10000002 cycles: 4354523 heartbeat IPC: 1.94439 cumulative IPC: 2.29646 (Simulation time: 0 hr 7 min 42 sec) 
Heartbeat CPU 0 instructions: 11000000 cycles: 4869364 heartbeat IPC: 1.94234 cumulative IPC: 2.25902 (Simulation time: 0 hr 8 min 34 sec) 
Heartbeat CPU 0 instructions: 12000000 cycles: 5383711 heartbeat IPC: 1.94421 cumulative IPC: 2.22895 (Simulation time: 0 hr 9 min 25 sec) 
Heartbeat CPU 0 instructions: 13000002 cycles: 5898405 heartbeat IPC: 1.94291 cumulative IPC: 2.20399 (Simulation time: 0 hr 10 min 20 sec) 
Heartbeat CPU 0 instructions: 14000000 cycles: 6414336 heartbeat IPC: 1.93824 cumulative IPC: 2.18261 (Simulation time: 0 hr 11 min 15 sec) 
Heartbeat CPU 0 instructions: 15000001 cycles: 6934503 heartbeat IPC: 1.92246 cumulative IPC: 2.1631 (Simulation time: 0 hr 12 min 8 sec) 
Heartbeat CPU 0 instructions: 16000000 cycles: 7454724 heartbeat IPC: 1.92226 cumulative IPC: 2.14629 (Simulation time: 0 hr 13 min 0 sec) 
Heartbeat CPU 0 instructions: 17000001 cycles: 7975432 heartbeat IPC: 1.92046 cumulative IPC: 2.13155 (Simulation time: 0 hr 13 min 51 sec) 
Heartbeat CPU 0 instructions: 18000000 cycles: 8496343 heartbeat IPC: 1.91971 cumulative IPC: 2.11856 (Simulation time: 0 hr 14 min 43 sec) 
Heartbeat CPU 0 instructions: 19000003 cycles: 9017482 heartbeat IPC: 1.91888 cumulative IPC: 2.10702 (Simulation time: 0 hr 15 min 35 sec) 
Heartbeat CPU 0 instructions: 20000000 cycles: 9556081 heartbeat IPC: 1.85666 cumulative IPC: 2.09291 (Simulation time: 0 hr 16 min 27 sec) 
Heartbeat CPU 0 instructions: 21000000 cycles: 10098179 heartbeat IPC: 1.84468 cumulative IPC: 2.07958 (Simulation time: 0 hr 17 min 20 sec) 
Heartbeat CPU 0 instructions: 22000001 cycles: 10639168 heartbeat IPC: 1.84847 cumulative IPC: 2.06783 (Simulation time: 0 hr 18 min 11 sec) 
Heartbeat CPU 0 instructions: 23000003 cycles: 11180646 heartbeat IPC: 1.8468 cumulative IPC: 2.05713 (Simulation time: 0 hr 19 min 1 sec) 
Heartbeat CPU 0 instructions: 24000000 cycles: 11722883 heartbeat IPC: 1.84421 cumulative IPC: 2.04728 (Simulation time: 0 hr 19 min 50 sec) 
Heartbeat CPU 0 instructions: 25000000 cycles: 12250674 heartbeat IPC: 1.89469 cumulative IPC: 2.0407 (Simulation time: 0 hr 20 min 42 sec) 
Heartbeat CPU 0 instructions: 26000000 cycles: 12769410 heartbeat IPC: 1.92776 cumulative IPC: 2.03612 (Simulation time: 0 hr 21 min 32 sec) 
Heartbeat CPU 0 instructions: 27000002 cycles: 13288113 heartbeat IPC: 1.92789 cumulative IPC: 2.03189 (Simulation time: 0 hr 22 min 23 sec) 
Heartbeat CPU 0 instructions: 28000000 cycles: 13806576 heartbeat IPC: 1.92877 cumulative IPC: 2.02802 (Simulation time: 0 hr 23 min 13 sec) 
Heartbeat CPU 0 instructions: 29000003 cycles: 14324745 heartbeat IPC: 1.92988 cumulative IPC: 2.02447 (Simulation time: 0 hr 24 min 3 sec) 
Heartbeat CPU 0 instructions: 30000001 cycles: 14858460 heartbeat IPC: 1.87366 cumulative IPC: 2.01905 (Simulation time: 0 hr 24 min 52 sec) 
Heartbeat CPU 0 instructions: 31000001 cycles: 15419697 heartbeat IPC: 1.78178 cumulative IPC: 2.01042 (Simulation time: 0 hr 25 min 41 sec) 
Heartbeat CPU 0 instructions: 32000000 cycles: 15980970 heartbeat IPC: 1.78166 cumulative IPC: 2.00238 (Simulation time: 0 hr 26 min 30 sec) 
Heartbeat CPU 0 instructions: 33000002 cycles: 16543217 heartbeat IPC: 1.77858 cumulative IPC: 1.99478 (Simulation time: 0 hr 27 min 20 sec) 
Heartbeat CPU 0 instructions: 34000001 cycles: 17104054 heartbeat IPC: 1.78305 cumulative IPC: 1.98783 (Simulation time: 0 hr 28 min 9 sec) 
Heartbeat CPU 0 instructions: 35000001 cycles: 17665341 heartbeat IPC: 1.78162 cumulative IPC: 1.98128 (Simulation time: 0 hr 28 min 59 sec) 
Heartbeat CPU 0 instructions: 36000000 cycles: 18227996 heartbeat IPC: 1.77729 cumulative IPC: 1.97498 (Simulation time: 0 hr 29 min 48 sec) 
Heartbeat CPU 0 instructions: 37000002 cycles: 18801922 heartbeat IPC: 1.74239 cumulative IPC: 1.96788 (Simulation time: 0 hr 30 min 38 sec) 
Heartbeat CPU 0 instructions: 38000002 cycles: 19375776 heartbeat IPC: 1.7426 cumulative IPC: 1.96121 (Simulation time: 0 hr 31 min 29 sec) 
Heartbeat CPU 0 instructions: 39000000 cycles: 19949471 heartbeat IPC: 1.74308 cumulative IPC: 1.95494 (Simulation time: 0 hr 32 min 21 sec) 
Heartbeat CPU 0 instructions: 40000000 cycles: 20523361 heartbeat IPC: 1.74249 cumulative IPC: 1.949 (Simulation time: 0 hr 33 min 9 sec) 
Heartbeat CPU 0 instructions: 41000002 cycles: 21096824 heartbeat IPC: 1.7438 cumulative IPC: 1.94342 (Simulation time: 0 hr 33 min 59 sec) 
Heartbeat CPU 0 instructions: 42000000 cycles: 21670588 heartbeat IPC: 1.74287 cumulative IPC: 1.93811 (Simulation time: 0 hr 34 min 46 sec) 
Heartbeat CPU 0 instructions: 43000002 cycles: 22218130 heartbeat IPC: 1.82635 cumulative IPC: 1.93536 (Simulation time: 0 hr 35 min 38 sec) 
Heartbeat CPU 0 instructions: 44000000 cycles: 22751726 heartbeat IPC: 1.87407 cumulative IPC: 1.93392 (Simulation time: 0 hr 36 min 30 sec) 
Heartbeat CPU 0 instructions: 45000001 cycles: 23285138 heartbeat IPC: 1.87473 cumulative IPC: 1.93256 (Simulation time: 0 hr 37 min 22 sec) 
Heartbeat CPU 0 instructions: 46000001 cycles: 23818677 heartbeat IPC: 1.87428 cumulative IPC: 1.93126 (Simulation time: 0 hr 38 min 12 sec) 
Heartbeat CPU 0 instructions: 47000003 cycles: 24352146 heartbeat IPC: 1.87453 cumulative IPC: 1.93001 (Simulation time: 0 hr 39 min 3 sec) 
Heartbeat CPU 0 instructions: 48000000 cycles: 24891915 heartbeat IPC: 1.85264 cumulative IPC: 1.92834 (Simulation time: 0 hr 39 min 54 sec) 
Heartbeat CPU 0 instructions: 49000003 cycles: 25438880 heartbeat IPC: 1.82828 cumulative IPC: 1.92619 (Simulation time: 0 hr 40 min 45 sec) 
Heartbeat CPU 0 instructions: 50000003 cycles: 25986007 heartbeat IPC: 1.82773 cumulative IPC: 1.92411 (Simulation time: 0 hr 41 min 38 sec) 

Warmup complete CPU 0 instructions: 50000003 cycles: 25986007 (Simulation time: 0 hr 41 min 38 sec) 

Heartbeat CPU 0 instructions: 51000003 cycles: 29571116 heartbeat IPC: 0.278932 cumulative IPC: 0.278932 (Simulation time: 0 hr 42 min 35 sec) 
Heartbeat CPU 0 instructions: 52000000 cycles: 33155568 heartbeat IPC: 0.278982 cumulative IPC: 0.278957 (Simulation time: 0 hr 43 min 44 sec) 
Heartbeat CPU 0 instructions: 53000002 cycles: 36888637 heartbeat IPC: 0.267877 cumulative IPC: 0.275163 (Simulation time: 0 hr 44 min 49 sec) 
Heartbeat CPU 0 instructions: 54000001 cycles: 39003812 heartbeat IPC: 0.472774 cumulative IPC: 0.307271 (Simulation time: 0 hr 45 min 44 sec) 
Heartbeat CPU 0 instructions: 55000002 cycles: 40809964 heartbeat IPC: 0.553664 cumulative IPC: 0.337292 (Simulation time: 0 hr 46 min 35 sec) 
Heartbeat CPU 0 instructions: 56000000 cycles: 42663875 heartbeat IPC: 0.539399 cumulative IPC: 0.359758 (Simulation time: 0 hr 47 min 28 sec) 
Heartbeat CPU 0 instructions: 57000002 cycles: 44503459 heartbeat IPC: 0.543602 cumulative IPC: 0.378022 (Simulation time: 0 hr 48 min 19 sec) 
Heartbeat CPU 0 instructions: 58000001 cycles: 46274275 heartbeat IPC: 0.564711 cumulative IPC: 0.394316 (Simulation time: 0 hr 49 min 14 sec) 
Heartbeat CPU 0 instructions: 59000002 cycles: 48431030 heartbeat IPC: 0.46366 cumulative IPC: 0.40098 (Simulation time: 0 hr 50 min 5 sec) 
Heartbeat CPU 0 instructions: 60000000 cycles: 49959233 heartbeat IPC: 0.654362 cumulative IPC: 0.417132 (Simulation time: 0 hr 50 min 55 sec) 
Heartbeat CPU 0 instructions: 61000002 cycles: 51488565 heartbeat IPC: 0.653882 cumulative IPC: 0.431329 (Simulation time: 0 hr 51 min 43 sec) 
Heartbeat CPU 0 instructions: 62000000 cycles: 53028751 heartbeat IPC: 0.649271 cumulative IPC: 0.443742 (Simulation time: 0 hr 52 min 36 sec) 
Heartbeat CPU 0 instructions: 63000000 cycles: 54587626 heartbeat IPC: 0.641488 cumulative IPC: 0.45452 (Simulation time: 0 hr 53 min 28 sec) 
Heartbeat CPU 0 instructions: 64000000 cycles: 56609315 heartbeat IPC: 0.494636 cumulative IPC: 0.457168 (Simulation time: 0 hr 54 min 18 sec) 
Heartbeat CPU 0 instructions: 65000001 cycles: 57988135 heartbeat IPC: 0.725259 cumulative IPC: 0.468719 (Simulation time: 0 hr 55 min 5 sec) 
Heartbeat CPU 0 instructions: 66000003 cycles: 59330960 heartbeat IPC: 0.7447 cumulative IPC: 0.479833 (Simulation time: 0 hr 55 min 50 sec) 
Heartbeat CPU 0 instructions: 67000003 cycles: 60673932 heartbeat IPC: 0.744617 cumulative IPC: 0.490084 (Simulation time: 0 hr 56 min 39 sec) 
Heartbeat CPU 0 instructions: 68000000 cycles: 62010783 heartbeat IPC: 0.748024 cumulative IPC: 0.499656 (Simulation time: 0 hr 57 min 24 sec) 
Heartbeat CPU 0 instructions: 69000000 cycles: 63346049 heartbeat IPC: 0.748914 cumulative IPC: 0.508565 (Simulation time: 0 hr 58 min 12 sec) 
Heartbeat CPU 0 instructions: 70000000 cycles: 65140349 heartbeat IPC: 0.55732 cumulative IPC: 0.510799 (Simulation time: 0 hr 59 min 1 sec) 
Heartbeat CPU 0 instructions: 71000000 cycles: 66645519 heartbeat IPC: 0.664377 cumulative IPC: 0.516484 (Simulation time: 0 hr 59 min 51 sec) 
Heartbeat CPU 0 instructions: 72000000 cycles: 68003422 heartbeat IPC: 0.73643 cumulative IPC: 0.523592 (Simulation time: 1 hr 0 min 38 sec) 
Heartbeat CPU 0 instructions: 73000002 cycles: 69363741 heartbeat IPC: 0.735123 cumulative IPC: 0.530226 (Simulation time: 1 hr 1 min 24 sec) 
Heartbeat CPU 0 instructions: 74000000 cycles: 70726196 heartbeat IPC: 0.733968 cumulative IPC: 0.53643 (Simulation time: 1 hr 2 min 8 sec) 
Heartbeat CPU 0 instructions: 75000000 cycles: 72093184 heartbeat IPC: 0.731535 cumulative IPC: 0.542215 (Simulation time: 1 hr 2 min 54 sec) 
Heartbeat CPU 0 instructions: 76000000 cycles: 73458151 heartbeat IPC: 0.732618 cumulative IPC: 0.54769 (Simulation time: 1 hr 3 min 39 sec) 
Heartbeat CPU 0 instructions: 77000001 cycles: 77014862 heartbeat IPC: 0.281159 cumulative IPC: 0.529112 (Simulation time: 1 hr 4 min 38 sec) 
Heartbeat CPU 0 instructions: 78000000 cycles: 80411887 heartbeat IPC: 0.294375 cumulative IPC: 0.514461 (Simulation time: 1 hr 5 min 40 sec) 
Heartbeat CPU 0 instructions: 79000002 cycles: 83798216 heartbeat IPC: 0.295306 cumulative IPC: 0.501624 (Simulation time: 1 hr 6 min 40 sec) 
Heartbeat CPU 0 instructions: 80000000 cycles: 87187136 heartbeat IPC: 0.295079 cumulative IPC: 0.490187 (Simulation time: 1 hr 7 min 40 sec) 
Heartbeat CPU 0 instructions: 81000000 cycles: 90575664 heartbeat IPC: 0.295113 cumulative IPC: 0.479953 (Simulation time: 1 hr 8 min 40 sec) 
Heartbeat CPU 0 instructions: 82000002 cycles: 94540057 heartbeat IPC: 0.252246 cumulative IPC: 0.466785 (Simulation time: 1 hr 9 min 46 sec) 
Heartbeat CPU 0 instructions: 83000002 cycles: 98157279 heartbeat IPC: 0.276455 cumulative IPC: 0.457246 (Simulation time: 1 hr 10 min 49 sec) 
Heartbeat CPU 0 instructions: 84000000 cycles: 101779746 heartbeat IPC: 0.276054 cumulative IPC: 0.448586 (Simulation time: 1 hr 11 min 49 sec) 
Heartbeat CPU 0 instructions: 85000000 cycles: 105399361 heartbeat IPC: 0.276272 cumulative IPC: 0.440732 (Simulation time: 1 hr 12 min 44 sec) 
Heartbeat CPU 0 instructions: 86000000 cycles: 109020571 heartbeat IPC: 0.276151 cumulative IPC: 0.433554 (Simulation time: 1 hr 13 min 41 sec) 
Heartbeat CPU 0 instructions: 87000000 cycles: 112720885 heartbeat IPC: 0.270247 cumulative IPC: 0.426587 (Simulation time: 1 hr 14 min 39 sec) 
Heartbeat CPU 0 instructions: 88000000 cycles: 114448395 heartbeat IPC: 0.578868 cumulative IPC: 0.429561 (Simulation time: 1 hr 15 min 24 sec) 
Heartbeat CPU 0 instructions: 89000001 cycles: 116055833 heartbeat IPC: 0.622109 cumulative IPC: 0.432997 (Simulation time: 1 hr 16 min 9 sec) 
Heartbeat CPU 0 instructions: 90000001 cycles: 117661211 heartbeat IPC: 0.622906 cumulative IPC: 0.436323 (Simulation time: 1 hr 16 min 55 sec) 
Heartbeat CPU 0 instructions: 91000001 cycles: 119271250 heartbeat IPC: 0.621103 cumulative IPC: 0.439512 (Simulation time: 1 hr 17 min 38 sec) 
Heartbeat CPU 0 instructions: 92000000 cycles: 120881152 heartbeat IPC: 0.621155 cumulative IPC: 0.442594 (Simulation time: 1 hr 18 min 21 sec) 
Heartbeat CPU 0 instructions: 93000002 cycles: 122963897 heartbeat IPC: 0.480137 cumulative IPC: 0.4434 (Simulation time: 1 hr 19 min 4 sec) 
Heartbeat CPU 0 instructions: 94000001 cycles: 124366847 heartbeat IPC: 0.712783 cumulative IPC: 0.447242 (Simulation time: 1 hr 19 min 44 sec) 
Heartbeat CPU 0 instructions: 95000000 cycles: 125763518 heartbeat IPC: 0.715988 cumulative IPC: 0.451003 (Simulation time: 1 hr 20 min 20 sec) 
Heartbeat CPU 0 instructions: 96000000 cycles: 127169677 heartbeat IPC: 0.711157 cumulative IPC: 0.454619 (Simulation time: 1 hr 20 min 55 sec) 
Heartbeat CPU 0 instructions: 97000001 cycles: 128570613 heartbeat IPC: 0.713809 cumulative IPC: 0.458158 (Simulation time: 1 hr 21 min 30 sec) 
Heartbeat CPU 0 instructions: 98000000 cycles: 130539110 heartbeat IPC: 0.508001 cumulative IPC: 0.459097 (Simulation time: 1 hr 22 min 7 sec) 
Heartbeat CPU 0 instructions: 99000001 cycles: 131902032 heartbeat IPC: 0.733718 cumulative IPC: 0.462631 (Simulation time: 1 hr 22 min 42 sec) 
Heartbeat CPU 0 instructions: 100000000 cycles: 133266430 heartbeat IPC: 0.732923 cumulative IPC: 0.466068 (Simulation time: 1 hr 23 min 17 sec) 
Heartbeat CPU 0 instructions: 101000002 cycles: 134626282 heartbeat IPC: 0.735376 cumulative IPC: 0.469439 (Simulation time: 1 hr 23 min 54 sec) 
Heartbeat CPU 0 instructions: 102000003 cycles: 135989453 heartbeat IPC: 0.733584 cumulative IPC: 0.472712 (Simulation time: 1 hr 24 min 28 sec) 
Heartbeat CPU 0 instructions: 103000000 cycles: 137349923 heartbeat IPC: 0.735038 cumulative IPC: 0.475917 (Simulation time: 1 hr 25 min 1 sec) 
Heartbeat CPU 0 instructions: 104000000 cycles: 139298906 heartbeat IPC: 0.513088 cumulative IPC: 0.476556 (Simulation time: 1 hr 25 min 36 sec) 
Heartbeat CPU 0 instructions: 105000003 cycles: 140773199 heartbeat IPC: 0.678293 cumulative IPC: 0.479148 (Simulation time: 1 hr 26 min 8 sec) 
Heartbeat CPU 0 instructions: 106000001 cycles: 142151242 heartbeat IPC: 0.725665 cumulative IPC: 0.482072 (Simulation time: 1 hr 26 min 39 sec) 
Heartbeat CPU 0 instructions: 107000001 cycles: 143539480 heartbeat IPC: 0.720338 cumulative IPC: 0.484886 (Simulation time: 1 hr 27 min 10 sec) 
Heartbeat CPU 0 instructions: 108000000 cycles: 144917664 heartbeat IPC: 0.725592 cumulative IPC: 0.487675 (Simulation time: 1 hr 27 min 40 sec) 
Heartbeat CPU 0 instructions: 109000000 cycles: 146296660 heartbeat IPC: 0.725165 cumulative IPC: 0.490397 (Simulation time: 1 hr 28 min 9 sec) 
Heartbeat CPU 0 instructions: 110000002 cycles: 148074155 heartbeat IPC: 0.562591 cumulative IPC: 0.491448 (Simulation time: 1 hr 28 min 37 sec) 
Heartbeat CPU 0 instructions: 111000002 cycles: 151582117 heartbeat IPC: 0.285066 cumulative IPC: 0.485684 (Simulation time: 1 hr 29 min 12 sec) 
Heartbeat CPU 0 instructions: 112000000 cycles: 154925696 heartbeat IPC: 0.29908 cumulative IPC: 0.480845 (Simulation time: 1 hr 29 min 44 sec) 
Heartbeat CPU 0 instructions: 113000001 cycles: 158264086 heartbeat IPC: 0.299546 cumulative IPC: 0.476269 (Simulation time: 1 hr 30 min 16 sec) 
Heartbeat CPU 0 instructions: 114000000 cycles: 161604632 heartbeat IPC: 0.299352 cumulative IPC: 0.471912 (Simulation time: 1 hr 30 min 47 sec) 
Heartbeat CPU 0 instructions: 115000002 cycles: 164938514 heartbeat IPC: 0.299951 cumulative IPC: 0.467786 (Simulation time: 1 hr 31 min 15 sec) 
Heartbeat CPU 0 instructions: 116000000 cycles: 168882272 heartbeat IPC: 0.253565 cumulative IPC: 0.461874 (Simulation time: 1 hr 31 min 41 sec) 
Heartbeat CPU 0 instructions: 117000000 cycles: 172485581 heartbeat IPC: 0.277523 cumulative IPC: 0.457339 (Simulation time: 1 hr 32 min 6 sec) 
Heartbeat CPU 0 instructions: 118000000 cycles: 176088306 heartbeat IPC: 0.277568 cumulative IPC: 0.453024 (Simulation time: 1 hr 32 min 29 sec) 
Heartbeat CPU 0 instructions: 119000003 cycles: 179693880 heartbeat IPC: 0.277349 cumulative IPC: 0.448903 (Simulation time: 1 hr 32 min 51 sec) 
Heartbeat CPU 0 instructions: 120000000 cycles: 183291564 heartbeat IPC: 0.277956 cumulative IPC: 0.444994 (Simulation time: 1 hr 33 min 12 sec) 
Heartbeat CPU 0 instructions: 121000001 cycles: 186695793 heartbeat IPC: 0.293753 cumulative IPC: 0.44179 (Simulation time: 1 hr 33 min 31 sec) 
Heartbeat CPU 0 instructions: 122000001 cycles: 188651579 heartbeat IPC: 0.511303 cumulative IPC: 0.442626 (Simulation time: 1 hr 33 min 45 sec) 
Heartbeat CPU 0 instructions: 123000000 cycles: 190586237 heartbeat IPC: 0.516887 cumulative IPC: 0.443499 (Simulation time: 1 hr 33 min 57 sec) 
Heartbeat CPU 0 instructions: 124000000 cycles: 192528363 heartbeat IPC: 0.5149 cumulative IPC: 0.444331 (Simulation time: 1 hr 34 min 7 sec) 
Heartbeat CPU 0 instructions: 125000001 cycles: 194469277 heartbeat IPC: 0.515222 cumulative IPC: 0.445148 (Simulation time: 1 hr 34 min 15 sec) 
Heartbeat CPU 0 instructions: 126000001 cycles: 196854936 heartbeat IPC: 0.419171 cumulative IPC: 0.444785 (Simulation time: 1 hr 34 min 24 sec) 
Heartbeat CPU 0 instructions: 127000000 cycles: 198902502 heartbeat IPC: 0.488384 cumulative IPC: 0.445302 (Simulation time: 1 hr 34 min 33 sec) 
Heartbeat CPU 0 instructions: 128000000 cycles: 200858856 heartbeat IPC: 0.511155 cumulative IPC: 0.446038 (Simulation time: 1 hr 34 min 41 sec) 
Heartbeat CPU 0 instructions: 129000000 cycles: 202749191 heartbeat IPC: 0.529007 cumulative IPC: 0.446926 (Simulation time: 1 hr 34 min 49 sec) 
Heartbeat CPU 0 instructions: 130000003 cycles: 204679034 heartbeat IPC: 0.518178 cumulative IPC: 0.447695 (Simulation time: 1 hr 34 min 57 sec) 
Heartbeat CPU 0 instructions: 131000001 cycles: 206645622 heartbeat IPC: 0.508494 cumulative IPC: 0.448357 (Simulation time: 1 hr 35 min 4 sec) 
Heartbeat CPU 0 instructions: 132000000 cycles: 208591769 heartbeat IPC: 0.513835 cumulative IPC: 0.449055 (Simulation time: 1 hr 35 min 11 sec) 
Heartbeat CPU 0 instructions: 133000000 cycles: 209938079 heartbeat IPC: 0.742771 cumulative IPC: 0.451204 (Simulation time: 1 hr 35 min 18 sec) 
Heartbeat CPU 0 instructions: 134000003 cycles: 211288752 heartbeat IPC: 0.740374 cumulative IPC: 0.453312 (Simulation time: 1 hr 35 min 25 sec) 
Heartbeat CPU 0 instructions: 135000001 cycles: 212640767 heartbeat IPC: 0.739635 cumulative IPC: 0.455386 (Simulation time: 1 hr 35 min 31 sec) 
Heartbeat CPU 0 instructions: 136000000 cycles: 213991346 heartbeat IPC: 0.740422 cumulative IPC: 0.457434 (Simulation time: 1 hr 35 min 37 sec) 
Heartbeat CPU 0 instructions: 137000001 cycles: 215341523 heartbeat IPC: 0.740644 cumulative IPC: 0.459453 (Simulation time: 1 hr 35 min 44 sec) 
Heartbeat CPU 0 instructions: 138000000 cycles: 217336767 heartbeat IPC: 0.501191 cumulative IPC: 0.459888 (Simulation time: 1 hr 35 min 51 sec) 
Heartbeat CPU 0 instructions: 139000001 cycles: 218720227 heartbeat IPC: 0.722826 cumulative IPC: 0.461776 (Simulation time: 1 hr 35 min 57 sec) 
Heartbeat CPU 0 instructions: 140000000 cycles: 220089557 heartbeat IPC: 0.730283 cumulative IPC: 0.46367 (Simulation time: 1 hr 36 min 4 sec) 
Heartbeat CPU 0 instructions: 141000000 cycles: 221463610 heartbeat IPC: 0.727774 cumulative IPC: 0.465526 (Simulation time: 1 hr 36 min 10 sec) 
Heartbeat CPU 0 instructions: 142000002 cycles: 222828966 heartbeat IPC: 0.732411 cumulative IPC: 0.467378 (Simulation time: 1 hr 36 min 17 sec) 
Heartbeat CPU 0 instructions: 143000000 cycles: 224194009 heartbeat IPC: 0.732576 cumulative IPC: 0.469204 (Simulation time: 1 hr 36 min 23 sec) 
Heartbeat CPU 0 instructions: 144000000 cycles: 225597717 heartbeat IPC: 0.712399 cumulative IPC: 0.470914 (Simulation time: 1 hr 36 min 29 sec) 
Heartbeat CPU 0 instructions: 145000000 cycles: 227058041 heartbeat IPC: 0.68478 cumulative IPC: 0.472467 (Simulation time: 1 hr 36 min 35 sec) 
Heartbeat CPU 0 instructions: 146000001 cycles: 228535254 heartbeat IPC: 0.676951 cumulative IPC: 0.473959 (Simulation time: 1 hr 36 min 40 sec) 
Heartbeat CPU 0 instructions: 147000003 cycles: 230124778 heartbeat IPC: 0.62912 cumulative IPC: 0.475167 (Simulation time: 1 hr 36 min 46 sec) 
Heartbeat CPU 0 instructions: 148000000 cycles: 231732105 heartbeat IPC: 0.622149 cumulative IPC: 0.476315 (Simulation time: 1 hr 36 min 52 sec) 
Heartbeat CPU 0 instructions: 149000002 cycles: 233308585 heartbeat IPC: 0.634326 cumulative IPC: 0.477517 (Simulation time: 1 hr 36 min 58 sec) 
Heartbeat CPU 0 instructions: 150000003 cycles: 234913501 heartbeat IPC: 0.623086 cumulative IPC: 0.478635 (Simulation time: 1 hr 37 min 4 sec) 
Finished CPU 0 instructions: 100000000 cycles: 208927494 cummulative IPC: 0.478635 (Simulation time: 1 hr 37 min 4 sec) 

ChampSim completed all CPUs

Region of Interest Statistics

CPU 0 cummulative IPC: 0.478635 instructions: 100000000 cycles: 208927494
LLC TOTAL     ACCESS:   12337612  HIT:   10079076  MISS:    2258536
LLC LOAD      ACCESS:    4933142  HIT:    4185264  MISS:     747878
LLC RFO       ACCESS:         16  HIT:          0  MISS:         16
LLC PREFETCH  ACCESS:    6495400  HIT:    5049295  MISS:    1446105
LLC WRITEBACK ACCESS:     909054  HIT:     844517  MISS:      64537
OPTgen accesses: 111174
OPTgen hits: 174798
OPTgen hit rate: 157.229


