
*** ChampSim Multicore Out-of-Order Simulator ***

Warmup Instructions: 50000000
Simulation Instructions: 100000000
Configuration: 2
Number of CPUs: 1
LLC sets: 2048
LLC ways: 16
Off-chip DRAM Channels: 1 Width: 64-bit Data Rate: 1600 MT/s

CPU 0 runs /datasets/cs240c-wi22-a00-public/data/Assignment2-gz/soplex_66B.trace.gz
CPU 0 L1D next line prefetcher
CPU 0 L2C IP-based stride prefetcher
Initialize Hawkeye state
Heartbeat CPU 0 instructions: 1000003 cycles: 415058 heartbeat IPC: 2.40931 cumulative IPC: 2.40931 (Simulation time: 0 hr 0 min 41 sec) 
Heartbeat CPU 0 instructions: 2000003 cycles: 837409 heartbeat IPC: 2.3677 cumulative IPC: 2.38832 (Simulation time: 0 hr 1 min 27 sec) 
Heartbeat CPU 0 instructions: 3000003 cycles: 1242426 heartbeat IPC: 2.46903 cumulative IPC: 2.41463 (Simulation time: 0 hr 2 min 14 sec) 
Heartbeat CPU 0 instructions: 4000000 cycles: 1626538 heartbeat IPC: 2.6034 cumulative IPC: 2.45921 (Simulation time: 0 hr 3 min 0 sec) 
Heartbeat CPU 0 instructions: 5000000 cycles: 2038845 heartbeat IPC: 2.42538 cumulative IPC: 2.45237 (Simulation time: 0 hr 3 min 42 sec) 
Heartbeat CPU 0 instructions: 6000000 cycles: 2511000 heartbeat IPC: 2.11795 cumulative IPC: 2.38949 (Simulation time: 0 hr 4 min 25 sec) 
Heartbeat CPU 0 instructions: 7000002 cycles: 2883194 heartbeat IPC: 2.68678 cumulative IPC: 2.42786 (Simulation time: 0 hr 5 min 10 sec) 
Heartbeat CPU 0 instructions: 8000000 cycles: 3308579 heartbeat IPC: 2.35081 cumulative IPC: 2.41796 (Simulation time: 0 hr 6 min 1 sec) 
Heartbeat CPU 0 instructions: 9000001 cycles: 3747124 heartbeat IPC: 2.28027 cumulative IPC: 2.40184 (Simulation time: 0 hr 6 min 47 sec) 
Heartbeat CPU 0 instructions: 10000002 cycles: 4159258 heartbeat IPC: 2.4264 cumulative IPC: 2.40428 (Simulation time: 0 hr 7 min 32 sec) 
Heartbeat CPU 0 instructions: 11000001 cycles: 4570210 heartbeat IPC: 2.43337 cumulative IPC: 2.40689 (Simulation time: 0 hr 8 min 21 sec) 
Heartbeat CPU 0 instructions: 12000000 cycles: 4954148 heartbeat IPC: 2.60458 cumulative IPC: 2.42221 (Simulation time: 0 hr 8 min 57 sec) 
Heartbeat CPU 0 instructions: 13000003 cycles: 5353139 heartbeat IPC: 2.50633 cumulative IPC: 2.42848 (Simulation time: 0 hr 9 min 37 sec) 
Heartbeat CPU 0 instructions: 14000002 cycles: 5840857 heartbeat IPC: 2.05036 cumulative IPC: 2.39691 (Simulation time: 0 hr 10 min 12 sec) 
Heartbeat CPU 0 instructions: 15000003 cycles: 6215430 heartbeat IPC: 2.66971 cumulative IPC: 2.41335 (Simulation time: 0 hr 10 min 45 sec) 
Heartbeat CPU 0 instructions: 16000000 cycles: 6623436 heartbeat IPC: 2.45094 cumulative IPC: 2.41566 (Simulation time: 0 hr 11 min 24 sec) 
Heartbeat CPU 0 instructions: 17000001 cycles: 7077498 heartbeat IPC: 2.20234 cumulative IPC: 2.40198 (Simulation time: 0 hr 12 min 2 sec) 
Heartbeat CPU 0 instructions: 18000003 cycles: 7486564 heartbeat IPC: 2.4446 cumulative IPC: 2.40431 (Simulation time: 0 hr 12 min 36 sec) 
Heartbeat CPU 0 instructions: 19000002 cycles: 7904570 heartbeat IPC: 2.39231 cumulative IPC: 2.40367 (Simulation time: 0 hr 13 min 15 sec) 
Heartbeat CPU 0 instructions: 20000000 cycles: 8288539 heartbeat IPC: 2.60437 cumulative IPC: 2.41297 (Simulation time: 0 hr 13 min 48 sec) 
Heartbeat CPU 0 instructions: 21000000 cycles: 8683086 heartbeat IPC: 2.53455 cumulative IPC: 2.41849 (Simulation time: 0 hr 14 min 23 sec) 
Heartbeat CPU 0 instructions: 22000000 cycles: 9176849 heartbeat IPC: 2.02526 cumulative IPC: 2.39734 (Simulation time: 0 hr 14 min 58 sec) 
Heartbeat CPU 0 instructions: 23000002 cycles: 9550083 heartbeat IPC: 2.67929 cumulative IPC: 2.40836 (Simulation time: 0 hr 15 min 34 sec) 
Heartbeat CPU 0 instructions: 24000000 cycles: 9941436 heartbeat IPC: 2.55523 cumulative IPC: 2.41414 (Simulation time: 0 hr 16 min 11 sec) 
Heartbeat CPU 0 instructions: 25000003 cycles: 10419737 heartbeat IPC: 2.09074 cumulative IPC: 2.39929 (Simulation time: 0 hr 16 min 49 sec) 
Heartbeat CPU 0 instructions: 26000001 cycles: 10818617 heartbeat IPC: 2.50701 cumulative IPC: 2.40326 (Simulation time: 0 hr 17 min 25 sec) 
Heartbeat CPU 0 instructions: 27000002 cycles: 11236796 heartbeat IPC: 2.39132 cumulative IPC: 2.40282 (Simulation time: 0 hr 18 min 6 sec) 
Heartbeat CPU 0 instructions: 28000000 cycles: 11620984 heartbeat IPC: 2.60289 cumulative IPC: 2.40943 (Simulation time: 0 hr 18 min 39 sec) 
Heartbeat CPU 0 instructions: 29000000 cycles: 12010742 heartbeat IPC: 2.56569 cumulative IPC: 2.41451 (Simulation time: 0 hr 19 min 10 sec) 
Heartbeat CPU 0 instructions: 30000003 cycles: 12508775 heartbeat IPC: 2.00791 cumulative IPC: 2.39832 (Simulation time: 0 hr 19 min 42 sec) 
Heartbeat CPU 0 instructions: 31000001 cycles: 12880956 heartbeat IPC: 2.68686 cumulative IPC: 2.40665 (Simulation time: 0 hr 20 min 15 sec) 
Heartbeat CPU 0 instructions: 32000000 cycles: 13261020 heartbeat IPC: 2.63113 cumulative IPC: 2.41309 (Simulation time: 0 hr 20 min 50 sec) 
Heartbeat CPU 0 instructions: 33000002 cycles: 13684077 heartbeat IPC: 2.36375 cumulative IPC: 2.41156 (Simulation time: 0 hr 21 min 28 sec) 
Heartbeat CPU 0 instructions: 34000003 cycles: 14095682 heartbeat IPC: 2.42952 cumulative IPC: 2.41209 (Simulation time: 0 hr 22 min 4 sec) 
Heartbeat CPU 0 instructions: 35000003 cycles: 14506362 heartbeat IPC: 2.43499 cumulative IPC: 2.41273 (Simulation time: 0 hr 22 min 44 sec) 
Heartbeat CPU 0 instructions: 36000000 cycles: 14890117 heartbeat IPC: 2.60582 cumulative IPC: 2.41771 (Simulation time: 0 hr 23 min 17 sec) 
Heartbeat CPU 0 instructions: 37000000 cycles: 15288711 heartbeat IPC: 2.50882 cumulative IPC: 2.42009 (Simulation time: 0 hr 23 min 50 sec) 
Heartbeat CPU 0 instructions: 38000000 cycles: 15775801 heartbeat IPC: 2.05301 cumulative IPC: 2.40875 (Simulation time: 0 hr 24 min 25 sec) 
Heartbeat CPU 0 instructions: 39000002 cycles: 16147511 heartbeat IPC: 2.69027 cumulative IPC: 2.41523 (Simulation time: 0 hr 25 min 4 sec) 
Heartbeat CPU 0 instructions: 40000000 cycles: 16556658 heartbeat IPC: 2.4441 cumulative IPC: 2.41595 (Simulation time: 0 hr 25 min 41 sec) 
Heartbeat CPU 0 instructions: 41000001 cycles: 17011125 heartbeat IPC: 2.20038 cumulative IPC: 2.41019 (Simulation time: 0 hr 26 min 15 sec) 
Heartbeat CPU 0 instructions: 42000003 cycles: 17420185 heartbeat IPC: 2.44463 cumulative IPC: 2.411 (Simulation time: 0 hr 26 min 49 sec) 
Heartbeat CPU 0 instructions: 43000000 cycles: 17838689 heartbeat IPC: 2.38946 cumulative IPC: 2.41049 (Simulation time: 0 hr 27 min 27 sec) 
Heartbeat CPU 0 instructions: 44000000 cycles: 18222405 heartbeat IPC: 2.60609 cumulative IPC: 2.41461 (Simulation time: 0 hr 27 min 56 sec) 
Heartbeat CPU 0 instructions: 45000003 cycles: 18616064 heartbeat IPC: 2.54028 cumulative IPC: 2.41727 (Simulation time: 0 hr 28 min 29 sec) 
Heartbeat CPU 0 instructions: 46000001 cycles: 19110558 heartbeat IPC: 2.02227 cumulative IPC: 2.40705 (Simulation time: 0 hr 29 min 4 sec) 
Heartbeat CPU 0 instructions: 47000001 cycles: 19484850 heartbeat IPC: 2.67171 cumulative IPC: 2.41213 (Simulation time: 0 hr 29 min 41 sec) 
Heartbeat CPU 0 instructions: 48000000 cycles: 19875013 heartbeat IPC: 2.56303 cumulative IPC: 2.41509 (Simulation time: 0 hr 30 min 19 sec) 
Heartbeat CPU 0 instructions: 49000000 cycles: 20530843 heartbeat IPC: 1.52479 cumulative IPC: 2.38665 (Simulation time: 0 hr 31 min 4 sec) 
Heartbeat CPU 0 instructions: 50000003 cycles: 21055986 heartbeat IPC: 1.90425 cumulative IPC: 2.37462 (Simulation time: 0 hr 31 min 50 sec) 

Warmup complete CPU 0 instructions: 50000003 cycles: 21055986 (Simulation time: 0 hr 31 min 50 sec) 

Heartbeat CPU 0 instructions: 51000002 cycles: 23550038 heartbeat IPC: 0.400954 cumulative IPC: 0.400954 (Simulation time: 0 hr 32 min 46 sec) 
Heartbeat CPU 0 instructions: 52000000 cycles: 27293539 heartbeat IPC: 0.267129 cumulative IPC: 0.320638 (Simulation time: 0 hr 33 min 38 sec) 
Heartbeat CPU 0 instructions: 53000003 cycles: 29934326 heartbeat IPC: 0.378676 cumulative IPC: 0.337901 (Simulation time: 0 hr 34 min 30 sec) 
Heartbeat CPU 0 instructions: 54000000 cycles: 32379824 heartbeat IPC: 0.408913 cumulative IPC: 0.353237 (Simulation time: 0 hr 35 min 19 sec) 
Heartbeat CPU 0 instructions: 55000002 cycles: 35783601 heartbeat IPC: 0.293792 cumulative IPC: 0.339498 (Simulation time: 0 hr 36 min 5 sec) 
Heartbeat CPU 0 instructions: 56000000 cycles: 39006039 heartbeat IPC: 0.310323 cumulative IPC: 0.334261 (Simulation time: 0 hr 36 min 51 sec) 
Heartbeat CPU 0 instructions: 57000003 cycles: 41546326 heartbeat IPC: 0.393657 cumulative IPC: 0.341624 (Simulation time: 0 hr 37 min 34 sec) 
Heartbeat CPU 0 instructions: 58000002 cycles: 43732317 heartbeat IPC: 0.457458 cumulative IPC: 0.352791 (Simulation time: 0 hr 38 min 23 sec) 
Heartbeat CPU 0 instructions: 59000002 cycles: 45273472 heartbeat IPC: 0.648864 cumulative IPC: 0.371632 (Simulation time: 0 hr 39 min 3 sec) 
Heartbeat CPU 0 instructions: 60000000 cycles: 46807519 heartbeat IPC: 0.651869 cumulative IPC: 0.388326 (Simulation time: 0 hr 39 min 40 sec) 
Heartbeat CPU 0 instructions: 61000002 cycles: 49519018 heartbeat IPC: 0.3688 cumulative IPC: 0.386466 (Simulation time: 0 hr 40 min 25 sec) 
Heartbeat CPU 0 instructions: 62000000 cycles: 51932400 heartbeat IPC: 0.414355 cumulative IPC: 0.388646 (Simulation time: 0 hr 41 min 5 sec) 
Heartbeat CPU 0 instructions: 63000002 cycles: 53849990 heartbeat IPC: 0.521489 cumulative IPC: 0.396414 (Simulation time: 0 hr 41 min 48 sec) 
Heartbeat CPU 0 instructions: 64000000 cycles: 56282798 heartbeat IPC: 0.411047 cumulative IPC: 0.397424 (Simulation time: 0 hr 42 min 23 sec) 
Heartbeat CPU 0 instructions: 65000000 cycles: 59547106 heartbeat IPC: 0.306344 cumulative IPC: 0.3897 (Simulation time: 0 hr 43 min 4 sec) 
Heartbeat CPU 0 instructions: 66000001 cycles: 60764483 heartbeat IPC: 0.821439 cumulative IPC: 0.402936 (Simulation time: 0 hr 43 min 32 sec) 
Heartbeat CPU 0 instructions: 67000000 cycles: 62022671 heartbeat IPC: 0.794793 cumulative IPC: 0.414971 (Simulation time: 0 hr 43 min 57 sec) 
Heartbeat CPU 0 instructions: 68000000 cycles: 65398828 heartbeat IPC: 0.296195 cumulative IPC: 0.405928 (Simulation time: 0 hr 44 min 36 sec) 
Heartbeat CPU 0 instructions: 69000000 cycles: 68058055 heartbeat IPC: 0.376049 cumulative IPC: 0.404237 (Simulation time: 0 hr 45 min 6 sec) 
Heartbeat CPU 0 instructions: 70000001 cycles: 70696569 heartbeat IPC: 0.379002 cumulative IPC: 0.402896 (Simulation time: 0 hr 45 min 36 sec) 
Heartbeat CPU 0 instructions: 71000000 cycles: 73176668 heartbeat IPC: 0.403209 cumulative IPC: 0.402911 (Simulation time: 0 hr 46 min 16 sec) 
Heartbeat CPU 0 instructions: 72000000 cycles: 75996309 heartbeat IPC: 0.354655 cumulative IPC: 0.400434 (Simulation time: 0 hr 46 min 55 sec) 
Heartbeat CPU 0 instructions: 73000001 cycles: 78755811 heartbeat IPC: 0.362385 cumulative IPC: 0.398615 (Simulation time: 0 hr 47 min 37 sec) 
Heartbeat CPU 0 instructions: 74000000 cycles: 80630883 heartbeat IPC: 0.533312 cumulative IPC: 0.402854 (Simulation time: 0 hr 48 min 2 sec) 
Heartbeat CPU 0 instructions: 75000002 cycles: 81853391 heartbeat IPC: 0.817992 cumulative IPC: 0.411202 (Simulation time: 0 hr 48 min 26 sec) 
Heartbeat CPU 0 instructions: 76000000 cycles: 85361886 heartbeat IPC: 0.285022 cumulative IPC: 0.404317 (Simulation time: 0 hr 49 min 6 sec) 
Heartbeat CPU 0 instructions: 77000000 cycles: 87818985 heartbeat IPC: 0.406984 cumulative IPC: 0.404416 (Simulation time: 0 hr 49 min 36 sec) 
Heartbeat CPU 0 instructions: 78000003 cycles: 90400725 heartbeat IPC: 0.387337 cumulative IPC: 0.40378 (Simulation time: 0 hr 50 min 4 sec) 
Heartbeat CPU 0 instructions: 79000001 cycles: 93717623 heartbeat IPC: 0.301486 cumulative IPC: 0.39911 (Simulation time: 0 hr 50 min 45 sec) 
Heartbeat CPU 0 instructions: 80000000 cycles: 96164577 heartbeat IPC: 0.408671 cumulative IPC: 0.399422 (Simulation time: 0 hr 51 min 20 sec) 
Heartbeat CPU 0 instructions: 81000003 cycles: 99111411 heartbeat IPC: 0.339348 cumulative IPC: 0.397154 (Simulation time: 0 hr 52 min 1 sec) 
Heartbeat CPU 0 instructions: 82000000 cycles: 100740332 heartbeat IPC: 0.613901 cumulative IPC: 0.401584 (Simulation time: 0 hr 52 min 30 sec) 
Heartbeat CPU 0 instructions: 83000001 cycles: 102017055 heartbeat IPC: 0.783256 cumulative IPC: 0.407603 (Simulation time: 0 hr 52 min 56 sec) 
Heartbeat CPU 0 instructions: 84000000 cycles: 105343576 heartbeat IPC: 0.300614 cumulative IPC: 0.403381 (Simulation time: 0 hr 53 min 37 sec) 
Heartbeat CPU 0 instructions: 85000000 cycles: 107799217 heartbeat IPC: 0.407226 cumulative IPC: 0.40349 (Simulation time: 0 hr 54 min 6 sec) 
Heartbeat CPU 0 instructions: 86000000 cycles: 110519545 heartbeat IPC: 0.367603 cumulative IPC: 0.402398 (Simulation time: 0 hr 54 min 37 sec) 
Heartbeat CPU 0 instructions: 87000000 cycles: 113616184 heartbeat IPC: 0.322931 cumulative IPC: 0.39974 (Simulation time: 0 hr 55 min 18 sec) 
Heartbeat CPU 0 instructions: 88000000 cycles: 115756010 heartbeat IPC: 0.467328 cumulative IPC: 0.401267 (Simulation time: 0 hr 55 min 52 sec) 
Heartbeat CPU 0 instructions: 89000001 cycles: 119021715 heartbeat IPC: 0.306213 cumulative IPC: 0.398098 (Simulation time: 0 hr 56 min 34 sec) 
Heartbeat CPU 0 instructions: 90000002 cycles: 120229672 heartbeat IPC: 0.827845 cumulative IPC: 0.403333 (Simulation time: 0 hr 56 min 59 sec) 
Heartbeat CPU 0 instructions: 91000000 cycles: 121555450 heartbeat IPC: 0.754273 cumulative IPC: 0.407962 (Simulation time: 0 hr 57 min 25 sec) 
Heartbeat CPU 0 instructions: 92000000 cycles: 125154904 heartbeat IPC: 0.27782 cumulative IPC: 0.403462 (Simulation time: 0 hr 58 min 5 sec) 
Heartbeat CPU 0 instructions: 93000000 cycles: 127835090 heartbeat IPC: 0.373108 cumulative IPC: 0.4027 (Simulation time: 0 hr 58 min 35 sec) 
Heartbeat CPU 0 instructions: 94000001 cycles: 130485994 heartbeat IPC: 0.37723 cumulative IPC: 0.402083 (Simulation time: 0 hr 59 min 4 sec) 
Heartbeat CPU 0 instructions: 95000003 cycles: 133634426 heartbeat IPC: 0.317619 cumulative IPC: 0.399721 (Simulation time: 0 hr 59 min 48 sec) 
Heartbeat CPU 0 instructions: 96000000 cycles: 135492316 heartbeat IPC: 0.538243 cumulative IPC: 0.40197 (Simulation time: 1 hr 0 min 23 sec) 
Heartbeat CPU 0 instructions: 97000003 cycles: 138623832 heartbeat IPC: 0.319335 cumulative IPC: 0.399769 (Simulation time: 1 hr 1 min 0 sec) 
Heartbeat CPU 0 instructions: 98000003 cycles: 139861441 heartbeat IPC: 0.80801 cumulative IPC: 0.404022 (Simulation time: 1 hr 1 min 24 sec) 
Heartbeat CPU 0 instructions: 99000000 cycles: 142287015 heartbeat IPC: 0.412272 cumulative IPC: 0.404187 (Simulation time: 1 hr 1 min 55 sec) 
Heartbeat CPU 0 instructions: 100000000 cycles: 145109119 heartbeat IPC: 0.354346 cumulative IPC: 0.403053 (Simulation time: 1 hr 2 min 30 sec) 
Heartbeat CPU 0 instructions: 101000001 cycles: 147692736 heartbeat IPC: 0.387055 cumulative IPC: 0.402727 (Simulation time: 1 hr 3 min 2 sec) 
Heartbeat CPU 0 instructions: 102000000 cycles: 150520148 heartbeat IPC: 0.35368 cumulative IPC: 0.401656 (Simulation time: 1 hr 3 min 37 sec) 
Heartbeat CPU 0 instructions: 103000002 cycles: 153637806 heartbeat IPC: 0.320754 cumulative IPC: 0.399753 (Simulation time: 1 hr 4 min 19 sec) 
Heartbeat CPU 0 instructions: 104000000 cycles: 155821458 heartbeat IPC: 0.457948 cumulative IPC: 0.400696 (Simulation time: 1 hr 5 min 0 sec) 
Heartbeat CPU 0 instructions: 105000000 cycles: 158136883 heartbeat IPC: 0.431886 cumulative IPC: 0.401223 (Simulation time: 1 hr 5 min 32 sec) 
Heartbeat CPU 0 instructions: 106000001 cycles: 159354122 heartbeat IPC: 0.821532 cumulative IPC: 0.404922 (Simulation time: 1 hr 5 min 57 sec) 
Heartbeat CPU 0 instructions: 107000001 cycles: 162353964 heartbeat IPC: 0.333351 cumulative IPC: 0.403403 (Simulation time: 1 hr 6 min 34 sec) 
Heartbeat CPU 0 instructions: 108000000 cycles: 164714954 heartbeat IPC: 0.423551 cumulative IPC: 0.403734 (Simulation time: 1 hr 7 min 4 sec) 
Heartbeat CPU 0 instructions: 109000003 cycles: 167410219 heartbeat IPC: 0.371022 cumulative IPC: 0.403131 (Simulation time: 1 hr 7 min 33 sec) 
Heartbeat CPU 0 instructions: 110000001 cycles: 170677276 heartbeat IPC: 0.306085 cumulative IPC: 0.401012 (Simulation time: 1 hr 8 min 15 sec) 
Heartbeat CPU 0 instructions: 111000001 cycles: 172673589 heartbeat IPC: 0.500923 cumulative IPC: 0.402328 (Simulation time: 1 hr 8 min 48 sec) 
Heartbeat CPU 0 instructions: 112000000 cycles: 174682145 heartbeat IPC: 0.49787 cumulative IPC: 0.403577 (Simulation time: 1 hr 9 min 29 sec) 
Heartbeat CPU 0 instructions: 113000000 cycles: 177334718 heartbeat IPC: 0.376992 cumulative IPC: 0.403126 (Simulation time: 1 hr 10 min 4 sec) 
Heartbeat CPU 0 instructions: 114000000 cycles: 178580825 heartbeat IPC: 0.802499 cumulative IPC: 0.406285 (Simulation time: 1 hr 10 min 30 sec) 
Heartbeat CPU 0 instructions: 115000003 cycles: 181685695 heartbeat IPC: 0.322076 cumulative IPC: 0.404657 (Simulation time: 1 hr 11 min 7 sec) 
Heartbeat CPU 0 instructions: 116000000 cycles: 184118364 heartbeat IPC: 0.41107 cumulative IPC: 0.404753 (Simulation time: 1 hr 11 min 38 sec) 
Heartbeat CPU 0 instructions: 117000000 cycles: 186834148 heartbeat IPC: 0.368218 cumulative IPC: 0.404155 (Simulation time: 1 hr 12 min 5 sec) 
Heartbeat CPU 0 instructions: 118000003 cycles: 190096747 heartbeat IPC: 0.306505 cumulative IPC: 0.40227 (Simulation time: 1 hr 12 min 44 sec) 
Heartbeat CPU 0 instructions: 119000002 cycles: 191978038 heartbeat IPC: 0.531549 cumulative IPC: 0.403693 (Simulation time: 1 hr 13 min 15 sec) 
Heartbeat CPU 0 instructions: 120000000 cycles: 193929892 heartbeat IPC: 0.512332 cumulative IPC: 0.404919 (Simulation time: 1 hr 13 min 48 sec) 
Heartbeat CPU 0 instructions: 121000000 cycles: 196732569 heartbeat IPC: 0.356802 cumulative IPC: 0.404152 (Simulation time: 1 hr 14 min 20 sec) 
Heartbeat CPU 0 instructions: 122000000 cycles: 197943453 heartbeat IPC: 0.825843 cumulative IPC: 0.407038 (Simulation time: 1 hr 14 min 42 sec) 
Heartbeat CPU 0 instructions: 123000000 cycles: 200612212 heartbeat IPC: 0.374706 cumulative IPC: 0.406558 (Simulation time: 1 hr 15 min 13 sec) 
Heartbeat CPU 0 instructions: 124000000 cycles: 203205107 heartbeat IPC: 0.385669 cumulative IPC: 0.406261 (Simulation time: 1 hr 15 min 44 sec) 
Heartbeat CPU 0 instructions: 125000001 cycles: 205821031 heartbeat IPC: 0.382274 cumulative IPC: 0.405921 (Simulation time: 1 hr 16 min 12 sec) 
Heartbeat CPU 0 instructions: 126000000 cycles: 208751368 heartbeat IPC: 0.341257 cumulative IPC: 0.404911 (Simulation time: 1 hr 16 min 44 sec) 
Heartbeat CPU 0 instructions: 127000002 cycles: 211721806 heartbeat IPC: 0.336651 cumulative IPC: 0.403848 (Simulation time: 1 hr 17 min 17 sec) 
Heartbeat CPU 0 instructions: 128000000 cycles: 214075746 heartbeat IPC: 0.424819 cumulative IPC: 0.404104 (Simulation time: 1 hr 17 min 49 sec) 
Heartbeat CPU 0 instructions: 129000000 cycles: 216204276 heartbeat IPC: 0.469808 cumulative IPC: 0.40482 (Simulation time: 1 hr 18 min 13 sec) 
Heartbeat CPU 0 instructions: 130000000 cycles: 217442592 heartbeat IPC: 0.807548 cumulative IPC: 0.40736 (Simulation time: 1 hr 18 min 33 sec) 
Heartbeat CPU 0 instructions: 131000000 cycles: 220689162 heartbeat IPC: 0.308017 cumulative IPC: 0.405744 (Simulation time: 1 hr 19 min 3 sec) 
Heartbeat CPU 0 instructions: 132000000 cycles: 223153725 heartbeat IPC: 0.405751 cumulative IPC: 0.405744 (Simulation time: 1 hr 19 min 27 sec) 
Heartbeat CPU 0 instructions: 133000000 cycles: 225824013 heartbeat IPC: 0.374491 cumulative IPC: 0.405337 (Simulation time: 1 hr 19 min 48 sec) 
Heartbeat CPU 0 instructions: 134000001 cycles: 229233867 heartbeat IPC: 0.293268 cumulative IPC: 0.403501 (Simulation time: 1 hr 20 min 20 sec) 
Heartbeat CPU 0 instructions: 135000003 cycles: 231159691 heartbeat IPC: 0.519259 cumulative IPC: 0.404562 (Simulation time: 1 hr 20 min 43 sec) 
Heartbeat CPU 0 instructions: 136000000 cycles: 233142568 heartbeat IPC: 0.504316 cumulative IPC: 0.405495 (Simulation time: 1 hr 21 min 7 sec) 
Heartbeat CPU 0 instructions: 137000000 cycles: 235820638 heartbeat IPC: 0.373403 cumulative IPC: 0.405095 (Simulation time: 1 hr 21 min 31 sec) 
Heartbeat CPU 0 instructions: 138000000 cycles: 237027963 heartbeat IPC: 0.828277 cumulative IPC: 0.40746 (Simulation time: 1 hr 21 min 47 sec) 
Heartbeat CPU 0 instructions: 139000001 cycles: 239827009 heartbeat IPC: 0.357265 cumulative IPC: 0.406818 (Simulation time: 1 hr 22 min 13 sec) 
Heartbeat CPU 0 instructions: 140000000 cycles: 242263007 heartbeat IPC: 0.410509 cumulative IPC: 0.406859 (Simulation time: 1 hr 22 min 38 sec) 
Heartbeat CPU 0 instructions: 141000003 cycles: 244931208 heartbeat IPC: 0.374785 cumulative IPC: 0.406476 (Simulation time: 1 hr 23 min 2 sec) 
Heartbeat CPU 0 instructions: 142000001 cycles: 248124540 heartbeat IPC: 0.313152 cumulative IPC: 0.405164 (Simulation time: 1 hr 23 min 33 sec) 
Heartbeat CPU 0 instructions: 143000001 cycles: 252690006 heartbeat IPC: 0.219036 cumulative IPC: 0.401495 (Simulation time: 1 hr 24 min 7 sec) 
Heartbeat CPU 0 instructions: 144000000 cycles: 256293342 heartbeat IPC: 0.27752 cumulative IPC: 0.399596 (Simulation time: 1 hr 24 min 42 sec) 
Heartbeat CPU 0 instructions: 145000001 cycles: 259192419 heartbeat IPC: 0.344938 cumulative IPC: 0.398931 (Simulation time: 1 hr 25 min 16 sec) 
Heartbeat CPU 0 instructions: 146000000 cycles: 263045815 heartbeat IPC: 0.259511 cumulative IPC: 0.396711 (Simulation time: 1 hr 25 min 47 sec) 
Heartbeat CPU 0 instructions: 147000000 cycles: 265621467 heartbeat IPC: 0.388251 cumulative IPC: 0.396622 (Simulation time: 1 hr 26 min 16 sec) 
Heartbeat CPU 0 instructions: 148000000 cycles: 268722964 heartbeat IPC: 0.322425 cumulative IPC: 0.395693 (Simulation time: 1 hr 26 min 44 sec) 
Heartbeat CPU 0 instructions: 149000000 cycles: 271886829 heartbeat IPC: 0.316069 cumulative IPC: 0.394688 (Simulation time: 1 hr 27 min 8 sec) 
Heartbeat CPU 0 instructions: 150000001 cycles: 274748402 heartbeat IPC: 0.349458 cumulative IPC: 0.394178 (Simulation time: 1 hr 27 min 33 sec) 
Finished CPU 0 instructions: 100000001 cycles: 253692420 cummulative IPC: 0.394178 (Simulation time: 1 hr 27 min 33 sec) 

ChampSim completed all CPUs

Region of Interest Statistics

CPU 0 cummulative IPC: 0.394178 instructions: 100000001 cycles: 253692420
LLC TOTAL     ACCESS:    6713107  HIT:    3338424  MISS:    3374683
LLC LOAD      ACCESS:    1678943  HIT:     721068  MISS:     957875
LLC RFO       ACCESS:     736914  HIT:     260591  MISS:     476323
LLC PREFETCH  ACCESS:    2657089  HIT:    1142173  MISS:    1514916
LLC WRITEBACK ACCESS:    1640161  HIT:    1214592  MISS:     425569
OPTgen accesses: 52970
OPTgen hits: 37883
OPTgen hit rate: 71.5178


