
*** ChampSim Multicore Out-of-Order Simulator ***

Warmup Instructions: 50000000
Simulation Instructions: 100000000
Configuration: 2
Number of CPUs: 1
LLC sets: 2048
LLC ways: 16
Off-chip DRAM Channels: 1 Width: 64-bit Data Rate: 1600 MT/s

CPU 0 runs /datasets/cs240c-wi22-a00-public/data/Assignment2-gz/perlbench_135B.trace.gz
CPU 0 L1D next line prefetcher
CPU 0 L2C IP-based stride prefetcher
Initialize Hawkeye state
Heartbeat CPU 0 instructions: 1000000 cycles: 600033 heartbeat IPC: 1.66657 cumulative IPC: 1.66657 (Simulation time: 0 hr 0 min 43 sec) 
Heartbeat CPU 0 instructions: 2000000 cycles: 1209301 heartbeat IPC: 1.64131 cumulative IPC: 1.65385 (Simulation time: 0 hr 1 min 27 sec) 
Heartbeat CPU 0 instructions: 3000000 cycles: 1832834 heartbeat IPC: 1.60376 cumulative IPC: 1.63681 (Simulation time: 0 hr 2 min 14 sec) 
Heartbeat CPU 0 instructions: 4000000 cycles: 2492639 heartbeat IPC: 1.5156 cumulative IPC: 1.60473 (Simulation time: 0 hr 3 min 1 sec) 
Heartbeat CPU 0 instructions: 5000001 cycles: 3079302 heartbeat IPC: 1.70456 cumulative IPC: 1.62374 (Simulation time: 0 hr 3 min 42 sec) 
Heartbeat CPU 0 instructions: 6000002 cycles: 3681731 heartbeat IPC: 1.65995 cumulative IPC: 1.62967 (Simulation time: 0 hr 4 min 25 sec) 
Heartbeat CPU 0 instructions: 7000001 cycles: 4282509 heartbeat IPC: 1.66451 cumulative IPC: 1.63456 (Simulation time: 0 hr 5 min 8 sec) 
Heartbeat CPU 0 instructions: 8000000 cycles: 4893000 heartbeat IPC: 1.63802 cumulative IPC: 1.63499 (Simulation time: 0 hr 5 min 53 sec) 
Heartbeat CPU 0 instructions: 9000001 cycles: 5534129 heartbeat IPC: 1.55975 cumulative IPC: 1.62627 (Simulation time: 0 hr 6 min 37 sec) 
Heartbeat CPU 0 instructions: 10000000 cycles: 6192840 heartbeat IPC: 1.51811 cumulative IPC: 1.61477 (Simulation time: 0 hr 7 min 21 sec) 
Heartbeat CPU 0 instructions: 11000003 cycles: 6888953 heartbeat IPC: 1.43655 cumulative IPC: 1.59676 (Simulation time: 0 hr 8 min 7 sec) 
Heartbeat CPU 0 instructions: 12000000 cycles: 7505167 heartbeat IPC: 1.62281 cumulative IPC: 1.5989 (Simulation time: 0 hr 8 min 49 sec) 
Heartbeat CPU 0 instructions: 13000000 cycles: 8134120 heartbeat IPC: 1.58994 cumulative IPC: 1.59821 (Simulation time: 0 hr 9 min 33 sec) 
Heartbeat CPU 0 instructions: 14000002 cycles: 8774601 heartbeat IPC: 1.56133 cumulative IPC: 1.59551 (Simulation time: 0 hr 10 min 18 sec) 
Heartbeat CPU 0 instructions: 15000003 cycles: 9413475 heartbeat IPC: 1.56526 cumulative IPC: 1.59346 (Simulation time: 0 hr 11 min 4 sec) 
Heartbeat CPU 0 instructions: 16000000 cycles: 10053311 heartbeat IPC: 1.5629 cumulative IPC: 1.59152 (Simulation time: 0 hr 11 min 49 sec) 
Heartbeat CPU 0 instructions: 17000000 cycles: 10694467 heartbeat IPC: 1.55968 cumulative IPC: 1.58961 (Simulation time: 0 hr 12 min 34 sec) 
Heartbeat CPU 0 instructions: 18000000 cycles: 11335137 heartbeat IPC: 1.56087 cumulative IPC: 1.58798 (Simulation time: 0 hr 13 min 16 sec) 
Heartbeat CPU 0 instructions: 19000003 cycles: 11972217 heartbeat IPC: 1.56967 cumulative IPC: 1.58701 (Simulation time: 0 hr 14 min 2 sec) 
Heartbeat CPU 0 instructions: 20000000 cycles: 12611056 heartbeat IPC: 1.56533 cumulative IPC: 1.58591 (Simulation time: 0 hr 14 min 49 sec) 
Heartbeat CPU 0 instructions: 21000000 cycles: 13246420 heartbeat IPC: 1.5739 cumulative IPC: 1.58533 (Simulation time: 0 hr 15 min 34 sec) 
Heartbeat CPU 0 instructions: 22000002 cycles: 13885165 heartbeat IPC: 1.56557 cumulative IPC: 1.58442 (Simulation time: 0 hr 16 min 19 sec) 
Heartbeat CPU 0 instructions: 23000003 cycles: 14552678 heartbeat IPC: 1.4981 cumulative IPC: 1.58047 (Simulation time: 0 hr 17 min 5 sec) 
Heartbeat CPU 0 instructions: 24000000 cycles: 15116446 heartbeat IPC: 1.77377 cumulative IPC: 1.58767 (Simulation time: 0 hr 17 min 47 sec) 
Heartbeat CPU 0 instructions: 25000000 cycles: 15773351 heartbeat IPC: 1.52229 cumulative IPC: 1.58495 (Simulation time: 0 hr 18 min 32 sec) 
Heartbeat CPU 0 instructions: 26000001 cycles: 16389271 heartbeat IPC: 1.62359 cumulative IPC: 1.5864 (Simulation time: 0 hr 19 min 15 sec) 
Heartbeat CPU 0 instructions: 27000000 cycles: 17029497 heartbeat IPC: 1.56195 cumulative IPC: 1.58548 (Simulation time: 0 hr 20 min 0 sec) 
Heartbeat CPU 0 instructions: 28000000 cycles: 17670205 heartbeat IPC: 1.56077 cumulative IPC: 1.58459 (Simulation time: 0 hr 20 min 47 sec) 
Heartbeat CPU 0 instructions: 29000000 cycles: 18307735 heartbeat IPC: 1.56855 cumulative IPC: 1.58403 (Simulation time: 0 hr 21 min 32 sec) 
Heartbeat CPU 0 instructions: 30000002 cycles: 18953371 heartbeat IPC: 1.54886 cumulative IPC: 1.58283 (Simulation time: 0 hr 22 min 17 sec) 
Heartbeat CPU 0 instructions: 31000001 cycles: 19589981 heartbeat IPC: 1.57082 cumulative IPC: 1.58244 (Simulation time: 0 hr 23 min 3 sec) 
Heartbeat CPU 0 instructions: 32000000 cycles: 20230151 heartbeat IPC: 1.56208 cumulative IPC: 1.5818 (Simulation time: 0 hr 23 min 47 sec) 
Heartbeat CPU 0 instructions: 33000000 cycles: 20865472 heartbeat IPC: 1.57401 cumulative IPC: 1.58156 (Simulation time: 0 hr 24 min 31 sec) 
Heartbeat CPU 0 instructions: 34000001 cycles: 21501805 heartbeat IPC: 1.57151 cumulative IPC: 1.58126 (Simulation time: 0 hr 25 min 18 sec) 
Heartbeat CPU 0 instructions: 35000003 cycles: 22157555 heartbeat IPC: 1.52497 cumulative IPC: 1.5796 (Simulation time: 0 hr 26 min 3 sec) 
Heartbeat CPU 0 instructions: 36000000 cycles: 22756615 heartbeat IPC: 1.66928 cumulative IPC: 1.58196 (Simulation time: 0 hr 26 min 45 sec) 
Heartbeat CPU 0 instructions: 37000000 cycles: 23371590 heartbeat IPC: 1.62608 cumulative IPC: 1.58312 (Simulation time: 0 hr 27 min 29 sec) 
Heartbeat CPU 0 instructions: 38000002 cycles: 23943839 heartbeat IPC: 1.74749 cumulative IPC: 1.58705 (Simulation time: 0 hr 28 min 12 sec) 
Heartbeat CPU 0 instructions: 39000000 cycles: 24547821 heartbeat IPC: 1.65568 cumulative IPC: 1.58874 (Simulation time: 0 hr 28 min 57 sec) 
Heartbeat CPU 0 instructions: 40000000 cycles: 25099332 heartbeat IPC: 1.8132 cumulative IPC: 1.59367 (Simulation time: 0 hr 29 min 39 sec) 
Heartbeat CPU 0 instructions: 41000001 cycles: 25665877 heartbeat IPC: 1.76509 cumulative IPC: 1.59745 (Simulation time: 0 hr 30 min 21 sec) 
Heartbeat CPU 0 instructions: 42000003 cycles: 26303475 heartbeat IPC: 1.56839 cumulative IPC: 1.59675 (Simulation time: 0 hr 31 min 6 sec) 
Heartbeat CPU 0 instructions: 43000001 cycles: 26969568 heartbeat IPC: 1.50129 cumulative IPC: 1.59439 (Simulation time: 0 hr 31 min 51 sec) 
Heartbeat CPU 0 instructions: 44000000 cycles: 27581747 heartbeat IPC: 1.63351 cumulative IPC: 1.59526 (Simulation time: 0 hr 32 min 32 sec) 
Heartbeat CPU 0 instructions: 45000003 cycles: 28227626 heartbeat IPC: 1.54828 cumulative IPC: 1.59418 (Simulation time: 0 hr 33 min 18 sec) 
Heartbeat CPU 0 instructions: 46000000 cycles: 28867244 heartbeat IPC: 1.56343 cumulative IPC: 1.5935 (Simulation time: 0 hr 34 min 4 sec) 
Heartbeat CPU 0 instructions: 47000000 cycles: 29506366 heartbeat IPC: 1.56465 cumulative IPC: 1.59288 (Simulation time: 0 hr 34 min 48 sec) 
Heartbeat CPU 0 instructions: 48000000 cycles: 30146521 heartbeat IPC: 1.56212 cumulative IPC: 1.59222 (Simulation time: 0 hr 35 min 33 sec) 
Heartbeat CPU 0 instructions: 49000003 cycles: 30788449 heartbeat IPC: 1.55781 cumulative IPC: 1.59151 (Simulation time: 0 hr 36 min 18 sec) 
Heartbeat CPU 0 instructions: 50000001 cycles: 31428055 heartbeat IPC: 1.56346 cumulative IPC: 1.59094 (Simulation time: 0 hr 37 min 1 sec) 

Warmup complete CPU 0 instructions: 50000001 cycles: 31428055 (Simulation time: 0 hr 37 min 1 sec) 

Heartbeat CPU 0 instructions: 51000000 cycles: 34046825 heartbeat IPC: 0.381858 cumulative IPC: 0.381858 (Simulation time: 0 hr 37 min 52 sec) 
Heartbeat CPU 0 instructions: 52000000 cycles: 36657463 heartbeat IPC: 0.383048 cumulative IPC: 0.382452 (Simulation time: 0 hr 38 min 43 sec) 
Heartbeat CPU 0 instructions: 53000000 cycles: 39241656 heartbeat IPC: 0.386968 cumulative IPC: 0.383946 (Simulation time: 0 hr 39 min 32 sec) 
Heartbeat CPU 0 instructions: 54000001 cycles: 41881318 heartbeat IPC: 0.378837 cumulative IPC: 0.382656 (Simulation time: 0 hr 40 min 27 sec) 
Heartbeat CPU 0 instructions: 55000001 cycles: 44328397 heartbeat IPC: 0.40865 cumulative IPC: 0.387587 (Simulation time: 0 hr 41 min 23 sec) 
Heartbeat CPU 0 instructions: 56000000 cycles: 46452029 heartbeat IPC: 0.470891 cumulative IPC: 0.399362 (Simulation time: 0 hr 42 min 13 sec) 
Heartbeat CPU 0 instructions: 57000000 cycles: 48653743 heartbeat IPC: 0.454192 cumulative IPC: 0.40637 (Simulation time: 0 hr 43 min 10 sec) 
Heartbeat CPU 0 instructions: 58000002 cycles: 50601532 heartbeat IPC: 0.513404 cumulative IPC: 0.417243 (Simulation time: 0 hr 43 min 48 sec) 
Heartbeat CPU 0 instructions: 59000003 cycles: 52719262 heartbeat IPC: 0.472204 cumulative IPC: 0.42271 (Simulation time: 0 hr 44 min 32 sec) 
Heartbeat CPU 0 instructions: 60000000 cycles: 55766878 heartbeat IPC: 0.328124 cumulative IPC: 0.410866 (Simulation time: 0 hr 45 min 21 sec) 
Heartbeat CPU 0 instructions: 61000000 cycles: 58189400 heartbeat IPC: 0.412793 cumulative IPC: 0.411041 (Simulation time: 0 hr 46 min 5 sec) 
Heartbeat CPU 0 instructions: 62000001 cycles: 61029995 heartbeat IPC: 0.352039 cumulative IPC: 0.405379 (Simulation time: 0 hr 46 min 45 sec) 
Heartbeat CPU 0 instructions: 63000000 cycles: 64029066 heartbeat IPC: 0.333436 cumulative IPC: 0.398761 (Simulation time: 0 hr 47 min 28 sec) 
Heartbeat CPU 0 instructions: 64000000 cycles: 67032883 heartbeat IPC: 0.33291 cumulative IPC: 0.393205 (Simulation time: 0 hr 48 min 8 sec) 
Heartbeat CPU 0 instructions: 65000001 cycles: 69983440 heartbeat IPC: 0.338919 cumulative IPC: 0.389051 (Simulation time: 0 hr 48 min 54 sec) 
Heartbeat CPU 0 instructions: 66000001 cycles: 72886233 heartbeat IPC: 0.344496 cumulative IPC: 0.385931 (Simulation time: 0 hr 49 min 40 sec) 
Heartbeat CPU 0 instructions: 67000001 cycles: 75630293 heartbeat IPC: 0.364424 cumulative IPC: 0.384596 (Simulation time: 0 hr 50 min 20 sec) 
Heartbeat CPU 0 instructions: 68000000 cycles: 78365340 heartbeat IPC: 0.365624 cumulative IPC: 0.38349 (Simulation time: 0 hr 51 min 2 sec) 
Heartbeat CPU 0 instructions: 69000002 cycles: 81333618 heartbeat IPC: 0.336896 cumulative IPC: 0.380719 (Simulation time: 0 hr 51 min 49 sec) 
Heartbeat CPU 0 instructions: 70000003 cycles: 83146153 heartbeat IPC: 0.551714 cumulative IPC: 0.386712 (Simulation time: 0 hr 52 min 28 sec) 
Heartbeat CPU 0 instructions: 71000000 cycles: 85065898 heartbeat IPC: 0.520901 cumulative IPC: 0.391515 (Simulation time: 0 hr 53 min 8 sec) 
Heartbeat CPU 0 instructions: 72000000 cycles: 87056922 heartbeat IPC: 0.502254 cumulative IPC: 0.395478 (Simulation time: 0 hr 53 min 42 sec) 
Heartbeat CPU 0 instructions: 73000000 cycles: 89326194 heartbeat IPC: 0.44067 cumulative IPC: 0.397249 (Simulation time: 0 hr 54 min 23 sec) 
Heartbeat CPU 0 instructions: 74000000 cycles: 91244740 heartbeat IPC: 0.521228 cumulative IPC: 0.401226 (Simulation time: 0 hr 55 min 1 sec) 
Heartbeat CPU 0 instructions: 75000003 cycles: 93490589 heartbeat IPC: 0.445267 cumulative IPC: 0.40282 (Simulation time: 0 hr 55 min 46 sec) 
Heartbeat CPU 0 instructions: 76000000 cycles: 96244612 heartbeat IPC: 0.363104 cumulative IPC: 0.401132 (Simulation time: 0 hr 56 min 31 sec) 
Heartbeat CPU 0 instructions: 77000000 cycles: 98943914 heartbeat IPC: 0.370466 cumulative IPC: 0.399906 (Simulation time: 0 hr 57 min 13 sec) 
Heartbeat CPU 0 instructions: 78000000 cycles: 101906694 heartbeat IPC: 0.337521 cumulative IPC: 0.397283 (Simulation time: 0 hr 58 min 4 sec) 
Heartbeat CPU 0 instructions: 79000000 cycles: 103767132 heartbeat IPC: 0.537508 cumulative IPC: 0.40089 (Simulation time: 0 hr 58 min 43 sec) 
Heartbeat CPU 0 instructions: 80000000 cycles: 105554820 heartbeat IPC: 0.559382 cumulative IPC: 0.404712 (Simulation time: 0 hr 59 min 16 sec) 
Heartbeat CPU 0 instructions: 81000000 cycles: 107476216 heartbeat IPC: 0.520455 cumulative IPC: 0.407636 (Simulation time: 0 hr 59 min 49 sec) 
Heartbeat CPU 0 instructions: 82000000 cycles: 109393755 heartbeat IPC: 0.521502 cumulative IPC: 0.410437 (Simulation time: 1 hr 0 min 24 sec) 
Heartbeat CPU 0 instructions: 83000000 cycles: 111726822 heartbeat IPC: 0.42862 cumulative IPC: 0.410965 (Simulation time: 1 hr 1 min 3 sec) 
Heartbeat CPU 0 instructions: 84000000 cycles: 113679076 heartbeat IPC: 0.512228 cumulative IPC: 0.413369 (Simulation time: 1 hr 1 min 43 sec) 
Heartbeat CPU 0 instructions: 85000000 cycles: 115600091 heartbeat IPC: 0.520558 cumulative IPC: 0.415815 (Simulation time: 1 hr 2 min 16 sec) 
Heartbeat CPU 0 instructions: 86000002 cycles: 117518620 heartbeat IPC: 0.521234 cumulative IPC: 0.418164 (Simulation time: 1 hr 2 min 48 sec) 
Heartbeat CPU 0 instructions: 87000003 cycles: 119691099 heartbeat IPC: 0.460304 cumulative IPC: 0.419202 (Simulation time: 1 hr 3 min 21 sec) 
Heartbeat CPU 0 instructions: 88000000 cycles: 122480250 heartbeat IPC: 0.358531 cumulative IPC: 0.417343 (Simulation time: 1 hr 4 min 2 sec) 
Heartbeat CPU 0 instructions: 89000003 cycles: 125052598 heartbeat IPC: 0.388751 cumulative IPC: 0.416557 (Simulation time: 1 hr 4 min 50 sec) 
Heartbeat CPU 0 instructions: 90000001 cycles: 127939087 heartbeat IPC: 0.346441 cumulative IPC: 0.41446 (Simulation time: 1 hr 5 min 33 sec) 
Heartbeat CPU 0 instructions: 91000000 cycles: 130425072 heartbeat IPC: 0.402255 cumulative IPC: 0.414154 (Simulation time: 1 hr 6 min 8 sec) 
Heartbeat CPU 0 instructions: 92000000 cycles: 132885815 heartbeat IPC: 0.406381 cumulative IPC: 0.413965 (Simulation time: 1 hr 6 min 44 sec) 
Heartbeat CPU 0 instructions: 93000000 cycles: 135598123 heartbeat IPC: 0.36869 cumulative IPC: 0.412787 (Simulation time: 1 hr 7 min 22 sec) 
Heartbeat CPU 0 instructions: 94000001 cycles: 138255873 heartbeat IPC: 0.376258 cumulative IPC: 0.411878 (Simulation time: 1 hr 8 min 1 sec) 
Heartbeat CPU 0 instructions: 95000000 cycles: 141110441 heartbeat IPC: 0.350315 cumulative IPC: 0.410276 (Simulation time: 1 hr 8 min 43 sec) 
Heartbeat CPU 0 instructions: 96000000 cycles: 144204746 heartbeat IPC: 0.323174 cumulative IPC: 0.407886 (Simulation time: 1 hr 9 min 24 sec) 
Heartbeat CPU 0 instructions: 97000001 cycles: 147221879 heartbeat IPC: 0.331441 cumulative IPC: 0.405894 (Simulation time: 1 hr 10 min 11 sec) 
Heartbeat CPU 0 instructions: 98000000 cycles: 149890492 heartbeat IPC: 0.374726 cumulative IPC: 0.405192 (Simulation time: 1 hr 10 min 55 sec) 
Heartbeat CPU 0 instructions: 99000000 cycles: 152490726 heartbeat IPC: 0.384581 cumulative IPC: 0.404749 (Simulation time: 1 hr 11 min 37 sec) 
Heartbeat CPU 0 instructions: 100000000 cycles: 155116897 heartbeat IPC: 0.380783 cumulative IPC: 0.40424 (Simulation time: 1 hr 12 min 16 sec) 
Heartbeat CPU 0 instructions: 101000001 cycles: 157720034 heartbeat IPC: 0.384152 cumulative IPC: 0.403826 (Simulation time: 1 hr 12 min 54 sec) 
Heartbeat CPU 0 instructions: 102000000 cycles: 160355765 heartbeat IPC: 0.379401 cumulative IPC: 0.403327 (Simulation time: 1 hr 13 min 33 sec) 
Heartbeat CPU 0 instructions: 103000000 cycles: 163014545 heartbeat IPC: 0.376112 cumulative IPC: 0.402777 (Simulation time: 1 hr 14 min 16 sec) 
Heartbeat CPU 0 instructions: 104000000 cycles: 165735673 heartbeat IPC: 0.367495 cumulative IPC: 0.402062 (Simulation time: 1 hr 14 min 53 sec) 
Heartbeat CPU 0 instructions: 105000001 cycles: 168340663 heartbeat IPC: 0.383879 cumulative IPC: 0.401716 (Simulation time: 1 hr 15 min 27 sec) 
Heartbeat CPU 0 instructions: 106000001 cycles: 170959514 heartbeat IPC: 0.381847 cumulative IPC: 0.401343 (Simulation time: 1 hr 16 min 2 sec) 
Heartbeat CPU 0 instructions: 107000000 cycles: 173574314 heartbeat IPC: 0.382438 cumulative IPC: 0.400995 (Simulation time: 1 hr 16 min 36 sec) 
Heartbeat CPU 0 instructions: 108000000 cycles: 176185876 heartbeat IPC: 0.382913 cumulative IPC: 0.400669 (Simulation time: 1 hr 17 min 9 sec) 
Heartbeat CPU 0 instructions: 109000001 cycles: 178758868 heartbeat IPC: 0.388653 cumulative IPC: 0.400459 (Simulation time: 1 hr 17 min 45 sec) 
Heartbeat CPU 0 instructions: 110000003 cycles: 180923676 heartbeat IPC: 0.461936 cumulative IPC: 0.40135 (Simulation time: 1 hr 18 min 15 sec) 
Heartbeat CPU 0 instructions: 111000000 cycles: 183341249 heartbeat IPC: 0.413637 cumulative IPC: 0.401545 (Simulation time: 1 hr 18 min 45 sec) 
Heartbeat CPU 0 instructions: 112000000 cycles: 186160683 heartbeat IPC: 0.354681 cumulative IPC: 0.400691 (Simulation time: 1 hr 19 min 20 sec) 
Heartbeat CPU 0 instructions: 113000000 cycles: 188836997 heartbeat IPC: 0.373648 cumulative IPC: 0.400231 (Simulation time: 1 hr 19 min 50 sec) 
Heartbeat CPU 0 instructions: 114000002 cycles: 191406354 heartbeat IPC: 0.389203 cumulative IPC: 0.400054 (Simulation time: 1 hr 20 min 18 sec) 
Heartbeat CPU 0 instructions: 115000001 cycles: 194021899 heartbeat IPC: 0.382329 cumulative IPC: 0.399769 (Simulation time: 1 hr 20 min 46 sec) 
Heartbeat CPU 0 instructions: 116000000 cycles: 196609684 heartbeat IPC: 0.38643 cumulative IPC: 0.39956 (Simulation time: 1 hr 21 min 14 sec) 
Heartbeat CPU 0 instructions: 117000002 cycles: 199185437 heartbeat IPC: 0.388237 cumulative IPC: 0.399386 (Simulation time: 1 hr 21 min 40 sec) 
Heartbeat CPU 0 instructions: 118000001 cycles: 201690584 heartbeat IPC: 0.399178 cumulative IPC: 0.399383 (Simulation time: 1 hr 22 min 9 sec) 
Heartbeat CPU 0 instructions: 119000000 cycles: 203685927 heartbeat IPC: 0.501166 cumulative IPC: 0.400562 (Simulation time: 1 hr 22 min 37 sec) 
Heartbeat CPU 0 instructions: 120000000 cycles: 206535022 heartbeat IPC: 0.350989 cumulative IPC: 0.399756 (Simulation time: 1 hr 23 min 7 sec) 
Heartbeat CPU 0 instructions: 121000001 cycles: 209187886 heartbeat IPC: 0.376951 cumulative IPC: 0.399415 (Simulation time: 1 hr 23 min 38 sec) 
Heartbeat CPU 0 instructions: 122000002 cycles: 212043628 heartbeat IPC: 0.350172 cumulative IPC: 0.398637 (Simulation time: 1 hr 24 min 8 sec) 
Heartbeat CPU 0 instructions: 123000001 cycles: 214843752 heartbeat IPC: 0.357127 cumulative IPC: 0.398003 (Simulation time: 1 hr 24 min 38 sec) 
Heartbeat CPU 0 instructions: 124000000 cycles: 217388536 heartbeat IPC: 0.39296 cumulative IPC: 0.397934 (Simulation time: 1 hr 25 min 9 sec) 
Heartbeat CPU 0 instructions: 125000003 cycles: 219356271 heartbeat IPC: 0.5082 cumulative IPC: 0.399089 (Simulation time: 1 hr 25 min 34 sec) 
Heartbeat CPU 0 instructions: 126000000 cycles: 221278009 heartbeat IPC: 0.520361 cumulative IPC: 0.400316 (Simulation time: 1 hr 25 min 58 sec) 
Heartbeat CPU 0 instructions: 127000001 cycles: 223680402 heartbeat IPC: 0.416252 cumulative IPC: 0.400515 (Simulation time: 1 hr 26 min 24 sec) 
Heartbeat CPU 0 instructions: 128000000 cycles: 225669481 heartbeat IPC: 0.502745 cumulative IPC: 0.401562 (Simulation time: 1 hr 26 min 48 sec) 
Heartbeat CPU 0 instructions: 129000000 cycles: 227592260 heartbeat IPC: 0.520081 cumulative IPC: 0.402724 (Simulation time: 1 hr 27 min 12 sec) 
Heartbeat CPU 0 instructions: 130000001 cycles: 230362268 heartbeat IPC: 0.36101 cumulative IPC: 0.402143 (Simulation time: 1 hr 27 min 37 sec) 
Heartbeat CPU 0 instructions: 131000003 cycles: 233032202 heartbeat IPC: 0.374542 cumulative IPC: 0.401777 (Simulation time: 1 hr 28 min 3 sec) 
Heartbeat CPU 0 instructions: 132000000 cycles: 235751182 heartbeat IPC: 0.367784 cumulative IPC: 0.401325 (Simulation time: 1 hr 28 min 28 sec) 
Heartbeat CPU 0 instructions: 133000002 cycles: 238691060 heartbeat IPC: 0.340151 cumulative IPC: 0.400457 (Simulation time: 1 hr 28 min 51 sec) 
Heartbeat CPU 0 instructions: 134000000 cycles: 241727461 heartbeat IPC: 0.329337 cumulative IPC: 0.399431 (Simulation time: 1 hr 29 min 17 sec) 
Heartbeat CPU 0 instructions: 135000002 cycles: 244285305 heartbeat IPC: 0.390955 cumulative IPC: 0.399329 (Simulation time: 1 hr 29 min 42 sec) 
Heartbeat CPU 0 instructions: 136000000 cycles: 247134232 heartbeat IPC: 0.351009 cumulative IPC: 0.39869 (Simulation time: 1 hr 30 min 3 sec) 
Heartbeat CPU 0 instructions: 137000003 cycles: 249906205 heartbeat IPC: 0.360755 cumulative IPC: 0.398209 (Simulation time: 1 hr 30 min 25 sec) 
Heartbeat CPU 0 instructions: 138000000 cycles: 252636414 heartbeat IPC: 0.366271 cumulative IPC: 0.397815 (Simulation time: 1 hr 30 min 48 sec) 
Heartbeat CPU 0 instructions: 139000001 cycles: 254908174 heartbeat IPC: 0.440188 cumulative IPC: 0.398246 (Simulation time: 1 hr 31 min 8 sec) 
Heartbeat CPU 0 instructions: 140000000 cycles: 257545953 heartbeat IPC: 0.379106 cumulative IPC: 0.398022 (Simulation time: 1 hr 31 min 27 sec) 
Heartbeat CPU 0 instructions: 141000000 cycles: 260302439 heartbeat IPC: 0.362781 cumulative IPC: 0.397598 (Simulation time: 1 hr 31 min 44 sec) 
Heartbeat CPU 0 instructions: 142000000 cycles: 263057052 heartbeat IPC: 0.363027 cumulative IPC: 0.397187 (Simulation time: 1 hr 32 min 2 sec) 
Heartbeat CPU 0 instructions: 143000000 cycles: 265699976 heartbeat IPC: 0.378369 cumulative IPC: 0.396975 (Simulation time: 1 hr 32 min 19 sec) 
Heartbeat CPU 0 instructions: 144000000 cycles: 267898866 heartbeat IPC: 0.454775 cumulative IPC: 0.397512 (Simulation time: 1 hr 32 min 34 sec) 
Heartbeat CPU 0 instructions: 145000002 cycles: 270117402 heartbeat IPC: 0.450749 cumulative IPC: 0.398007 (Simulation time: 1 hr 32 min 49 sec) 
Heartbeat CPU 0 instructions: 146000001 cycles: 272130722 heartbeat IPC: 0.496692 cumulative IPC: 0.398832 (Simulation time: 1 hr 33 min 1 sec) 
Heartbeat CPU 0 instructions: 147000001 cycles: 274856793 heartbeat IPC: 0.366828 cumulative IPC: 0.398474 (Simulation time: 1 hr 33 min 15 sec) 
Heartbeat CPU 0 instructions: 148000000 cycles: 277438512 heartbeat IPC: 0.387338 cumulative IPC: 0.398357 (Simulation time: 1 hr 33 min 30 sec) 
Heartbeat CPU 0 instructions: 149000000 cycles: 280080692 heartbeat IPC: 0.378475 cumulative IPC: 0.398146 (Simulation time: 1 hr 33 min 42 sec) 
Heartbeat CPU 0 instructions: 150000001 cycles: 282823587 heartbeat IPC: 0.364579 cumulative IPC: 0.39778 (Simulation time: 1 hr 33 min 52 sec) 
Finished CPU 0 instructions: 100000000 cycles: 251395532 cummulative IPC: 0.39778 (Simulation time: 1 hr 33 min 52 sec) 

ChampSim completed all CPUs

Region of Interest Statistics

CPU 0 cummulative IPC: 0.39778 instructions: 100000000 cycles: 251395532
LLC TOTAL     ACCESS:     694190  HIT:     638175  MISS:      56015
LLC LOAD      ACCESS:     325711  HIT:     303314  MISS:      22397
LLC RFO       ACCESS:      31880  HIT:      26957  MISS:       4923
LLC PREFETCH  ACCESS:     223578  HIT:     195881  MISS:      27697
LLC WRITEBACK ACCESS:     113021  HIT:     112023  MISS:        998
OPTgen accesses: 8427
OPTgen hits: 9976
OPTgen hit rate: 118.381


