
*** ChampSim Multicore Out-of-Order Simulator ***

Warmup Instructions: 50000000
Simulation Instructions: 100000000
Configuration: 2
Number of CPUs: 1
LLC sets: 2048
LLC ways: 16
Off-chip DRAM Channels: 1 Width: 64-bit Data Rate: 1600 MT/s

CPU 0 runs /datasets/cs240c-wi22-a00-public/data/Assignment2-gz/lbm_94B.trace.gz
CPU 0 L1D next line prefetcher
CPU 0 L2C IP-based stride prefetcher
Initialize Hawkeye state
Heartbeat CPU 0 instructions: 1000000 cycles: 422068 heartbeat IPC: 2.36929 cumulative IPC: 2.36929 (Simulation time: 0 hr 0 min 38 sec) 
Heartbeat CPU 0 instructions: 2000000 cycles: 812399 heartbeat IPC: 2.56193 cumulative IPC: 2.46184 (Simulation time: 0 hr 1 min 12 sec) 
Heartbeat CPU 0 instructions: 3000000 cycles: 1211539 heartbeat IPC: 2.50539 cumulative IPC: 2.47619 (Simulation time: 0 hr 1 min 46 sec) 
Heartbeat CPU 0 instructions: 4000000 cycles: 1631527 heartbeat IPC: 2.38102 cumulative IPC: 2.45169 (Simulation time: 0 hr 2 min 25 sec) 
Heartbeat CPU 0 instructions: 5000001 cycles: 2021784 heartbeat IPC: 2.56242 cumulative IPC: 2.47306 (Simulation time: 0 hr 3 min 0 sec) 
Heartbeat CPU 0 instructions: 6000000 cycles: 2422462 heartbeat IPC: 2.49577 cumulative IPC: 2.47682 (Simulation time: 0 hr 3 min 37 sec) 
Heartbeat CPU 0 instructions: 7000001 cycles: 2840599 heartbeat IPC: 2.39156 cumulative IPC: 2.46427 (Simulation time: 0 hr 4 min 14 sec) 
Heartbeat CPU 0 instructions: 8000000 cycles: 3230810 heartbeat IPC: 2.56271 cumulative IPC: 2.47616 (Simulation time: 0 hr 4 min 47 sec) 
Heartbeat CPU 0 instructions: 9000003 cycles: 3631843 heartbeat IPC: 2.49357 cumulative IPC: 2.47808 (Simulation time: 0 hr 5 min 23 sec) 
Heartbeat CPU 0 instructions: 10000000 cycles: 4048420 heartbeat IPC: 2.40051 cumulative IPC: 2.4701 (Simulation time: 0 hr 6 min 0 sec) 
Heartbeat CPU 0 instructions: 11000003 cycles: 4438610 heartbeat IPC: 2.56286 cumulative IPC: 2.47825 (Simulation time: 0 hr 6 min 34 sec) 
Heartbeat CPU 0 instructions: 12000000 cycles: 4839163 heartbeat IPC: 2.49654 cumulative IPC: 2.47977 (Simulation time: 0 hr 7 min 10 sec) 
Heartbeat CPU 0 instructions: 13000000 cycles: 5254554 heartbeat IPC: 2.40737 cumulative IPC: 2.47404 (Simulation time: 0 hr 7 min 46 sec) 
Heartbeat CPU 0 instructions: 14000003 cycles: 5644801 heartbeat IPC: 2.56249 cumulative IPC: 2.48016 (Simulation time: 0 hr 8 min 21 sec) 
Heartbeat CPU 0 instructions: 15000001 cycles: 6045174 heartbeat IPC: 2.49767 cumulative IPC: 2.48132 (Simulation time: 0 hr 8 min 55 sec) 
Heartbeat CPU 0 instructions: 16000000 cycles: 6459567 heartbeat IPC: 2.41317 cumulative IPC: 2.47695 (Simulation time: 0 hr 9 min 32 sec) 
Heartbeat CPU 0 instructions: 17000001 cycles: 6849821 heartbeat IPC: 2.56244 cumulative IPC: 2.48182 (Simulation time: 0 hr 10 min 7 sec) 
Heartbeat CPU 0 instructions: 18000001 cycles: 7248681 heartbeat IPC: 2.50715 cumulative IPC: 2.48321 (Simulation time: 0 hr 10 min 42 sec) 
Heartbeat CPU 0 instructions: 19000000 cycles: 7663228 heartbeat IPC: 2.41227 cumulative IPC: 2.47937 (Simulation time: 0 hr 11 min 18 sec) 
Heartbeat CPU 0 instructions: 20000000 cycles: 8053500 heartbeat IPC: 2.56232 cumulative IPC: 2.48339 (Simulation time: 0 hr 11 min 54 sec) 
Heartbeat CPU 0 instructions: 21000003 cycles: 8451569 heartbeat IPC: 2.51213 cumulative IPC: 2.48475 (Simulation time: 0 hr 12 min 28 sec) 
Heartbeat CPU 0 instructions: 22000000 cycles: 8865735 heartbeat IPC: 2.41448 cumulative IPC: 2.48146 (Simulation time: 0 hr 13 min 3 sec) 
Heartbeat CPU 0 instructions: 23000000 cycles: 9255901 heartbeat IPC: 2.56301 cumulative IPC: 2.4849 (Simulation time: 0 hr 13 min 38 sec) 
Heartbeat CPU 0 instructions: 24000000 cycles: 9651969 heartbeat IPC: 2.52482 cumulative IPC: 2.48654 (Simulation time: 0 hr 14 min 13 sec) 
Heartbeat CPU 0 instructions: 25000000 cycles: 10065626 heartbeat IPC: 2.41746 cumulative IPC: 2.4837 (Simulation time: 0 hr 14 min 52 sec) 
Heartbeat CPU 0 instructions: 26000003 cycles: 10455880 heartbeat IPC: 2.56244 cumulative IPC: 2.48664 (Simulation time: 0 hr 15 min 28 sec) 
Heartbeat CPU 0 instructions: 27000002 cycles: 10850944 heartbeat IPC: 2.53123 cumulative IPC: 2.48826 (Simulation time: 0 hr 16 min 3 sec) 
Heartbeat CPU 0 instructions: 28000000 cycles: 11264384 heartbeat IPC: 2.41873 cumulative IPC: 2.48571 (Simulation time: 0 hr 16 min 39 sec) 
Heartbeat CPU 0 instructions: 29000000 cycles: 11654566 heartbeat IPC: 2.56291 cumulative IPC: 2.4883 (Simulation time: 0 hr 17 min 16 sec) 
Heartbeat CPU 0 instructions: 30000000 cycles: 12049602 heartbeat IPC: 2.53141 cumulative IPC: 2.48971 (Simulation time: 0 hr 17 min 54 sec) 
Heartbeat CPU 0 instructions: 31000003 cycles: 12460532 heartbeat IPC: 2.43351 cumulative IPC: 2.48786 (Simulation time: 0 hr 18 min 31 sec) 
Heartbeat CPU 0 instructions: 32000000 cycles: 12850814 heartbeat IPC: 2.56224 cumulative IPC: 2.49011 (Simulation time: 0 hr 19 min 7 sec) 
Heartbeat CPU 0 instructions: 33000002 cycles: 13245935 heartbeat IPC: 2.53088 cumulative IPC: 2.49133 (Simulation time: 0 hr 19 min 43 sec) 
Heartbeat CPU 0 instructions: 34000003 cycles: 13653468 heartbeat IPC: 2.45379 cumulative IPC: 2.49021 (Simulation time: 0 hr 20 min 21 sec) 
Heartbeat CPU 0 instructions: 35000002 cycles: 14045106 heartbeat IPC: 2.55338 cumulative IPC: 2.49197 (Simulation time: 0 hr 20 min 56 sec) 
Heartbeat CPU 0 instructions: 36000000 cycles: 14440119 heartbeat IPC: 2.53156 cumulative IPC: 2.49305 (Simulation time: 0 hr 21 min 33 sec) 
Heartbeat CPU 0 instructions: 37000003 cycles: 14842330 heartbeat IPC: 2.48626 cumulative IPC: 2.49287 (Simulation time: 0 hr 22 min 9 sec) 
Heartbeat CPU 0 instructions: 38000002 cycles: 15236850 heartbeat IPC: 2.53472 cumulative IPC: 2.49395 (Simulation time: 0 hr 22 min 45 sec) 
Heartbeat CPU 0 instructions: 39000000 cycles: 15627060 heartbeat IPC: 2.56272 cumulative IPC: 2.49567 (Simulation time: 0 hr 23 min 24 sec) 
Heartbeat CPU 0 instructions: 40000000 cycles: 16027384 heartbeat IPC: 2.49798 cumulative IPC: 2.49573 (Simulation time: 0 hr 24 min 1 sec) 
Heartbeat CPU 0 instructions: 41000003 cycles: 16426063 heartbeat IPC: 2.50829 cumulative IPC: 2.49603 (Simulation time: 0 hr 24 min 38 sec) 
Heartbeat CPU 0 instructions: 42000003 cycles: 16816302 heartbeat IPC: 2.56253 cumulative IPC: 2.49758 (Simulation time: 0 hr 25 min 14 sec) 
Heartbeat CPU 0 instructions: 43000003 cycles: 17211563 heartbeat IPC: 2.52997 cumulative IPC: 2.49832 (Simulation time: 0 hr 25 min 50 sec) 
Heartbeat CPU 0 instructions: 44000000 cycles: 17612545 heartbeat IPC: 2.49387 cumulative IPC: 2.49822 (Simulation time: 0 hr 26 min 27 sec) 
Heartbeat CPU 0 instructions: 45000002 cycles: 18002795 heartbeat IPC: 2.56247 cumulative IPC: 2.49961 (Simulation time: 0 hr 27 min 2 sec) 
Heartbeat CPU 0 instructions: 46000001 cycles: 18397941 heartbeat IPC: 2.53071 cumulative IPC: 2.50028 (Simulation time: 0 hr 27 min 37 sec) 
Heartbeat CPU 0 instructions: 47000003 cycles: 18796341 heartbeat IPC: 2.51005 cumulative IPC: 2.50049 (Simulation time: 0 hr 28 min 16 sec) 
Heartbeat CPU 0 instructions: 48000000 cycles: 19186486 heartbeat IPC: 2.56314 cumulative IPC: 2.50176 (Simulation time: 0 hr 28 min 52 sec) 
Heartbeat CPU 0 instructions: 49000000 cycles: 19581569 heartbeat IPC: 2.53111 cumulative IPC: 2.50235 (Simulation time: 0 hr 29 min 29 sec) 
Heartbeat CPU 0 instructions: 50000003 cycles: 19975878 heartbeat IPC: 2.53609 cumulative IPC: 2.50302 (Simulation time: 0 hr 30 min 3 sec) 

Warmup complete CPU 0 instructions: 50000003 cycles: 19975878 (Simulation time: 0 hr 30 min 3 sec) 

Heartbeat CPU 0 instructions: 51000003 cycles: 21396498 heartbeat IPC: 0.703918 cumulative IPC: 0.703918 (Simulation time: 0 hr 30 min 47 sec) 
Heartbeat CPU 0 instructions: 52000000 cycles: 22829296 heartbeat IPC: 0.697933 cumulative IPC: 0.700913 (Simulation time: 0 hr 31 min 31 sec) 
Heartbeat CPU 0 instructions: 53000001 cycles: 24349710 heartbeat IPC: 0.657716 cumulative IPC: 0.685897 (Simulation time: 0 hr 32 min 13 sec) 
Heartbeat CPU 0 instructions: 54000000 cycles: 25778233 heartbeat IPC: 0.700023 cumulative IPC: 0.689375 (Simulation time: 0 hr 32 min 56 sec) 
Heartbeat CPU 0 instructions: 55000003 cycles: 27158235 heartbeat IPC: 0.724639 cumulative IPC: 0.69615 (Simulation time: 0 hr 33 min 35 sec) 
Heartbeat CPU 0 instructions: 56000000 cycles: 28614051 heartbeat IPC: 0.686898 cumulative IPC: 0.694591 (Simulation time: 0 hr 34 min 16 sec) 
Heartbeat CPU 0 instructions: 57000003 cycles: 30044070 heartbeat IPC: 0.699293 cumulative IPC: 0.695259 (Simulation time: 0 hr 35 min 0 sec) 
Heartbeat CPU 0 instructions: 58000003 cycles: 31502318 heartbeat IPC: 0.685754 cumulative IPC: 0.694056 (Simulation time: 0 hr 35 min 44 sec) 
Heartbeat CPU 0 instructions: 59000002 cycles: 33054429 heartbeat IPC: 0.644283 cumulative IPC: 0.68815 (Simulation time: 0 hr 36 min 30 sec) 
Heartbeat CPU 0 instructions: 60000000 cycles: 34438933 heartbeat IPC: 0.722279 cumulative IPC: 0.691417 (Simulation time: 0 hr 37 min 11 sec) 
Heartbeat CPU 0 instructions: 61000000 cycles: 35832291 heartbeat IPC: 0.717691 cumulative IPC: 0.693725 (Simulation time: 0 hr 37 min 53 sec) 
Heartbeat CPU 0 instructions: 62000000 cycles: 37228314 heartbeat IPC: 0.716321 cumulative IPC: 0.695554 (Simulation time: 0 hr 38 min 34 sec) 
Heartbeat CPU 0 instructions: 63000001 cycles: 38692878 heartbeat IPC: 0.682798 cumulative IPC: 0.694556 (Simulation time: 0 hr 39 min 13 sec) 
Heartbeat CPU 0 instructions: 64000000 cycles: 40120564 heartbeat IPC: 0.700433 cumulative IPC: 0.694972 (Simulation time: 0 hr 39 min 52 sec) 
Heartbeat CPU 0 instructions: 65000003 cycles: 41548820 heartbeat IPC: 0.700157 cumulative IPC: 0.695315 (Simulation time: 0 hr 40 min 35 sec) 
Heartbeat CPU 0 instructions: 66000002 cycles: 42999839 heartbeat IPC: 0.68917 cumulative IPC: 0.694928 (Simulation time: 0 hr 41 min 12 sec) 
Heartbeat CPU 0 instructions: 67000002 cycles: 44363690 heartbeat IPC: 0.733218 cumulative IPC: 0.697069 (Simulation time: 0 hr 41 min 44 sec) 
Heartbeat CPU 0 instructions: 68000000 cycles: 45730664 heartbeat IPC: 0.731541 cumulative IPC: 0.698899 (Simulation time: 0 hr 42 min 22 sec) 
Heartbeat CPU 0 instructions: 69000000 cycles: 47141281 heartbeat IPC: 0.70891 cumulative IPC: 0.699419 (Simulation time: 0 hr 42 min 55 sec) 
Heartbeat CPU 0 instructions: 70000001 cycles: 48580559 heartbeat IPC: 0.694794 cumulative IPC: 0.699186 (Simulation time: 0 hr 43 min 33 sec) 
Heartbeat CPU 0 instructions: 71000001 cycles: 50019492 heartbeat IPC: 0.694959 cumulative IPC: 0.698984 (Simulation time: 0 hr 44 min 9 sec) 
Heartbeat CPU 0 instructions: 72000000 cycles: 51478693 heartbeat IPC: 0.685306 cumulative IPC: 0.69835 (Simulation time: 0 hr 44 min 42 sec) 
Heartbeat CPU 0 instructions: 73000001 cycles: 52987551 heartbeat IPC: 0.662754 cumulative IPC: 0.696723 (Simulation time: 0 hr 45 min 16 sec) 
Heartbeat CPU 0 instructions: 74000001 cycles: 54422187 heartbeat IPC: 0.697041 cumulative IPC: 0.696736 (Simulation time: 0 hr 45 min 48 sec) 
Heartbeat CPU 0 instructions: 75000000 cycles: 55836141 heartbeat IPC: 0.707236 cumulative IPC: 0.69715 (Simulation time: 0 hr 46 min 23 sec) 
Heartbeat CPU 0 instructions: 76000000 cycles: 57322965 heartbeat IPC: 0.672575 cumulative IPC: 0.696172 (Simulation time: 0 hr 46 min 56 sec) 
Heartbeat CPU 0 instructions: 77000002 cycles: 58744913 heartbeat IPC: 0.703262 cumulative IPC: 0.696432 (Simulation time: 0 hr 47 min 31 sec) 
Heartbeat CPU 0 instructions: 78000003 cycles: 60156086 heartbeat IPC: 0.708631 cumulative IPC: 0.69686 (Simulation time: 0 hr 48 min 8 sec) 
Heartbeat CPU 0 instructions: 79000000 cycles: 61582643 heartbeat IPC: 0.700986 cumulative IPC: 0.697002 (Simulation time: 0 hr 48 min 42 sec) 
Heartbeat CPU 0 instructions: 80000000 cycles: 63060858 heartbeat IPC: 0.676492 cumulative IPC: 0.696298 (Simulation time: 0 hr 49 min 22 sec) 
Heartbeat CPU 0 instructions: 81000000 cycles: 64483160 heartbeat IPC: 0.703086 cumulative IPC: 0.696515 (Simulation time: 0 hr 49 min 57 sec) 
Heartbeat CPU 0 instructions: 82000000 cycles: 65917523 heartbeat IPC: 0.697174 cumulative IPC: 0.696536 (Simulation time: 0 hr 50 min 30 sec) 
Heartbeat CPU 0 instructions: 83000003 cycles: 67367092 heartbeat IPC: 0.689862 cumulative IPC: 0.696332 (Simulation time: 0 hr 51 min 6 sec) 
Heartbeat CPU 0 instructions: 84000000 cycles: 68742039 heartbeat IPC: 0.727299 cumulative IPC: 0.697205 (Simulation time: 0 hr 51 min 39 sec) 
Heartbeat CPU 0 instructions: 85000001 cycles: 70099704 heartbeat IPC: 0.736559 cumulative IPC: 0.698271 (Simulation time: 0 hr 52 min 12 sec) 
Heartbeat CPU 0 instructions: 86000003 cycles: 71532626 heartbeat IPC: 0.697876 cumulative IPC: 0.69826 (Simulation time: 0 hr 52 min 47 sec) 
Heartbeat CPU 0 instructions: 87000000 cycles: 72975710 heartbeat IPC: 0.692958 cumulative IPC: 0.698115 (Simulation time: 0 hr 53 min 23 sec) 
Heartbeat CPU 0 instructions: 88000000 cycles: 74379517 heartbeat IPC: 0.712349 cumulative IPC: 0.698483 (Simulation time: 0 hr 53 min 55 sec) 
Heartbeat CPU 0 instructions: 89000003 cycles: 75765901 heartbeat IPC: 0.721303 cumulative IPC: 0.69905 (Simulation time: 0 hr 54 min 33 sec) 
Heartbeat CPU 0 instructions: 90000003 cycles: 77219340 heartbeat IPC: 0.688023 cumulative IPC: 0.69877 (Simulation time: 0 hr 55 min 4 sec) 
Heartbeat CPU 0 instructions: 91000002 cycles: 78616478 heartbeat IPC: 0.715748 cumulative IPC: 0.699174 (Simulation time: 0 hr 55 min 36 sec) 
Heartbeat CPU 0 instructions: 92000000 cycles: 80035265 heartbeat IPC: 0.704826 cumulative IPC: 0.699308 (Simulation time: 0 hr 56 min 8 sec) 
Heartbeat CPU 0 instructions: 93000003 cycles: 81485869 heartbeat IPC: 0.68937 cumulative IPC: 0.699073 (Simulation time: 0 hr 56 min 46 sec) 
Heartbeat CPU 0 instructions: 94000001 cycles: 82932860 heartbeat IPC: 0.691088 cumulative IPC: 0.69889 (Simulation time: 0 hr 57 min 19 sec) 
Heartbeat CPU 0 instructions: 95000001 cycles: 84382484 heartbeat IPC: 0.689834 cumulative IPC: 0.698686 (Simulation time: 0 hr 57 min 52 sec) 
Heartbeat CPU 0 instructions: 96000000 cycles: 85806189 heartbeat IPC: 0.702392 cumulative IPC: 0.698766 (Simulation time: 0 hr 58 min 26 sec) 
Heartbeat CPU 0 instructions: 97000000 cycles: 87287237 heartbeat IPC: 0.675198 cumulative IPC: 0.698248 (Simulation time: 0 hr 59 min 2 sec) 
Heartbeat CPU 0 instructions: 98000002 cycles: 88651722 heartbeat IPC: 0.732879 cumulative IPC: 0.698936 (Simulation time: 0 hr 59 min 36 sec) 
Heartbeat CPU 0 instructions: 99000001 cycles: 90041485 heartbeat IPC: 0.719546 cumulative IPC: 0.699345 (Simulation time: 1 hr 0 min 12 sec) 
Heartbeat CPU 0 instructions: 100000000 cycles: 91507513 heartbeat IPC: 0.682115 cumulative IPC: 0.698991 (Simulation time: 1 hr 0 min 47 sec) 
Heartbeat CPU 0 instructions: 101000003 cycles: 92997473 heartbeat IPC: 0.671161 cumulative IPC: 0.698424 (Simulation time: 1 hr 1 min 21 sec) 
Heartbeat CPU 0 instructions: 102000002 cycles: 94386136 heartbeat IPC: 0.720116 cumulative IPC: 0.698828 (Simulation time: 1 hr 1 min 52 sec) 
Heartbeat CPU 0 instructions: 103000000 cycles: 95809476 heartbeat IPC: 0.702571 cumulative IPC: 0.698899 (Simulation time: 1 hr 2 min 23 sec) 
Heartbeat CPU 0 instructions: 104000000 cycles: 97215335 heartbeat IPC: 0.711309 cumulative IPC: 0.699125 (Simulation time: 1 hr 2 min 56 sec) 
Heartbeat CPU 0 instructions: 105000002 cycles: 98645681 heartbeat IPC: 0.699133 cumulative IPC: 0.699125 (Simulation time: 1 hr 3 min 28 sec) 
Heartbeat CPU 0 instructions: 106000001 cycles: 100038951 heartbeat IPC: 0.717735 cumulative IPC: 0.699449 (Simulation time: 1 hr 4 min 0 sec) 
Heartbeat CPU 0 instructions: 107000000 cycles: 101524408 heartbeat IPC: 0.673193 cumulative IPC: 0.69897 (Simulation time: 1 hr 4 min 34 sec) 
Heartbeat CPU 0 instructions: 108000000 cycles: 102933231 heartbeat IPC: 0.709812 cumulative IPC: 0.699154 (Simulation time: 1 hr 5 min 9 sec) 
Heartbeat CPU 0 instructions: 109000002 cycles: 104368192 heartbeat IPC: 0.696884 cumulative IPC: 0.699116 (Simulation time: 1 hr 5 min 40 sec) 
Heartbeat CPU 0 instructions: 110000000 cycles: 105847437 heartbeat IPC: 0.676019 cumulative IPC: 0.698718 (Simulation time: 1 hr 6 min 17 sec) 
Heartbeat CPU 0 instructions: 111000003 cycles: 107278319 heartbeat IPC: 0.698872 cumulative IPC: 0.69872 (Simulation time: 1 hr 6 min 51 sec) 
Heartbeat CPU 0 instructions: 112000000 cycles: 108697852 heartbeat IPC: 0.704455 cumulative IPC: 0.698812 (Simulation time: 1 hr 7 min 24 sec) 
Heartbeat CPU 0 instructions: 113000001 cycles: 110116162 heartbeat IPC: 0.705065 cumulative IPC: 0.698911 (Simulation time: 1 hr 7 min 57 sec) 
Heartbeat CPU 0 instructions: 114000003 cycles: 111484532 heartbeat IPC: 0.730798 cumulative IPC: 0.699387 (Simulation time: 1 hr 8 min 31 sec) 
Heartbeat CPU 0 instructions: 115000003 cycles: 112928941 heartbeat IPC: 0.692325 cumulative IPC: 0.699278 (Simulation time: 1 hr 9 min 5 sec) 
Heartbeat CPU 0 instructions: 116000000 cycles: 114355017 heartbeat IPC: 0.701223 cumulative IPC: 0.699307 (Simulation time: 1 hr 9 min 38 sec) 
Heartbeat CPU 0 instructions: 117000003 cycles: 115826199 heartbeat IPC: 0.679728 cumulative IPC: 0.699006 (Simulation time: 1 hr 10 min 12 sec) 
Heartbeat CPU 0 instructions: 118000003 cycles: 117217340 heartbeat IPC: 0.718834 cumulative IPC: 0.69929 (Simulation time: 1 hr 10 min 46 sec) 
Heartbeat CPU 0 instructions: 119000000 cycles: 118618696 heartbeat IPC: 0.713592 cumulative IPC: 0.699493 (Simulation time: 1 hr 11 min 19 sec) 
Heartbeat CPU 0 instructions: 120000000 cycles: 120088809 heartbeat IPC: 0.68022 cumulative IPC: 0.69921 (Simulation time: 1 hr 11 min 52 sec) 
Heartbeat CPU 0 instructions: 121000002 cycles: 121468070 heartbeat IPC: 0.725027 cumulative IPC: 0.699561 (Simulation time: 1 hr 12 min 24 sec) 
Heartbeat CPU 0 instructions: 122000003 cycles: 122852157 heartbeat IPC: 0.722499 cumulative IPC: 0.69987 (Simulation time: 1 hr 12 min 57 sec) 
Heartbeat CPU 0 instructions: 123000002 cycles: 124266859 heartbeat IPC: 0.706862 cumulative IPC: 0.699965 (Simulation time: 1 hr 13 min 27 sec) 
Heartbeat CPU 0 instructions: 124000000 cycles: 125725245 heartbeat IPC: 0.685688 cumulative IPC: 0.699768 (Simulation time: 1 hr 13 min 58 sec) 
Heartbeat CPU 0 instructions: 125000001 cycles: 127152212 heartbeat IPC: 0.700788 cumulative IPC: 0.699781 (Simulation time: 1 hr 14 min 27 sec) 
Heartbeat CPU 0 instructions: 126000003 cycles: 128578735 heartbeat IPC: 0.701007 cumulative IPC: 0.699797 (Simulation time: 1 hr 14 min 57 sec) 
Heartbeat CPU 0 instructions: 127000002 cycles: 130075126 heartbeat IPC: 0.668274 cumulative IPC: 0.699369 (Simulation time: 1 hr 15 min 29 sec) 
Heartbeat CPU 0 instructions: 128000000 cycles: 131512991 heartbeat IPC: 0.695474 cumulative IPC: 0.699319 (Simulation time: 1 hr 16 min 3 sec) 
Heartbeat CPU 0 instructions: 129000003 cycles: 132871397 heartbeat IPC: 0.736159 cumulative IPC: 0.699762 (Simulation time: 1 hr 16 min 37 sec) 
Heartbeat CPU 0 instructions: 130000000 cycles: 134252237 heartbeat IPC: 0.724195 cumulative IPC: 0.700057 (Simulation time: 1 hr 17 min 8 sec) 
Heartbeat CPU 0 instructions: 131000001 cycles: 135636349 heartbeat IPC: 0.722486 cumulative IPC: 0.700326 (Simulation time: 1 hr 17 min 37 sec) 
Heartbeat CPU 0 instructions: 132000000 cycles: 137061096 heartbeat IPC: 0.701878 cumulative IPC: 0.700345 (Simulation time: 1 hr 18 min 6 sec) 
Heartbeat CPU 0 instructions: 133000003 cycles: 138488505 heartbeat IPC: 0.700572 cumulative IPC: 0.700347 (Simulation time: 1 hr 18 min 34 sec) 
Heartbeat CPU 0 instructions: 134000001 cycles: 139935512 heartbeat IPC: 0.69108 cumulative IPC: 0.700236 (Simulation time: 1 hr 19 min 1 sec) 
Heartbeat CPU 0 instructions: 135000000 cycles: 141324729 heartbeat IPC: 0.719829 cumulative IPC: 0.70046 (Simulation time: 1 hr 19 min 27 sec) 
Heartbeat CPU 0 instructions: 136000000 cycles: 142705191 heartbeat IPC: 0.724395 cumulative IPC: 0.700729 (Simulation time: 1 hr 19 min 48 sec) 
Heartbeat CPU 0 instructions: 137000002 cycles: 144159150 heartbeat IPC: 0.687779 cumulative IPC: 0.700577 (Simulation time: 1 hr 20 min 9 sec) 
Heartbeat CPU 0 instructions: 138000001 cycles: 145594899 heartbeat IPC: 0.6965 cumulative IPC: 0.700531 (Simulation time: 1 hr 20 min 32 sec) 
Heartbeat CPU 0 instructions: 139000000 cycles: 147011043 heartbeat IPC: 0.706142 cumulative IPC: 0.700593 (Simulation time: 1 hr 20 min 53 sec) 
Heartbeat CPU 0 instructions: 140000000 cycles: 148444279 heartbeat IPC: 0.697722 cumulative IPC: 0.700561 (Simulation time: 1 hr 21 min 13 sec) 
Heartbeat CPU 0 instructions: 141000001 cycles: 149896545 heartbeat IPC: 0.68858 cumulative IPC: 0.700427 (Simulation time: 1 hr 21 min 36 sec) 
Heartbeat CPU 0 instructions: 142000003 cycles: 151279253 heartbeat IPC: 0.72322 cumulative IPC: 0.700667 (Simulation time: 1 hr 21 min 56 sec) 
Heartbeat CPU 0 instructions: 143000003 cycles: 152759454 heartbeat IPC: 0.675584 cumulative IPC: 0.700388 (Simulation time: 1 hr 22 min 22 sec) 
Heartbeat CPU 0 instructions: 144000000 cycles: 154256380 heartbeat IPC: 0.668034 cumulative IPC: 0.700027 (Simulation time: 1 hr 22 min 47 sec) 
Heartbeat CPU 0 instructions: 145000002 cycles: 155659174 heartbeat IPC: 0.712864 cumulative IPC: 0.70016 (Simulation time: 1 hr 23 min 12 sec) 
Heartbeat CPU 0 instructions: 146000000 cycles: 157013626 heartbeat IPC: 0.738304 cumulative IPC: 0.700537 (Simulation time: 1 hr 23 min 38 sec) 
Heartbeat CPU 0 instructions: 147000000 cycles: 158445922 heartbeat IPC: 0.69818 cumulative IPC: 0.700513 (Simulation time: 1 hr 24 min 3 sec) 
Heartbeat CPU 0 instructions: 148000000 cycles: 159915189 heartbeat IPC: 0.680611 cumulative IPC: 0.700304 (Simulation time: 1 hr 24 min 29 sec) 
Heartbeat CPU 0 instructions: 149000001 cycles: 161340493 heartbeat IPC: 0.701605 cumulative IPC: 0.700317 (Simulation time: 1 hr 24 min 53 sec) 
Heartbeat CPU 0 instructions: 150000003 cycles: 162751071 heartbeat IPC: 0.708931 cumulative IPC: 0.700402 (Simulation time: 1 hr 25 min 18 sec) 
Finished CPU 0 instructions: 100000000 cycles: 142775193 cummulative IPC: 0.700402 (Simulation time: 1 hr 25 min 18 sec) 

ChampSim completed all CPUs

Region of Interest Statistics

CPU 0 cummulative IPC: 0.700402 instructions: 100000000 cycles: 142775193
LLC TOTAL     ACCESS:    5314108  HIT:    1742810  MISS:    3571298
LLC LOAD      ACCESS:     372754  HIT:      14323  MISS:     358431
LLC RFO       ACCESS:    2270820  HIT:     614820  MISS:    1656000
LLC PREFETCH  ACCESS:     399770  HIT:      18422  MISS:     381348
LLC WRITEBACK ACCESS:    2270764  HIT:    1095245  MISS:    1175519
OPTgen accesses: 63505
OPTgen hits: 20848
OPTgen hit rate: 32.8289


