
*** ChampSim Multicore Out-of-Order Simulator ***

Warmup Instructions: 50000000
Simulation Instructions: 100000000
Configuration: 2
Number of CPUs: 1
LLC sets: 2048
LLC ways: 16
Off-chip DRAM Channels: 1 Width: 64-bit Data Rate: 1600 MT/s

CPU 0 runs /datasets/cs240c-wi22-a00-public/data/Assignment2-gz/sphinx3_1339B.trace.gz
CPU 0 L1D next line prefetcher
CPU 0 L2C IP-based stride prefetcher
Initialize Hawkeye state
Heartbeat CPU 0 instructions: 1000000 cycles: 339022 heartbeat IPC: 2.94966 cumulative IPC: 2.94966 (Simulation time: 0 hr 0 min 31 sec) 
Heartbeat CPU 0 instructions: 2000001 cycles: 693417 heartbeat IPC: 2.82171 cumulative IPC: 2.88427 (Simulation time: 0 hr 1 min 4 sec) 
Heartbeat CPU 0 instructions: 3000000 cycles: 1084470 heartbeat IPC: 2.5572 cumulative IPC: 2.76633 (Simulation time: 0 hr 1 min 38 sec) 
Heartbeat CPU 0 instructions: 4000000 cycles: 1529991 heartbeat IPC: 2.24456 cumulative IPC: 2.61439 (Simulation time: 0 hr 2 min 10 sec) 
Heartbeat CPU 0 instructions: 5000003 cycles: 1869006 heartbeat IPC: 2.94973 cumulative IPC: 2.67522 (Simulation time: 0 hr 2 min 43 sec) 
Heartbeat CPU 0 instructions: 6000002 cycles: 2253186 heartbeat IPC: 2.60294 cumulative IPC: 2.6629 (Simulation time: 0 hr 3 min 18 sec) 
Heartbeat CPU 0 instructions: 7000001 cycles: 2716925 heartbeat IPC: 2.15638 cumulative IPC: 2.57644 (Simulation time: 0 hr 3 min 49 sec) 
Heartbeat CPU 0 instructions: 8000000 cycles: 3055794 heartbeat IPC: 2.95099 cumulative IPC: 2.61798 (Simulation time: 0 hr 4 min 21 sec) 
Heartbeat CPU 0 instructions: 9000003 cycles: 3412353 heartbeat IPC: 2.80459 cumulative IPC: 2.63748 (Simulation time: 0 hr 4 min 54 sec) 
Heartbeat CPU 0 instructions: 10000001 cycles: 3799026 heartbeat IPC: 2.58616 cumulative IPC: 2.63225 (Simulation time: 0 hr 5 min 28 sec) 
Heartbeat CPU 0 instructions: 11000002 cycles: 4242148 heartbeat IPC: 2.25672 cumulative IPC: 2.59303 (Simulation time: 0 hr 6 min 0 sec) 
Heartbeat CPU 0 instructions: 12000000 cycles: 4581105 heartbeat IPC: 2.95022 cumulative IPC: 2.61946 (Simulation time: 0 hr 6 min 33 sec) 
Heartbeat CPU 0 instructions: 13000000 cycles: 4972916 heartbeat IPC: 2.55225 cumulative IPC: 2.61416 (Simulation time: 0 hr 7 min 9 sec) 
Heartbeat CPU 0 instructions: 14000003 cycles: 5427741 heartbeat IPC: 2.19865 cumulative IPC: 2.57934 (Simulation time: 0 hr 7 min 41 sec) 
Heartbeat CPU 0 instructions: 15000003 cycles: 5766701 heartbeat IPC: 2.9502 cumulative IPC: 2.60114 (Simulation time: 0 hr 8 min 13 sec) 
Heartbeat CPU 0 instructions: 16000000 cycles: 6131592 heartbeat IPC: 2.74054 cumulative IPC: 2.60944 (Simulation time: 0 hr 8 min 45 sec) 
Heartbeat CPU 0 instructions: 17000000 cycles: 6578455 heartbeat IPC: 2.23782 cumulative IPC: 2.58419 (Simulation time: 0 hr 9 min 18 sec) 
Heartbeat CPU 0 instructions: 18000000 cycles: 7017741 heartbeat IPC: 2.27642 cumulative IPC: 2.56493 (Simulation time: 0 hr 9 min 51 sec) 
Heartbeat CPU 0 instructions: 19000001 cycles: 7462704 heartbeat IPC: 2.24738 cumulative IPC: 2.54599 (Simulation time: 0 hr 10 min 22 sec) 
Heartbeat CPU 0 instructions: 20000000 cycles: 7801758 heartbeat IPC: 2.94938 cumulative IPC: 2.56352 (Simulation time: 0 hr 10 min 52 sec) 
Heartbeat CPU 0 instructions: 21000000 cycles: 8183312 heartbeat IPC: 2.62086 cumulative IPC: 2.5662 (Simulation time: 0 hr 11 min 26 sec) 
Heartbeat CPU 0 instructions: 22000000 cycles: 8648980 heartbeat IPC: 2.14745 cumulative IPC: 2.54365 (Simulation time: 0 hr 11 min 58 sec) 
Heartbeat CPU 0 instructions: 23000001 cycles: 8988014 heartbeat IPC: 2.94956 cumulative IPC: 2.55896 (Simulation time: 0 hr 12 min 30 sec) 
Heartbeat CPU 0 instructions: 24000000 cycles: 9338303 heartbeat IPC: 2.85478 cumulative IPC: 2.57006 (Simulation time: 0 hr 13 min 2 sec) 
Heartbeat CPU 0 instructions: 25000000 cycles: 9746462 heartbeat IPC: 2.45003 cumulative IPC: 2.56503 (Simulation time: 0 hr 13 min 35 sec) 
Heartbeat CPU 0 instructions: 26000003 cycles: 10149373 heartbeat IPC: 2.48195 cumulative IPC: 2.56173 (Simulation time: 0 hr 14 min 6 sec) 
Heartbeat CPU 0 instructions: 27000002 cycles: 10488311 heartbeat IPC: 2.95039 cumulative IPC: 2.57429 (Simulation time: 0 hr 14 min 37 sec) 
Heartbeat CPU 0 instructions: 28000000 cycles: 10865409 heartbeat IPC: 2.65183 cumulative IPC: 2.57699 (Simulation time: 0 hr 15 min 10 sec) 
Heartbeat CPU 0 instructions: 29000001 cycles: 11306063 heartbeat IPC: 2.26936 cumulative IPC: 2.565 (Simulation time: 0 hr 15 min 42 sec) 
Heartbeat CPU 0 instructions: 30000002 cycles: 11645079 heartbeat IPC: 2.94972 cumulative IPC: 2.5762 (Simulation time: 0 hr 16 min 13 sec) 
Heartbeat CPU 0 instructions: 31000003 cycles: 12015683 heartbeat IPC: 2.6983 cumulative IPC: 2.57996 (Simulation time: 0 hr 16 min 45 sec) 
Heartbeat CPU 0 instructions: 32000000 cycles: 12458413 heartbeat IPC: 2.25871 cumulative IPC: 2.56855 (Simulation time: 0 hr 17 min 15 sec) 
Heartbeat CPU 0 instructions: 33000000 cycles: 12797473 heartbeat IPC: 2.94933 cumulative IPC: 2.57863 (Simulation time: 0 hr 17 min 47 sec) 
Heartbeat CPU 0 instructions: 34000001 cycles: 13185065 heartbeat IPC: 2.58004 cumulative IPC: 2.57868 (Simulation time: 0 hr 18 min 21 sec) 
Heartbeat CPU 0 instructions: 35000003 cycles: 13646187 heartbeat IPC: 2.16863 cumulative IPC: 2.56482 (Simulation time: 0 hr 18 min 53 sec) 
Heartbeat CPU 0 instructions: 36000000 cycles: 13985067 heartbeat IPC: 2.95089 cumulative IPC: 2.57417 (Simulation time: 0 hr 19 min 25 sec) 
Heartbeat CPU 0 instructions: 37000003 cycles: 14341702 heartbeat IPC: 2.804 cumulative IPC: 2.57989 (Simulation time: 0 hr 19 min 57 sec) 
Heartbeat CPU 0 instructions: 38000000 cycles: 14729508 heartbeat IPC: 2.5786 cumulative IPC: 2.57986 (Simulation time: 0 hr 20 min 33 sec) 
Heartbeat CPU 0 instructions: 39000002 cycles: 15172769 heartbeat IPC: 2.25601 cumulative IPC: 2.57039 (Simulation time: 0 hr 21 min 5 sec) 
Heartbeat CPU 0 instructions: 40000000 cycles: 15511790 heartbeat IPC: 2.94966 cumulative IPC: 2.57868 (Simulation time: 0 hr 21 min 38 sec) 
Heartbeat CPU 0 instructions: 41000003 cycles: 15896355 heartbeat IPC: 2.60035 cumulative IPC: 2.57921 (Simulation time: 0 hr 22 min 13 sec) 
Heartbeat CPU 0 instructions: 42000002 cycles: 16351031 heartbeat IPC: 2.19937 cumulative IPC: 2.56865 (Simulation time: 0 hr 22 min 47 sec) 
Heartbeat CPU 0 instructions: 43000001 cycles: 16690007 heartbeat IPC: 2.95006 cumulative IPC: 2.57639 (Simulation time: 0 hr 23 min 17 sec) 
Heartbeat CPU 0 instructions: 44000000 cycles: 17054093 heartbeat IPC: 2.7466 cumulative IPC: 2.58003 (Simulation time: 0 hr 23 min 51 sec) 
Heartbeat CPU 0 instructions: 45000000 cycles: 17467224 heartbeat IPC: 2.42054 cumulative IPC: 2.57625 (Simulation time: 0 hr 24 min 22 sec) 
Heartbeat CPU 0 instructions: 46000002 cycles: 17866774 heartbeat IPC: 2.50282 cumulative IPC: 2.57461 (Simulation time: 0 hr 24 min 53 sec) 
Heartbeat CPU 0 instructions: 47000003 cycles: 18205760 heartbeat IPC: 2.94998 cumulative IPC: 2.5816 (Simulation time: 0 hr 25 min 24 sec) 
Heartbeat CPU 0 instructions: 48000000 cycles: 18582719 heartbeat IPC: 2.6528 cumulative IPC: 2.58305 (Simulation time: 0 hr 26 min 0 sec) 
Heartbeat CPU 0 instructions: 49000002 cycles: 19023814 heartbeat IPC: 2.26709 cumulative IPC: 2.57572 (Simulation time: 0 hr 26 min 32 sec) 
Heartbeat CPU 0 instructions: 50000002 cycles: 19362760 heartbeat IPC: 2.95032 cumulative IPC: 2.58228 (Simulation time: 0 hr 27 min 4 sec) 

Warmup complete CPU 0 instructions: 50000002 cycles: 19362760 (Simulation time: 0 hr 27 min 4 sec) 

Heartbeat CPU 0 instructions: 51000001 cycles: 20560316 heartbeat IPC: 0.835033 cumulative IPC: 0.835033 (Simulation time: 0 hr 27 min 42 sec) 
Heartbeat CPU 0 instructions: 52000000 cycles: 21407379 heartbeat IPC: 1.18055 cumulative IPC: 0.978176 (Simulation time: 0 hr 28 min 19 sec) 
Heartbeat CPU 0 instructions: 53000002 cycles: 22295907 heartbeat IPC: 1.12546 cumulative IPC: 1.02279 (Simulation time: 0 hr 28 min 56 sec) 
Heartbeat CPU 0 instructions: 54000003 cycles: 23414164 heartbeat IPC: 0.89425 cumulative IPC: 0.987312 (Simulation time: 0 hr 29 min 34 sec) 
Heartbeat CPU 0 instructions: 55000001 cycles: 24296152 heartbeat IPC: 1.1338 cumulative IPC: 1.0135 (Simulation time: 0 hr 30 min 12 sec) 
Heartbeat CPU 0 instructions: 56000000 cycles: 25187589 heartbeat IPC: 1.12178 cumulative IPC: 1.03007 (Simulation time: 0 hr 30 min 49 sec) 
Heartbeat CPU 0 instructions: 57000000 cycles: 26155773 heartbeat IPC: 1.03286 cumulative IPC: 1.03047 (Simulation time: 0 hr 31 min 27 sec) 
Heartbeat CPU 0 instructions: 58000000 cycles: 27184859 heartbeat IPC: 0.971736 cumulative IPC: 1.02274 (Simulation time: 0 hr 32 min 6 sec) 
Heartbeat CPU 0 instructions: 59000001 cycles: 28041858 heartbeat IPC: 1.16686 cumulative IPC: 1.03697 (Simulation time: 0 hr 32 min 43 sec) 
Heartbeat CPU 0 instructions: 60000000 cycles: 28900806 heartbeat IPC: 1.16421 cumulative IPC: 1.04843 (Simulation time: 0 hr 33 min 21 sec) 
Heartbeat CPU 0 instructions: 61000000 cycles: 30173318 heartbeat IPC: 0.785847 cumulative IPC: 1.01752 (Simulation time: 0 hr 33 min 59 sec) 
Heartbeat CPU 0 instructions: 62000002 cycles: 31315084 heartbeat IPC: 0.875838 cumulative IPC: 1.00399 (Simulation time: 0 hr 34 min 38 sec) 
Heartbeat CPU 0 instructions: 63000003 cycles: 32138515 heartbeat IPC: 1.21443 cumulative IPC: 1.01755 (Simulation time: 0 hr 35 min 15 sec) 
Heartbeat CPU 0 instructions: 64000000 cycles: 33015053 heartbeat IPC: 1.14085 cumulative IPC: 1.02547 (Simulation time: 0 hr 35 min 54 sec) 
Heartbeat CPU 0 instructions: 65000000 cycles: 34070232 heartbeat IPC: 0.947707 cumulative IPC: 1.01989 (Simulation time: 0 hr 36 min 31 sec) 
Heartbeat CPU 0 instructions: 66000001 cycles: 35017619 heartbeat IPC: 1.05554 cumulative IPC: 1.02205 (Simulation time: 0 hr 37 min 7 sec) 
Heartbeat CPU 0 instructions: 67000000 cycles: 35877480 heartbeat IPC: 1.16298 cumulative IPC: 1.02938 (Simulation time: 0 hr 37 min 44 sec) 
Heartbeat CPU 0 instructions: 68000000 cycles: 36781643 heartbeat IPC: 1.106 cumulative IPC: 1.03336 (Simulation time: 0 hr 38 min 18 sec) 
Heartbeat CPU 0 instructions: 69000003 cycles: 37875062 heartbeat IPC: 0.914565 cumulative IPC: 1.02634 (Simulation time: 0 hr 38 min 52 sec) 
Heartbeat CPU 0 instructions: 70000001 cycles: 38751648 heartbeat IPC: 1.14079 cumulative IPC: 1.03152 (Simulation time: 0 hr 39 min 24 sec) 
Heartbeat CPU 0 instructions: 71000001 cycles: 39605479 heartbeat IPC: 1.17119 cumulative IPC: 1.03741 (Simulation time: 0 hr 40 min 1 sec) 
Heartbeat CPU 0 instructions: 72000000 cycles: 40793725 heartbeat IPC: 0.841576 cumulative IPC: 1.02655 (Simulation time: 0 hr 40 min 32 sec) 
Heartbeat CPU 0 instructions: 73000001 cycles: 41626695 heartbeat IPC: 1.20052 cumulative IPC: 1.03306 (Simulation time: 0 hr 41 min 5 sec) 
Heartbeat CPU 0 instructions: 74000001 cycles: 42497654 heartbeat IPC: 1.14816 cumulative IPC: 1.03739 (Simulation time: 0 hr 41 min 35 sec) 
Heartbeat CPU 0 instructions: 75000003 cycles: 43571819 heartbeat IPC: 0.930958 cumulative IPC: 1.03267 (Simulation time: 0 hr 42 min 7 sec) 
Heartbeat CPU 0 instructions: 76000000 cycles: 44494528 heartbeat IPC: 1.08376 cumulative IPC: 1.03455 (Simulation time: 0 hr 42 min 36 sec) 
Heartbeat CPU 0 instructions: 77000002 cycles: 45251331 heartbeat IPC: 1.32135 cumulative IPC: 1.04293 (Simulation time: 0 hr 43 min 6 sec) 
Heartbeat CPU 0 instructions: 78000002 cycles: 46178094 heartbeat IPC: 1.07902 cumulative IPC: 1.04418 (Simulation time: 0 hr 43 min 36 sec) 
Heartbeat CPU 0 instructions: 79000001 cycles: 47224086 heartbeat IPC: 0.956029 cumulative IPC: 1.04087 (Simulation time: 0 hr 44 min 12 sec) 
Heartbeat CPU 0 instructions: 80000000 cycles: 48047959 heartbeat IPC: 1.21378 cumulative IPC: 1.04584 (Simulation time: 0 hr 44 min 41 sec) 
Heartbeat CPU 0 instructions: 81000001 cycles: 48914105 heartbeat IPC: 1.15454 cumulative IPC: 1.04902 (Simulation time: 0 hr 45 min 10 sec) 
Heartbeat CPU 0 instructions: 82000003 cycles: 50083618 heartbeat IPC: 0.855058 cumulative IPC: 1.04164 (Simulation time: 0 hr 45 min 40 sec) 
Heartbeat CPU 0 instructions: 83000001 cycles: 50891396 heartbeat IPC: 1.23796 cumulative IPC: 1.04667 (Simulation time: 0 hr 46 min 9 sec) 
Heartbeat CPU 0 instructions: 84000000 cycles: 51638780 heartbeat IPC: 1.338 cumulative IPC: 1.05341 (Simulation time: 0 hr 46 min 42 sec) 
Heartbeat CPU 0 instructions: 85000002 cycles: 52764958 heartbeat IPC: 0.887961 cumulative IPC: 1.04784 (Simulation time: 0 hr 47 min 14 sec) 
Heartbeat CPU 0 instructions: 86000003 cycles: 53640115 heartbeat IPC: 1.14265 cumulative IPC: 1.05026 (Simulation time: 0 hr 47 min 44 sec) 
Heartbeat CPU 0 instructions: 87000001 cycles: 54431107 heartbeat IPC: 1.26423 cumulative IPC: 1.05508 (Simulation time: 0 hr 48 min 13 sec) 
Heartbeat CPU 0 instructions: 88000000 cycles: 55458004 heartbeat IPC: 0.973807 cumulative IPC: 1.05277 (Simulation time: 0 hr 48 min 46 sec) 
Heartbeat CPU 0 instructions: 89000000 cycles: 56487339 heartbeat IPC: 0.971501 cumulative IPC: 1.05052 (Simulation time: 0 hr 49 min 15 sec) 
Heartbeat CPU 0 instructions: 90000003 cycles: 57276150 heartbeat IPC: 1.26773 cumulative IPC: 1.05504 (Simulation time: 0 hr 49 min 45 sec) 
Heartbeat CPU 0 instructions: 91000000 cycles: 58049249 heartbeat IPC: 1.29349 cumulative IPC: 1.0598 (Simulation time: 0 hr 50 min 15 sec) 
Heartbeat CPU 0 instructions: 92000000 cycles: 59213099 heartbeat IPC: 0.859217 cumulative IPC: 1.05394 (Simulation time: 0 hr 50 min 48 sec) 
Heartbeat CPU 0 instructions: 93000000 cycles: 60034850 heartbeat IPC: 1.21691 cumulative IPC: 1.05724 (Simulation time: 0 hr 51 min 19 sec) 
Heartbeat CPU 0 instructions: 94000000 cycles: 60836002 heartbeat IPC: 1.2482 cumulative IPC: 1.06093 (Simulation time: 0 hr 51 min 49 sec) 
Heartbeat CPU 0 instructions: 95000002 cycles: 62027444 heartbeat IPC: 0.839321 cumulative IPC: 1.05474 (Simulation time: 0 hr 52 min 23 sec) 
Heartbeat CPU 0 instructions: 96000000 cycles: 62862441 heartbeat IPC: 1.19761 cumulative IPC: 1.05748 (Simulation time: 0 hr 52 min 51 sec) 
Heartbeat CPU 0 instructions: 97000002 cycles: 63685955 heartbeat IPC: 1.21431 cumulative IPC: 1.06039 (Simulation time: 0 hr 53 min 21 sec) 
Heartbeat CPU 0 instructions: 98000000 cycles: 64820011 heartbeat IPC: 0.881789 cumulative IPC: 1.05594 (Simulation time: 0 hr 53 min 52 sec) 
Heartbeat CPU 0 instructions: 99000003 cycles: 65956986 heartbeat IPC: 0.879529 cumulative IPC: 1.05163 (Simulation time: 0 hr 54 min 24 sec) 
Heartbeat CPU 0 instructions: 100000000 cycles: 66745649 heartbeat IPC: 1.26796 cumulative IPC: 1.05523 (Simulation time: 0 hr 54 min 55 sec) 
Heartbeat CPU 0 instructions: 101000000 cycles: 67488500 heartbeat IPC: 1.34616 cumulative IPC: 1.05972 (Simulation time: 0 hr 55 min 28 sec) 
Heartbeat CPU 0 instructions: 102000001 cycles: 68959894 heartbeat IPC: 0.679628 cumulative IPC: 1.04845 (Simulation time: 0 hr 55 min 59 sec) 
Heartbeat CPU 0 instructions: 103000000 cycles: 70230951 heartbeat IPC: 0.786746 cumulative IPC: 1.04191 (Simulation time: 0 hr 56 min 31 sec) 
Heartbeat CPU 0 instructions: 104000000 cycles: 71177377 heartbeat IPC: 1.05661 cumulative IPC: 1.04218 (Simulation time: 0 hr 57 min 0 sec) 
Heartbeat CPU 0 instructions: 105000003 cycles: 71970136 heartbeat IPC: 1.26142 cumulative IPC: 1.04548 (Simulation time: 0 hr 57 min 31 sec) 
Heartbeat CPU 0 instructions: 106000000 cycles: 72832049 heartbeat IPC: 1.16021 cumulative IPC: 1.04733 (Simulation time: 0 hr 58 min 1 sec) 
Heartbeat CPU 0 instructions: 107000001 cycles: 74330125 heartbeat IPC: 0.667524 cumulative IPC: 1.03698 (Simulation time: 0 hr 58 min 34 sec) 
Heartbeat CPU 0 instructions: 108000000 cycles: 75234747 heartbeat IPC: 1.10543 cumulative IPC: 1.03809 (Simulation time: 0 hr 59 min 3 sec) 
Heartbeat CPU 0 instructions: 109000000 cycles: 76014907 heartbeat IPC: 1.28179 cumulative IPC: 1.04144 (Simulation time: 0 hr 59 min 33 sec) 
Heartbeat CPU 0 instructions: 110000003 cycles: 77127540 heartbeat IPC: 0.898772 cumulative IPC: 1.0387 (Simulation time: 1 hr 0 min 6 sec) 
Heartbeat CPU 0 instructions: 111000000 cycles: 78552272 heartbeat IPC: 0.701884 cumulative IPC: 1.03059 (Simulation time: 1 hr 0 min 39 sec) 
Heartbeat CPU 0 instructions: 112000000 cycles: 79481359 heartbeat IPC: 1.07633 cumulative IPC: 1.03129 (Simulation time: 1 hr 1 min 8 sec) 
Heartbeat CPU 0 instructions: 113000002 cycles: 80305150 heartbeat IPC: 1.2139 cumulative IPC: 1.03376 (Simulation time: 1 hr 1 min 37 sec) 
Heartbeat CPU 0 instructions: 114000000 cycles: 81535463 heartbeat IPC: 0.8128 cumulative IPC: 1.02939 (Simulation time: 1 hr 2 min 11 sec) 
Heartbeat CPU 0 instructions: 115000001 cycles: 82902850 heartbeat IPC: 0.731323 cumulative IPC: 1.02298 (Simulation time: 1 hr 2 min 44 sec) 
Heartbeat CPU 0 instructions: 116000000 cycles: 83764112 heartbeat IPC: 1.16109 cumulative IPC: 1.02482 (Simulation time: 1 hr 3 min 14 sec) 
Heartbeat CPU 0 instructions: 117000003 cycles: 84624742 heartbeat IPC: 1.16194 cumulative IPC: 1.02663 (Simulation time: 1 hr 3 min 46 sec) 
Heartbeat CPU 0 instructions: 118000003 cycles: 85939742 heartbeat IPC: 0.760456 cumulative IPC: 1.02137 (Simulation time: 1 hr 4 min 18 sec) 
Heartbeat CPU 0 instructions: 119000003 cycles: 87023541 heartbeat IPC: 0.92268 cumulative IPC: 1.01979 (Simulation time: 1 hr 4 min 49 sec) 
Heartbeat CPU 0 instructions: 120000000 cycles: 87843146 heartbeat IPC: 1.2201 cumulative IPC: 1.02219 (Simulation time: 1 hr 5 min 21 sec) 
Heartbeat CPU 0 instructions: 121000001 cycles: 88629057 heartbeat IPC: 1.27241 cumulative IPC: 1.02503 (Simulation time: 1 hr 5 min 51 sec) 
Heartbeat CPU 0 instructions: 122000002 cycles: 89908169 heartbeat IPC: 0.781793 cumulative IPC: 1.02062 (Simulation time: 1 hr 6 min 25 sec) 
Heartbeat CPU 0 instructions: 123000000 cycles: 90751208 heartbeat IPC: 1.18618 cumulative IPC: 1.02257 (Simulation time: 1 hr 6 min 55 sec) 
Heartbeat CPU 0 instructions: 124000000 cycles: 91583303 heartbeat IPC: 1.20179 cumulative IPC: 1.02464 (Simulation time: 1 hr 7 min 23 sec) 
Heartbeat CPU 0 instructions: 125000002 cycles: 92779839 heartbeat IPC: 0.835748 cumulative IPC: 1.02156 (Simulation time: 1 hr 7 min 55 sec) 
Heartbeat CPU 0 instructions: 126000000 cycles: 93628264 heartbeat IPC: 1.17865 cumulative IPC: 1.02336 (Simulation time: 1 hr 8 min 24 sec) 
Heartbeat CPU 0 instructions: 127000000 cycles: 94470544 heartbeat IPC: 1.18725 cumulative IPC: 1.02519 (Simulation time: 1 hr 8 min 56 sec) 
Heartbeat CPU 0 instructions: 128000000 cycles: 95360969 heartbeat IPC: 1.12306 cumulative IPC: 1.02634 (Simulation time: 1 hr 9 min 28 sec) 
Heartbeat CPU 0 instructions: 129000002 cycles: 96206313 heartbeat IPC: 1.18295 cumulative IPC: 1.02806 (Simulation time: 1 hr 9 min 57 sec) 
Heartbeat CPU 0 instructions: 130000000 cycles: 97031324 heartbeat IPC: 1.2121 cumulative IPC: 1.03002 (Simulation time: 1 hr 10 min 29 sec) 
Heartbeat CPU 0 instructions: 131000000 cycles: 97882191 heartbeat IPC: 1.17527 cumulative IPC: 1.03159 (Simulation time: 1 hr 10 min 59 sec) 
Heartbeat CPU 0 instructions: 132000000 cycles: 98767368 heartbeat IPC: 1.12972 cumulative IPC: 1.03269 (Simulation time: 1 hr 11 min 28 sec) 
Heartbeat CPU 0 instructions: 133000002 cycles: 99600312 heartbeat IPC: 1.20056 cumulative IPC: 1.03443 (Simulation time: 1 hr 11 min 57 sec) 
Heartbeat CPU 0 instructions: 134000000 cycles: 100520778 heartbeat IPC: 1.0864 cumulative IPC: 1.03502 (Simulation time: 1 hr 12 min 31 sec) 
Heartbeat CPU 0 instructions: 135000001 cycles: 101695453 heartbeat IPC: 0.8513 cumulative IPC: 1.0324 (Simulation time: 1 hr 13 min 0 sec) 
Heartbeat CPU 0 instructions: 136000000 cycles: 102573283 heartbeat IPC: 1.13917 cumulative IPC: 1.03352 (Simulation time: 1 hr 13 min 27 sec) 
Heartbeat CPU 0 instructions: 137000001 cycles: 103433447 heartbeat IPC: 1.16257 cumulative IPC: 1.03484 (Simulation time: 1 hr 13 min 55 sec) 
Heartbeat CPU 0 instructions: 138000001 cycles: 104712123 heartbeat IPC: 0.782059 cumulative IPC: 1.03106 (Simulation time: 1 hr 14 min 23 sec) 
Heartbeat CPU 0 instructions: 139000001 cycles: 105555072 heartbeat IPC: 1.18631 cumulative IPC: 1.03257 (Simulation time: 1 hr 14 min 48 sec) 
Heartbeat CPU 0 instructions: 140000000 cycles: 106369216 heartbeat IPC: 1.22828 cumulative IPC: 1.03441 (Simulation time: 1 hr 15 min 13 sec) 
Heartbeat CPU 0 instructions: 141000001 cycles: 107411568 heartbeat IPC: 0.95937 cumulative IPC: 1.03352 (Simulation time: 1 hr 15 min 40 sec) 
Heartbeat CPU 0 instructions: 142000000 cycles: 108365823 heartbeat IPC: 1.04794 cumulative IPC: 1.03367 (Simulation time: 1 hr 16 min 7 sec) 
Heartbeat CPU 0 instructions: 143000000 cycles: 109210846 heartbeat IPC: 1.1834 cumulative IPC: 1.03508 (Simulation time: 1 hr 16 min 34 sec) 
Heartbeat CPU 0 instructions: 144000000 cycles: 110077744 heartbeat IPC: 1.15354 cumulative IPC: 1.03621 (Simulation time: 1 hr 17 min 1 sec) 
Heartbeat CPU 0 instructions: 145000002 cycles: 111185188 heartbeat IPC: 0.902982 cumulative IPC: 1.03461 (Simulation time: 1 hr 17 min 28 sec) 
Heartbeat CPU 0 instructions: 146000000 cycles: 112041445 heartbeat IPC: 1.16787 cumulative IPC: 1.03584 (Simulation time: 1 hr 17 min 54 sec) 
Heartbeat CPU 0 instructions: 147000002 cycles: 112859102 heartbeat IPC: 1.22301 cumulative IPC: 1.03747 (Simulation time: 1 hr 18 min 19 sec) 
Heartbeat CPU 0 instructions: 148000000 cycles: 114134239 heartbeat IPC: 0.784228 cumulative IPC: 1.03407 (Simulation time: 1 hr 18 min 44 sec) 
Heartbeat CPU 0 instructions: 149000000 cycles: 115296693 heartbeat IPC: 0.860249 cumulative IPC: 1.03196 (Simulation time: 1 hr 19 min 10 sec) 
Heartbeat CPU 0 instructions: 150000001 cycles: 116145127 heartbeat IPC: 1.17864 cumulative IPC: 1.03325 (Simulation time: 1 hr 19 min 31 sec) 
Finished CPU 0 instructions: 100000003 cycles: 96782368 cummulative IPC: 1.03325 (Simulation time: 1 hr 19 min 31 sec) 

ChampSim completed all CPUs

Region of Interest Statistics

CPU 0 cummulative IPC: 1.03325 instructions: 100000003 cycles: 96782368
LLC TOTAL     ACCESS:    1600615  HIT:     827645  MISS:     772970
LLC LOAD      ACCESS:     216515  HIT:     173057  MISS:      43458
LLC RFO       ACCESS:     111328  HIT:     104730  MISS:       6598
LLC PREFETCH  ACCESS:    1135797  HIT:     413172  MISS:     722625
LLC WRITEBACK ACCESS:     136975  HIT:     136686  MISS:        289
OPTgen accesses: 7378
OPTgen hits: 7387
OPTgen hit rate: 100.122


