
*** ChampSim Multicore Out-of-Order Simulator ***

Warmup Instructions: 50000000
Simulation Instructions: 100000000
Configuration: 2
Number of CPUs: 1
LLC sets: 2048
LLC ways: 16
Off-chip DRAM Channels: 1 Width: 64-bit Data Rate: 1600 MT/s

CPU 0 runs /datasets/cs240c-wi22-a00-public/data/Assignment2-gz/zeusmp_100B.trace.gz
CPU 0 L1D next line prefetcher
CPU 0 L2C IP-based stride prefetcher
Initialize Hawkeye state
Heartbeat CPU 0 instructions: 1000002 cycles: 462679 heartbeat IPC: 2.16133 cumulative IPC: 2.16133 (Simulation time: 0 hr 0 min 35 sec) 
Heartbeat CPU 0 instructions: 2000001 cycles: 925469 heartbeat IPC: 2.16081 cumulative IPC: 2.16107 (Simulation time: 0 hr 1 min 10 sec) 
Heartbeat CPU 0 instructions: 3000003 cycles: 1388509 heartbeat IPC: 2.15964 cumulative IPC: 2.16059 (Simulation time: 0 hr 1 min 43 sec) 
Heartbeat CPU 0 instructions: 4000000 cycles: 1851236 heartbeat IPC: 2.16109 cumulative IPC: 2.16072 (Simulation time: 0 hr 2 min 21 sec) 
Heartbeat CPU 0 instructions: 5000003 cycles: 2314175 heartbeat IPC: 2.16012 cumulative IPC: 2.1606 (Simulation time: 0 hr 3 min 2 sec) 
Heartbeat CPU 0 instructions: 6000001 cycles: 2777030 heartbeat IPC: 2.1605 cumulative IPC: 2.16058 (Simulation time: 0 hr 3 min 41 sec) 
Heartbeat CPU 0 instructions: 7000001 cycles: 3239713 heartbeat IPC: 2.16131 cumulative IPC: 2.16069 (Simulation time: 0 hr 4 min 18 sec) 
Heartbeat CPU 0 instructions: 8000000 cycles: 3702585 heartbeat IPC: 2.16042 cumulative IPC: 2.16065 (Simulation time: 0 hr 4 min 53 sec) 
Heartbeat CPU 0 instructions: 9000003 cycles: 4165366 heartbeat IPC: 2.16086 cumulative IPC: 2.16068 (Simulation time: 0 hr 5 min 26 sec) 
Heartbeat CPU 0 instructions: 10000001 cycles: 4628690 heartbeat IPC: 2.15831 cumulative IPC: 2.16044 (Simulation time: 0 hr 5 min 58 sec) 
Heartbeat CPU 0 instructions: 11000000 cycles: 5092318 heartbeat IPC: 2.1569 cumulative IPC: 2.16012 (Simulation time: 0 hr 6 min 32 sec) 
Heartbeat CPU 0 instructions: 12000000 cycles: 5556006 heartbeat IPC: 2.15662 cumulative IPC: 2.15982 (Simulation time: 0 hr 7 min 5 sec) 
Heartbeat CPU 0 instructions: 13000001 cycles: 6019115 heartbeat IPC: 2.15932 cumulative IPC: 2.15979 (Simulation time: 0 hr 7 min 39 sec) 
Heartbeat CPU 0 instructions: 14000002 cycles: 6481909 heartbeat IPC: 2.16079 cumulative IPC: 2.15986 (Simulation time: 0 hr 8 min 12 sec) 
Heartbeat CPU 0 instructions: 15000002 cycles: 6944861 heartbeat IPC: 2.16005 cumulative IPC: 2.15987 (Simulation time: 0 hr 8 min 44 sec) 
Heartbeat CPU 0 instructions: 16000000 cycles: 7407533 heartbeat IPC: 2.16135 cumulative IPC: 2.15996 (Simulation time: 0 hr 9 min 15 sec) 
Heartbeat CPU 0 instructions: 17000000 cycles: 7838195 heartbeat IPC: 2.32201 cumulative IPC: 2.16887 (Simulation time: 0 hr 9 min 47 sec) 
Heartbeat CPU 0 instructions: 18000001 cycles: 8265863 heartbeat IPC: 2.33826 cumulative IPC: 2.17763 (Simulation time: 0 hr 10 min 19 sec) 
Heartbeat CPU 0 instructions: 19000002 cycles: 8693057 heartbeat IPC: 2.34086 cumulative IPC: 2.18565 (Simulation time: 0 hr 10 min 51 sec) 
Heartbeat CPU 0 instructions: 20000000 cycles: 9120470 heartbeat IPC: 2.33965 cumulative IPC: 2.19287 (Simulation time: 0 hr 11 min 24 sec) 
Heartbeat CPU 0 instructions: 21000001 cycles: 9547749 heartbeat IPC: 2.34039 cumulative IPC: 2.19947 (Simulation time: 0 hr 11 min 55 sec) 
Heartbeat CPU 0 instructions: 22000001 cycles: 9975177 heartbeat IPC: 2.33958 cumulative IPC: 2.20547 (Simulation time: 0 hr 12 min 27 sec) 
Heartbeat CPU 0 instructions: 23000000 cycles: 10403228 heartbeat IPC: 2.33617 cumulative IPC: 2.21085 (Simulation time: 0 hr 12 min 58 sec) 
Heartbeat CPU 0 instructions: 24000000 cycles: 10830541 heartbeat IPC: 2.3402 cumulative IPC: 2.21596 (Simulation time: 0 hr 13 min 29 sec) 
Heartbeat CPU 0 instructions: 25000002 cycles: 11257785 heartbeat IPC: 2.34059 cumulative IPC: 2.22069 (Simulation time: 0 hr 14 min 0 sec) 
Heartbeat CPU 0 instructions: 26000001 cycles: 11685229 heartbeat IPC: 2.33949 cumulative IPC: 2.22503 (Simulation time: 0 hr 14 min 32 sec) 
Heartbeat CPU 0 instructions: 27000003 cycles: 12113054 heartbeat IPC: 2.33741 cumulative IPC: 2.229 (Simulation time: 0 hr 15 min 5 sec) 
Heartbeat CPU 0 instructions: 28000000 cycles: 12540556 heartbeat IPC: 2.33916 cumulative IPC: 2.23276 (Simulation time: 0 hr 15 min 36 sec) 
Heartbeat CPU 0 instructions: 29000002 cycles: 12967724 heartbeat IPC: 2.341 cumulative IPC: 2.23632 (Simulation time: 0 hr 16 min 8 sec) 
Heartbeat CPU 0 instructions: 30000003 cycles: 13395163 heartbeat IPC: 2.33952 cumulative IPC: 2.23961 (Simulation time: 0 hr 16 min 39 sec) 
Heartbeat CPU 0 instructions: 31000001 cycles: 13822845 heartbeat IPC: 2.33818 cumulative IPC: 2.24266 (Simulation time: 0 hr 17 min 11 sec) 
Heartbeat CPU 0 instructions: 32000000 cycles: 14250547 heartbeat IPC: 2.33807 cumulative IPC: 2.24553 (Simulation time: 0 hr 17 min 42 sec) 
Heartbeat CPU 0 instructions: 33000002 cycles: 14677539 heartbeat IPC: 2.34197 cumulative IPC: 2.24833 (Simulation time: 0 hr 18 min 14 sec) 
Heartbeat CPU 0 instructions: 34000001 cycles: 15104725 heartbeat IPC: 2.3409 cumulative IPC: 2.25095 (Simulation time: 0 hr 18 min 46 sec) 
Heartbeat CPU 0 instructions: 35000003 cycles: 15532160 heartbeat IPC: 2.33954 cumulative IPC: 2.25339 (Simulation time: 0 hr 19 min 17 sec) 
Heartbeat CPU 0 instructions: 36000000 cycles: 15959785 heartbeat IPC: 2.33849 cumulative IPC: 2.25567 (Simulation time: 0 hr 19 min 49 sec) 
Heartbeat CPU 0 instructions: 37000001 cycles: 16387228 heartbeat IPC: 2.3395 cumulative IPC: 2.25786 (Simulation time: 0 hr 20 min 25 sec) 
Heartbeat CPU 0 instructions: 38000003 cycles: 16814704 heartbeat IPC: 2.33932 cumulative IPC: 2.25993 (Simulation time: 0 hr 20 min 57 sec) 
Heartbeat CPU 0 instructions: 39000000 cycles: 17242300 heartbeat IPC: 2.33865 cumulative IPC: 2.26188 (Simulation time: 0 hr 21 min 31 sec) 
Heartbeat CPU 0 instructions: 40000000 cycles: 17669636 heartbeat IPC: 2.34008 cumulative IPC: 2.26377 (Simulation time: 0 hr 22 min 4 sec) 
Heartbeat CPU 0 instructions: 41000003 cycles: 18097552 heartbeat IPC: 2.33691 cumulative IPC: 2.2655 (Simulation time: 0 hr 22 min 41 sec) 
Heartbeat CPU 0 instructions: 42000000 cycles: 18524656 heartbeat IPC: 2.34134 cumulative IPC: 2.26725 (Simulation time: 0 hr 23 min 14 sec) 
Heartbeat CPU 0 instructions: 43000003 cycles: 18952074 heartbeat IPC: 2.33964 cumulative IPC: 2.26888 (Simulation time: 0 hr 23 min 47 sec) 
Heartbeat CPU 0 instructions: 44000000 cycles: 19379530 heartbeat IPC: 2.33942 cumulative IPC: 2.27044 (Simulation time: 0 hr 24 min 21 sec) 
Heartbeat CPU 0 instructions: 45000001 cycles: 19807137 heartbeat IPC: 2.3386 cumulative IPC: 2.27191 (Simulation time: 0 hr 24 min 54 sec) 
Heartbeat CPU 0 instructions: 46000000 cycles: 20234735 heartbeat IPC: 2.33864 cumulative IPC: 2.27332 (Simulation time: 0 hr 25 min 26 sec) 
Heartbeat CPU 0 instructions: 47000003 cycles: 20661981 heartbeat IPC: 2.34058 cumulative IPC: 2.27471 (Simulation time: 0 hr 25 min 59 sec) 
Heartbeat CPU 0 instructions: 48000000 cycles: 21089432 heartbeat IPC: 2.33944 cumulative IPC: 2.27602 (Simulation time: 0 hr 26 min 31 sec) 
Heartbeat CPU 0 instructions: 49000001 cycles: 21516521 heartbeat IPC: 2.34143 cumulative IPC: 2.27732 (Simulation time: 0 hr 27 min 3 sec) 
Heartbeat CPU 0 instructions: 50000000 cycles: 21944545 heartbeat IPC: 2.33632 cumulative IPC: 2.27847 (Simulation time: 0 hr 27 min 34 sec) 

Warmup complete CPU 0 instructions: 50000003 cycles: 21944546 (Simulation time: 0 hr 27 min 34 sec) 

Heartbeat CPU 0 instructions: 51000002 cycles: 22638195 heartbeat IPC: 1.44165 cumulative IPC: 1.44165 (Simulation time: 0 hr 28 min 11 sec) 
Heartbeat CPU 0 instructions: 52000000 cycles: 23319619 heartbeat IPC: 1.46751 cumulative IPC: 1.45447 (Simulation time: 0 hr 28 min 48 sec) 
Heartbeat CPU 0 instructions: 53000001 cycles: 24012099 heartbeat IPC: 1.44409 cumulative IPC: 1.45099 (Simulation time: 0 hr 29 min 26 sec) 
Heartbeat CPU 0 instructions: 54000003 cycles: 24697855 heartbeat IPC: 1.45825 cumulative IPC: 1.4528 (Simulation time: 0 hr 30 min 5 sec) 
Heartbeat CPU 0 instructions: 55000003 cycles: 25383871 heartbeat IPC: 1.45769 cumulative IPC: 1.45377 (Simulation time: 0 hr 30 min 43 sec) 
Heartbeat CPU 0 instructions: 56000000 cycles: 26074006 heartbeat IPC: 1.44899 cumulative IPC: 1.45297 (Simulation time: 0 hr 31 min 20 sec) 
Heartbeat CPU 0 instructions: 57000003 cycles: 26752679 heartbeat IPC: 1.47347 cumulative IPC: 1.45587 (Simulation time: 0 hr 31 min 57 sec) 
Heartbeat CPU 0 instructions: 58000003 cycles: 27446392 heartbeat IPC: 1.44152 cumulative IPC: 1.45406 (Simulation time: 0 hr 32 min 33 sec) 
Heartbeat CPU 0 instructions: 59000000 cycles: 28130723 heartbeat IPC: 1.46128 cumulative IPC: 1.45486 (Simulation time: 0 hr 33 min 9 sec) 
Heartbeat CPU 0 instructions: 60000000 cycles: 28828960 heartbeat IPC: 1.43218 cumulative IPC: 1.45256 (Simulation time: 0 hr 33 min 47 sec) 
Heartbeat CPU 0 instructions: 61000000 cycles: 29512952 heartbeat IPC: 1.46201 cumulative IPC: 1.45341 (Simulation time: 0 hr 34 min 21 sec) 
Heartbeat CPU 0 instructions: 62000001 cycles: 30209426 heartbeat IPC: 1.43581 cumulative IPC: 1.45193 (Simulation time: 0 hr 34 min 58 sec) 
Heartbeat CPU 0 instructions: 63000001 cycles: 30895158 heartbeat IPC: 1.4583 cumulative IPC: 1.45241 (Simulation time: 0 hr 35 min 33 sec) 
Heartbeat CPU 0 instructions: 64000000 cycles: 31593899 heartbeat IPC: 1.43114 cumulative IPC: 1.45087 (Simulation time: 0 hr 36 min 12 sec) 
Heartbeat CPU 0 instructions: 65000003 cycles: 32275840 heartbeat IPC: 1.46641 cumulative IPC: 1.4519 (Simulation time: 0 hr 36 min 49 sec) 
Heartbeat CPU 0 instructions: 66000003 cycles: 32971360 heartbeat IPC: 1.43777 cumulative IPC: 1.45101 (Simulation time: 0 hr 37 min 24 sec) 
Heartbeat CPU 0 instructions: 67000000 cycles: 33655713 heartbeat IPC: 1.46123 cumulative IPC: 1.45161 (Simulation time: 0 hr 37 min 56 sec) 
Heartbeat CPU 0 instructions: 68000000 cycles: 34344598 heartbeat IPC: 1.45162 cumulative IPC: 1.45161 (Simulation time: 0 hr 38 min 34 sec) 
Heartbeat CPU 0 instructions: 69000000 cycles: 35028124 heartbeat IPC: 1.463 cumulative IPC: 1.4522 (Simulation time: 0 hr 39 min 12 sec) 
Heartbeat CPU 0 instructions: 70000003 cycles: 35708612 heartbeat IPC: 1.46954 cumulative IPC: 1.45306 (Simulation time: 0 hr 39 min 47 sec) 
Heartbeat CPU 0 instructions: 71000003 cycles: 36400839 heartbeat IPC: 1.44461 cumulative IPC: 1.45265 (Simulation time: 0 hr 40 min 19 sec) 
Heartbeat CPU 0 instructions: 72000000 cycles: 37083381 heartbeat IPC: 1.46511 cumulative IPC: 1.45322 (Simulation time: 0 hr 40 min 49 sec) 
Heartbeat CPU 0 instructions: 73000002 cycles: 37778693 heartbeat IPC: 1.43821 cumulative IPC: 1.45256 (Simulation time: 0 hr 41 min 19 sec) 
Heartbeat CPU 0 instructions: 74000003 cycles: 38457915 heartbeat IPC: 1.47227 cumulative IPC: 1.45337 (Simulation time: 0 hr 41 min 52 sec) 
Heartbeat CPU 0 instructions: 75000003 cycles: 39148614 heartbeat IPC: 1.44781 cumulative IPC: 1.45314 (Simulation time: 0 hr 42 min 23 sec) 
Heartbeat CPU 0 instructions: 76000000 cycles: 39830370 heartbeat IPC: 1.4668 cumulative IPC: 1.45367 (Simulation time: 0 hr 42 min 50 sec) 
Heartbeat CPU 0 instructions: 77000003 cycles: 40528587 heartbeat IPC: 1.43222 cumulative IPC: 1.45286 (Simulation time: 0 hr 43 min 20 sec) 
Heartbeat CPU 0 instructions: 78000002 cycles: 41214489 heartbeat IPC: 1.45793 cumulative IPC: 1.45304 (Simulation time: 0 hr 43 min 46 sec) 
Heartbeat CPU 0 instructions: 79000000 cycles: 41906771 heartbeat IPC: 1.4445 cumulative IPC: 1.45274 (Simulation time: 0 hr 44 min 13 sec) 
Heartbeat CPU 0 instructions: 80000000 cycles: 42589182 heartbeat IPC: 1.46539 cumulative IPC: 1.45316 (Simulation time: 0 hr 44 min 40 sec) 
Heartbeat CPU 0 instructions: 81000003 cycles: 43285027 heartbeat IPC: 1.43711 cumulative IPC: 1.45264 (Simulation time: 0 hr 45 min 9 sec) 
Heartbeat CPU 0 instructions: 82000000 cycles: 43970248 heartbeat IPC: 1.45938 cumulative IPC: 1.45285 (Simulation time: 0 hr 45 min 37 sec) 
Heartbeat CPU 0 instructions: 83000002 cycles: 44651807 heartbeat IPC: 1.46723 cumulative IPC: 1.45328 (Simulation time: 0 hr 46 min 6 sec) 
Heartbeat CPU 0 instructions: 84000000 cycles: 45344052 heartbeat IPC: 1.44457 cumulative IPC: 1.45302 (Simulation time: 0 hr 46 min 36 sec) 
Heartbeat CPU 0 instructions: 85000001 cycles: 46025272 heartbeat IPC: 1.46796 cumulative IPC: 1.45344 (Simulation time: 0 hr 47 min 6 sec) 
Heartbeat CPU 0 instructions: 86000001 cycles: 46718963 heartbeat IPC: 1.44156 cumulative IPC: 1.45311 (Simulation time: 0 hr 47 min 34 sec) 
Heartbeat CPU 0 instructions: 87000001 cycles: 47401067 heartbeat IPC: 1.46605 cumulative IPC: 1.45346 (Simulation time: 0 hr 48 min 3 sec) 
Heartbeat CPU 0 instructions: 88000000 cycles: 48094557 heartbeat IPC: 1.44198 cumulative IPC: 1.45315 (Simulation time: 0 hr 48 min 32 sec) 
Heartbeat CPU 0 instructions: 89000003 cycles: 48778407 heartbeat IPC: 1.46231 cumulative IPC: 1.45339 (Simulation time: 0 hr 49 min 1 sec) 
Heartbeat CPU 0 instructions: 90000001 cycles: 49472792 heartbeat IPC: 1.44012 cumulative IPC: 1.45305 (Simulation time: 0 hr 49 min 31 sec) 
Heartbeat CPU 0 instructions: 91000001 cycles: 50156144 heartbeat IPC: 1.46337 cumulative IPC: 1.4533 (Simulation time: 0 hr 49 min 59 sec) 
Heartbeat CPU 0 instructions: 92000000 cycles: 50848960 heartbeat IPC: 1.44338 cumulative IPC: 1.45307 (Simulation time: 0 hr 50 min 29 sec) 
Heartbeat CPU 0 instructions: 93000001 cycles: 51531663 heartbeat IPC: 1.46477 cumulative IPC: 1.45334 (Simulation time: 0 hr 51 min 0 sec) 
Heartbeat CPU 0 instructions: 94000003 cycles: 52224559 heartbeat IPC: 1.44322 cumulative IPC: 1.4531 (Simulation time: 0 hr 51 min 29 sec) 
Heartbeat CPU 0 instructions: 95000003 cycles: 52911917 heartbeat IPC: 1.45485 cumulative IPC: 1.45314 (Simulation time: 0 hr 52 min 0 sec) 
Heartbeat CPU 0 instructions: 96000000 cycles: 53599618 heartbeat IPC: 1.45412 cumulative IPC: 1.45316 (Simulation time: 0 hr 52 min 31 sec) 
Heartbeat CPU 0 instructions: 97000000 cycles: 54292041 heartbeat IPC: 1.4442 cumulative IPC: 1.45297 (Simulation time: 0 hr 53 min 0 sec) 
Heartbeat CPU 0 instructions: 98000001 cycles: 54971723 heartbeat IPC: 1.47128 cumulative IPC: 1.45335 (Simulation time: 0 hr 53 min 31 sec) 
Heartbeat CPU 0 instructions: 99000001 cycles: 55677601 heartbeat IPC: 1.41668 cumulative IPC: 1.45258 (Simulation time: 0 hr 54 min 0 sec) 
Heartbeat CPU 0 instructions: 100000000 cycles: 56375358 heartbeat IPC: 1.43316 cumulative IPC: 1.45219 (Simulation time: 0 hr 54 min 31 sec) 
Heartbeat CPU 0 instructions: 101000002 cycles: 57081555 heartbeat IPC: 1.41604 cumulative IPC: 1.45146 (Simulation time: 0 hr 55 min 3 sec) 
Heartbeat CPU 0 instructions: 102000003 cycles: 57779225 heartbeat IPC: 1.43334 cumulative IPC: 1.45111 (Simulation time: 0 hr 55 min 32 sec) 
Heartbeat CPU 0 instructions: 103000001 cycles: 58493454 heartbeat IPC: 1.40011 cumulative IPC: 1.45011 (Simulation time: 0 hr 56 min 2 sec) 
Heartbeat CPU 0 instructions: 104000000 cycles: 59193721 heartbeat IPC: 1.42803 cumulative IPC: 1.4497 (Simulation time: 0 hr 56 min 33 sec) 
Heartbeat CPU 0 instructions: 105000003 cycles: 59903917 heartbeat IPC: 1.40807 cumulative IPC: 1.44892 (Simulation time: 0 hr 57 min 1 sec) 
Heartbeat CPU 0 instructions: 106000002 cycles: 60595760 heartbeat IPC: 1.44541 cumulative IPC: 1.44885 (Simulation time: 0 hr 57 min 30 sec) 
Heartbeat CPU 0 instructions: 107000000 cycles: 61296215 heartbeat IPC: 1.42764 cumulative IPC: 1.44848 (Simulation time: 0 hr 58 min 0 sec) 
Heartbeat CPU 0 instructions: 108000000 cycles: 61980052 heartbeat IPC: 1.46234 cumulative IPC: 1.44871 (Simulation time: 0 hr 58 min 29 sec) 
Heartbeat CPU 0 instructions: 109000002 cycles: 62664952 heartbeat IPC: 1.46007 cumulative IPC: 1.4489 (Simulation time: 0 hr 59 min 2 sec) 
Heartbeat CPU 0 instructions: 110000000 cycles: 63357041 heartbeat IPC: 1.4449 cumulative IPC: 1.44884 (Simulation time: 0 hr 59 min 27 sec) 
Heartbeat CPU 0 instructions: 111000002 cycles: 64036559 heartbeat IPC: 1.47163 cumulative IPC: 1.44921 (Simulation time: 0 hr 59 min 55 sec) 
Heartbeat CPU 0 instructions: 112000000 cycles: 64728268 heartbeat IPC: 1.44569 cumulative IPC: 1.44915 (Simulation time: 1 hr 0 min 23 sec) 
Heartbeat CPU 0 instructions: 113000001 cycles: 65408895 heartbeat IPC: 1.46923 cumulative IPC: 1.44946 (Simulation time: 1 hr 0 min 52 sec) 
Heartbeat CPU 0 instructions: 114000002 cycles: 66108595 heartbeat IPC: 1.42919 cumulative IPC: 1.44914 (Simulation time: 1 hr 1 min 21 sec) 
Heartbeat CPU 0 instructions: 115000000 cycles: 66793419 heartbeat IPC: 1.46023 cumulative IPC: 1.44931 (Simulation time: 1 hr 1 min 49 sec) 
Heartbeat CPU 0 instructions: 116000000 cycles: 67485914 heartbeat IPC: 1.44405 cumulative IPC: 1.44923 (Simulation time: 1 hr 2 min 19 sec) 
Heartbeat CPU 0 instructions: 117000003 cycles: 68166720 heartbeat IPC: 1.46885 cumulative IPC: 1.44952 (Simulation time: 1 hr 2 min 46 sec) 
Heartbeat CPU 0 instructions: 118000001 cycles: 68861433 heartbeat IPC: 1.43944 cumulative IPC: 1.44937 (Simulation time: 1 hr 3 min 15 sec) 
Heartbeat CPU 0 instructions: 119000003 cycles: 69545192 heartbeat IPC: 1.46251 cumulative IPC: 1.44956 (Simulation time: 1 hr 3 min 43 sec) 
Heartbeat CPU 0 instructions: 120000000 cycles: 70235237 heartbeat IPC: 1.44918 cumulative IPC: 1.44955 (Simulation time: 1 hr 4 min 12 sec) 
Heartbeat CPU 0 instructions: 121000000 cycles: 70916278 heartbeat IPC: 1.46834 cumulative IPC: 1.44982 (Simulation time: 1 hr 4 min 40 sec) 
Heartbeat CPU 0 instructions: 122000001 cycles: 71604247 heartbeat IPC: 1.45356 cumulative IPC: 1.44987 (Simulation time: 1 hr 5 min 9 sec) 
Heartbeat CPU 0 instructions: 123000001 cycles: 72292932 heartbeat IPC: 1.45204 cumulative IPC: 1.4499 (Simulation time: 1 hr 5 min 39 sec) 
Heartbeat CPU 0 instructions: 124000000 cycles: 72973028 heartbeat IPC: 1.47038 cumulative IPC: 1.45017 (Simulation time: 1 hr 6 min 11 sec) 
Heartbeat CPU 0 instructions: 125000002 cycles: 73665830 heartbeat IPC: 1.44342 cumulative IPC: 1.45008 (Simulation time: 1 hr 6 min 45 sec) 
Heartbeat CPU 0 instructions: 126000001 cycles: 74346061 heartbeat IPC: 1.47009 cumulative IPC: 1.45034 (Simulation time: 1 hr 7 min 14 sec) 
Heartbeat CPU 0 instructions: 127000002 cycles: 75036043 heartbeat IPC: 1.44931 cumulative IPC: 1.45033 (Simulation time: 1 hr 7 min 42 sec) 
Heartbeat CPU 0 instructions: 128000000 cycles: 75715444 heartbeat IPC: 1.47188 cumulative IPC: 1.4506 (Simulation time: 1 hr 8 min 18 sec) 
Heartbeat CPU 0 instructions: 129000001 cycles: 76407868 heartbeat IPC: 1.4442 cumulative IPC: 1.45052 (Simulation time: 1 hr 8 min 54 sec) 
Heartbeat CPU 0 instructions: 130000002 cycles: 77089006 heartbeat IPC: 1.46813 cumulative IPC: 1.45073 (Simulation time: 1 hr 9 min 24 sec) 
Heartbeat CPU 0 instructions: 131000000 cycles: 77779383 heartbeat IPC: 1.44848 cumulative IPC: 1.45071 (Simulation time: 1 hr 9 min 54 sec) 
Heartbeat CPU 0 instructions: 132000000 cycles: 78461063 heartbeat IPC: 1.46696 cumulative IPC: 1.4509 (Simulation time: 1 hr 10 min 23 sec) 
Heartbeat CPU 0 instructions: 133000001 cycles: 79155463 heartbeat IPC: 1.44009 cumulative IPC: 1.45077 (Simulation time: 1 hr 10 min 54 sec) 
Heartbeat CPU 0 instructions: 134000000 cycles: 79837180 heartbeat IPC: 1.46688 cumulative IPC: 1.45096 (Simulation time: 1 hr 11 min 22 sec) 
Heartbeat CPU 0 instructions: 135000001 cycles: 80526042 heartbeat IPC: 1.45167 cumulative IPC: 1.45097 (Simulation time: 1 hr 11 min 49 sec) 
Heartbeat CPU 0 instructions: 136000000 cycles: 81208329 heartbeat IPC: 1.46566 cumulative IPC: 1.45114 (Simulation time: 1 hr 12 min 14 sec) 
Heartbeat CPU 0 instructions: 137000001 cycles: 81889378 heartbeat IPC: 1.46832 cumulative IPC: 1.45133 (Simulation time: 1 hr 12 min 41 sec) 
Heartbeat CPU 0 instructions: 138000002 cycles: 82581396 heartbeat IPC: 1.44505 cumulative IPC: 1.45126 (Simulation time: 1 hr 13 min 9 sec) 
Heartbeat CPU 0 instructions: 139000001 cycles: 83263316 heartbeat IPC: 1.46645 cumulative IPC: 1.45143 (Simulation time: 1 hr 13 min 36 sec) 
Heartbeat CPU 0 instructions: 140000000 cycles: 83961471 heartbeat IPC: 1.43235 cumulative IPC: 1.45122 (Simulation time: 1 hr 14 min 3 sec) 
Heartbeat CPU 0 instructions: 141000001 cycles: 84640803 heartbeat IPC: 1.47204 cumulative IPC: 1.45144 (Simulation time: 1 hr 14 min 30 sec) 
Heartbeat CPU 0 instructions: 142000001 cycles: 85334095 heartbeat IPC: 1.44239 cumulative IPC: 1.45134 (Simulation time: 1 hr 14 min 56 sec) 
Heartbeat CPU 0 instructions: 143000000 cycles: 86016619 heartbeat IPC: 1.46515 cumulative IPC: 1.45149 (Simulation time: 1 hr 15 min 26 sec) 
Heartbeat CPU 0 instructions: 144000000 cycles: 86710541 heartbeat IPC: 1.44108 cumulative IPC: 1.45138 (Simulation time: 1 hr 15 min 53 sec) 
Heartbeat CPU 0 instructions: 145000001 cycles: 87389094 heartbeat IPC: 1.47373 cumulative IPC: 1.45161 (Simulation time: 1 hr 16 min 21 sec) 
Heartbeat CPU 0 instructions: 146000003 cycles: 88086408 heartbeat IPC: 1.43408 cumulative IPC: 1.45143 (Simulation time: 1 hr 16 min 50 sec) 
Heartbeat CPU 0 instructions: 147000002 cycles: 88770678 heartbeat IPC: 1.46141 cumulative IPC: 1.45153 (Simulation time: 1 hr 17 min 14 sec) 
Heartbeat CPU 0 instructions: 148000000 cycles: 89465445 heartbeat IPC: 1.43933 cumulative IPC: 1.4514 (Simulation time: 1 hr 17 min 41 sec) 
Heartbeat CPU 0 instructions: 149000001 cycles: 90152025 heartbeat IPC: 1.4565 cumulative IPC: 1.45145 (Simulation time: 1 hr 18 min 6 sec) 
Heartbeat CPU 0 instructions: 150000001 cycles: 90835014 heartbeat IPC: 1.46415 cumulative IPC: 1.45158 (Simulation time: 1 hr 18 min 31 sec) 
Finished CPU 0 instructions: 100000002 cycles: 68890469 cummulative IPC: 1.45158 (Simulation time: 1 hr 18 min 31 sec) 

ChampSim completed all CPUs

Region of Interest Statistics

CPU 0 cummulative IPC: 1.45158 instructions: 100000002 cycles: 68890469
LLC TOTAL     ACCESS:     824824  HIT:     151784  MISS:     673040
LLC LOAD      ACCESS:      16710  HIT:       7543  MISS:       9167
LLC RFO       ACCESS:     202265  HIT:       3723  MISS:     198542
LLC PREFETCH  ACCESS:     403148  HIT:     103184  MISS:     299964
LLC WRITEBACK ACCESS:     202701  HIT:      37334  MISS:     165367
OPTgen accesses: 5430
OPTgen hits: 1416
OPTgen hit rate: 26.0773


