
*** ChampSim Multicore Out-of-Order Simulator ***

Warmup Instructions: 50000000
Simulation Instructions: 100000000
Configuration: 2
Number of CPUs: 1
LLC sets: 2048
LLC ways: 16
Off-chip DRAM Channels: 1 Width: 64-bit Data Rate: 1600 MT/s

CPU 0 runs /datasets/cs240c-wi22-a00-public/data/Assignment2-gz/milc_744B.trace.gz
CPU 0 L1D next line prefetcher
CPU 0 L2C IP-based stride prefetcher
Initialize Hawkeye state
Heartbeat CPU 0 instructions: 1000000 cycles: 383656 heartbeat IPC: 2.6065 cumulative IPC: 2.6065 (Simulation time: 0 hr 0 min 35 sec) 
Heartbeat CPU 0 instructions: 2000001 cycles: 767293 heartbeat IPC: 2.60663 cumulative IPC: 2.60657 (Simulation time: 0 hr 1 min 9 sec) 
Heartbeat CPU 0 instructions: 3000001 cycles: 1150974 heartbeat IPC: 2.60633 cumulative IPC: 2.60649 (Simulation time: 0 hr 1 min 46 sec) 
Heartbeat CPU 0 instructions: 4000000 cycles: 1534617 heartbeat IPC: 2.60659 cumulative IPC: 2.60651 (Simulation time: 0 hr 2 min 21 sec) 
Heartbeat CPU 0 instructions: 5000001 cycles: 1918298 heartbeat IPC: 2.60633 cumulative IPC: 2.60648 (Simulation time: 0 hr 2 min 58 sec) 
Heartbeat CPU 0 instructions: 6000002 cycles: 2301951 heartbeat IPC: 2.60652 cumulative IPC: 2.60649 (Simulation time: 0 hr 3 min 35 sec) 
Heartbeat CPU 0 instructions: 7000002 cycles: 2685605 heartbeat IPC: 2.60652 cumulative IPC: 2.60649 (Simulation time: 0 hr 4 min 11 sec) 
Heartbeat CPU 0 instructions: 8000000 cycles: 3069239 heartbeat IPC: 2.60665 cumulative IPC: 2.60651 (Simulation time: 0 hr 4 min 46 sec) 
Heartbeat CPU 0 instructions: 9000003 cycles: 3452946 heartbeat IPC: 2.60616 cumulative IPC: 2.60647 (Simulation time: 0 hr 5 min 24 sec) 
Heartbeat CPU 0 instructions: 10000002 cycles: 3836611 heartbeat IPC: 2.60644 cumulative IPC: 2.60647 (Simulation time: 0 hr 5 min 58 sec) 
Heartbeat CPU 0 instructions: 11000003 cycles: 4220269 heartbeat IPC: 2.60649 cumulative IPC: 2.60647 (Simulation time: 0 hr 6 min 35 sec) 
Heartbeat CPU 0 instructions: 12000000 cycles: 4603919 heartbeat IPC: 2.60653 cumulative IPC: 2.60648 (Simulation time: 0 hr 7 min 9 sec) 
Heartbeat CPU 0 instructions: 13000002 cycles: 4987595 heartbeat IPC: 2.60637 cumulative IPC: 2.60647 (Simulation time: 0 hr 7 min 47 sec) 
Heartbeat CPU 0 instructions: 14000001 cycles: 5371239 heartbeat IPC: 2.60658 cumulative IPC: 2.60648 (Simulation time: 0 hr 8 min 24 sec) 
Heartbeat CPU 0 instructions: 15000001 cycles: 5754911 heartbeat IPC: 2.60639 cumulative IPC: 2.60647 (Simulation time: 0 hr 9 min 2 sec) 
Heartbeat CPU 0 instructions: 16000000 cycles: 6138558 heartbeat IPC: 2.60656 cumulative IPC: 2.60648 (Simulation time: 0 hr 9 min 38 sec) 
Heartbeat CPU 0 instructions: 17000001 cycles: 6522213 heartbeat IPC: 2.60651 cumulative IPC: 2.60648 (Simulation time: 0 hr 10 min 15 sec) 
Heartbeat CPU 0 instructions: 18000003 cycles: 6905855 heartbeat IPC: 2.6066 cumulative IPC: 2.60648 (Simulation time: 0 hr 10 min 50 sec) 
Heartbeat CPU 0 instructions: 19000002 cycles: 7289496 heartbeat IPC: 2.6066 cumulative IPC: 2.60649 (Simulation time: 0 hr 11 min 27 sec) 
Heartbeat CPU 0 instructions: 20000000 cycles: 7673132 heartbeat IPC: 2.60663 cumulative IPC: 2.6065 (Simulation time: 0 hr 12 min 3 sec) 
Heartbeat CPU 0 instructions: 21000003 cycles: 8056837 heartbeat IPC: 2.60618 cumulative IPC: 2.60648 (Simulation time: 0 hr 12 min 38 sec) 
Heartbeat CPU 0 instructions: 22000002 cycles: 8440504 heartbeat IPC: 2.60642 cumulative IPC: 2.60648 (Simulation time: 0 hr 13 min 14 sec) 
Heartbeat CPU 0 instructions: 23000000 cycles: 8824165 heartbeat IPC: 2.60646 cumulative IPC: 2.60648 (Simulation time: 0 hr 13 min 51 sec) 
Heartbeat CPU 0 instructions: 24000000 cycles: 9207788 heartbeat IPC: 2.60673 cumulative IPC: 2.60649 (Simulation time: 0 hr 14 min 27 sec) 
Heartbeat CPU 0 instructions: 25000002 cycles: 9591463 heartbeat IPC: 2.60638 cumulative IPC: 2.60648 (Simulation time: 0 hr 15 min 4 sec) 
Heartbeat CPU 0 instructions: 26000001 cycles: 9975122 heartbeat IPC: 2.60648 cumulative IPC: 2.60648 (Simulation time: 0 hr 15 min 40 sec) 
Heartbeat CPU 0 instructions: 27000001 cycles: 10358818 heartbeat IPC: 2.60623 cumulative IPC: 2.60648 (Simulation time: 0 hr 16 min 17 sec) 
Heartbeat CPU 0 instructions: 28000000 cycles: 10742467 heartbeat IPC: 2.60655 cumulative IPC: 2.60648 (Simulation time: 0 hr 16 min 55 sec) 
Heartbeat CPU 0 instructions: 29000000 cycles: 11126140 heartbeat IPC: 2.60639 cumulative IPC: 2.60647 (Simulation time: 0 hr 17 min 32 sec) 
Heartbeat CPU 0 instructions: 30000003 cycles: 11509791 heartbeat IPC: 2.60654 cumulative IPC: 2.60648 (Simulation time: 0 hr 18 min 7 sec) 
Heartbeat CPU 0 instructions: 31000002 cycles: 11893424 heartbeat IPC: 2.60666 cumulative IPC: 2.60648 (Simulation time: 0 hr 18 min 43 sec) 
Heartbeat CPU 0 instructions: 32000000 cycles: 12277079 heartbeat IPC: 2.6065 cumulative IPC: 2.60648 (Simulation time: 0 hr 19 min 17 sec) 
Heartbeat CPU 0 instructions: 33000001 cycles: 12660737 heartbeat IPC: 2.60649 cumulative IPC: 2.60648 (Simulation time: 0 hr 19 min 51 sec) 
Heartbeat CPU 0 instructions: 34000002 cycles: 13044413 heartbeat IPC: 2.60637 cumulative IPC: 2.60648 (Simulation time: 0 hr 20 min 28 sec) 
Heartbeat CPU 0 instructions: 35000000 cycles: 13428051 heartbeat IPC: 2.60662 cumulative IPC: 2.60648 (Simulation time: 0 hr 21 min 4 sec) 
Heartbeat CPU 0 instructions: 36000000 cycles: 13811694 heartbeat IPC: 2.60659 cumulative IPC: 2.60649 (Simulation time: 0 hr 21 min 41 sec) 
Heartbeat CPU 0 instructions: 37000001 cycles: 14195360 heartbeat IPC: 2.60644 cumulative IPC: 2.60649 (Simulation time: 0 hr 22 min 17 sec) 
Heartbeat CPU 0 instructions: 38000000 cycles: 14579025 heartbeat IPC: 2.60644 cumulative IPC: 2.60648 (Simulation time: 0 hr 22 min 54 sec) 
Heartbeat CPU 0 instructions: 39000002 cycles: 14962680 heartbeat IPC: 2.60651 cumulative IPC: 2.60649 (Simulation time: 0 hr 23 min 32 sec) 
Heartbeat CPU 0 instructions: 40000000 cycles: 15346358 heartbeat IPC: 2.60635 cumulative IPC: 2.60648 (Simulation time: 0 hr 24 min 7 sec) 
Heartbeat CPU 0 instructions: 41000003 cycles: 15730024 heartbeat IPC: 2.60644 cumulative IPC: 2.60648 (Simulation time: 0 hr 24 min 42 sec) 
Heartbeat CPU 0 instructions: 42000002 cycles: 16113669 heartbeat IPC: 2.60657 cumulative IPC: 2.60648 (Simulation time: 0 hr 25 min 20 sec) 
Heartbeat CPU 0 instructions: 43000002 cycles: 16497335 heartbeat IPC: 2.60643 cumulative IPC: 2.60648 (Simulation time: 0 hr 25 min 57 sec) 
Heartbeat CPU 0 instructions: 44000000 cycles: 16880988 heartbeat IPC: 2.60652 cumulative IPC: 2.60648 (Simulation time: 0 hr 26 min 33 sec) 
Heartbeat CPU 0 instructions: 45000000 cycles: 17264648 heartbeat IPC: 2.60647 cumulative IPC: 2.60648 (Simulation time: 0 hr 27 min 10 sec) 
Heartbeat CPU 0 instructions: 46000002 cycles: 17648338 heartbeat IPC: 2.60628 cumulative IPC: 2.60648 (Simulation time: 0 hr 27 min 45 sec) 
Heartbeat CPU 0 instructions: 47000002 cycles: 18031991 heartbeat IPC: 2.60652 cumulative IPC: 2.60648 (Simulation time: 0 hr 28 min 23 sec) 
Heartbeat CPU 0 instructions: 48000000 cycles: 18415635 heartbeat IPC: 2.60658 cumulative IPC: 2.60648 (Simulation time: 0 hr 28 min 59 sec) 
Heartbeat CPU 0 instructions: 49000001 cycles: 18799298 heartbeat IPC: 2.60646 cumulative IPC: 2.60648 (Simulation time: 0 hr 29 min 35 sec) 
Heartbeat CPU 0 instructions: 50000000 cycles: 19182930 heartbeat IPC: 2.60666 cumulative IPC: 2.60648 (Simulation time: 0 hr 30 min 12 sec) 

Warmup complete CPU 0 instructions: 50000004 cycles: 19182931 (Simulation time: 0 hr 30 min 12 sec) 

Heartbeat CPU 0 instructions: 51000001 cycles: 20629698 heartbeat IPC: 0.691197 cumulative IPC: 0.691194 (Simulation time: 0 hr 30 min 52 sec) 
Heartbeat CPU 0 instructions: 52000000 cycles: 22057388 heartbeat IPC: 0.700431 cumulative IPC: 0.695782 (Simulation time: 0 hr 31 min 30 sec) 
Heartbeat CPU 0 instructions: 53000000 cycles: 23478648 heartbeat IPC: 0.703601 cumulative IPC: 0.698369 (Simulation time: 0 hr 32 min 12 sec) 
Heartbeat CPU 0 instructions: 54000001 cycles: 24899346 heartbeat IPC: 0.70388 cumulative IPC: 0.699739 (Simulation time: 0 hr 32 min 50 sec) 
Heartbeat CPU 0 instructions: 55000003 cycles: 26322017 heartbeat IPC: 0.702905 cumulative IPC: 0.70037 (Simulation time: 0 hr 33 min 28 sec) 
Heartbeat CPU 0 instructions: 56000000 cycles: 27747520 heartbeat IPC: 0.701505 cumulative IPC: 0.700559 (Simulation time: 0 hr 34 min 8 sec) 
Heartbeat CPU 0 instructions: 57000000 cycles: 29169155 heartbeat IPC: 0.703415 cumulative IPC: 0.700965 (Simulation time: 0 hr 34 min 47 sec) 
Heartbeat CPU 0 instructions: 58000000 cycles: 30587313 heartbeat IPC: 0.70514 cumulative IPC: 0.701484 (Simulation time: 0 hr 35 min 23 sec) 
Heartbeat CPU 0 instructions: 59000002 cycles: 32010821 heartbeat IPC: 0.702491 cumulative IPC: 0.701596 (Simulation time: 0 hr 36 min 4 sec) 
Heartbeat CPU 0 instructions: 60000000 cycles: 33426242 heartbeat IPC: 0.706502 cumulative IPC: 0.702084 (Simulation time: 0 hr 36 min 43 sec) 
Heartbeat CPU 0 instructions: 61000001 cycles: 34845528 heartbeat IPC: 0.70458 cumulative IPC: 0.70231 (Simulation time: 0 hr 37 min 20 sec) 
Heartbeat CPU 0 instructions: 62000003 cycles: 36274769 heartbeat IPC: 0.699673 cumulative IPC: 0.702089 (Simulation time: 0 hr 37 min 59 sec) 
Heartbeat CPU 0 instructions: 63000001 cycles: 37698708 heartbeat IPC: 0.702276 cumulative IPC: 0.702104 (Simulation time: 0 hr 38 min 38 sec) 
Heartbeat CPU 0 instructions: 64000000 cycles: 39117804 heartbeat IPC: 0.704673 cumulative IPC: 0.702287 (Simulation time: 0 hr 39 min 18 sec) 
Heartbeat CPU 0 instructions: 65000002 cycles: 40543411 heartbeat IPC: 0.701457 cumulative IPC: 0.702231 (Simulation time: 0 hr 39 min 59 sec) 
Heartbeat CPU 0 instructions: 66000001 cycles: 41959662 heartbeat IPC: 0.706089 cumulative IPC: 0.702471 (Simulation time: 0 hr 40 min 35 sec) 
Heartbeat CPU 0 instructions: 67000003 cycles: 43380869 heartbeat IPC: 0.703629 cumulative IPC: 0.702539 (Simulation time: 0 hr 41 min 12 sec) 
Heartbeat CPU 0 instructions: 68000000 cycles: 44808646 heartbeat IPC: 0.700387 cumulative IPC: 0.702419 (Simulation time: 0 hr 41 min 44 sec) 
Heartbeat CPU 0 instructions: 69000003 cycles: 46232344 heartbeat IPC: 0.702398 cumulative IPC: 0.702418 (Simulation time: 0 hr 42 min 18 sec) 
Heartbeat CPU 0 instructions: 70000002 cycles: 47655010 heartbeat IPC: 0.702905 cumulative IPC: 0.702442 (Simulation time: 0 hr 42 min 49 sec) 
Heartbeat CPU 0 instructions: 71000002 cycles: 49064832 heartbeat IPC: 0.709309 cumulative IPC: 0.702766 (Simulation time: 0 hr 43 min 23 sec) 
Heartbeat CPU 0 instructions: 72000000 cycles: 50489669 heartbeat IPC: 0.701833 cumulative IPC: 0.702724 (Simulation time: 0 hr 43 min 54 sec) 
Heartbeat CPU 0 instructions: 73000002 cycles: 51911171 heartbeat IPC: 0.703483 cumulative IPC: 0.702757 (Simulation time: 0 hr 44 min 28 sec) 
Heartbeat CPU 0 instructions: 74000002 cycles: 53331129 heartbeat IPC: 0.704246 cumulative IPC: 0.702819 (Simulation time: 0 hr 45 min 4 sec) 
Heartbeat CPU 0 instructions: 75000001 cycles: 54747844 heartbeat IPC: 0.705858 cumulative IPC: 0.70294 (Simulation time: 0 hr 45 min 38 sec) 
Heartbeat CPU 0 instructions: 76000000 cycles: 56168851 heartbeat IPC: 0.703726 cumulative IPC: 0.70297 (Simulation time: 0 hr 46 min 10 sec) 
Heartbeat CPU 0 instructions: 77000002 cycles: 57590742 heartbeat IPC: 0.70329 cumulative IPC: 0.702982 (Simulation time: 0 hr 46 min 41 sec) 
Heartbeat CPU 0 instructions: 78000000 cycles: 59015085 heartbeat IPC: 0.702077 cumulative IPC: 0.70295 (Simulation time: 0 hr 47 min 15 sec) 
Heartbeat CPU 0 instructions: 79000000 cycles: 60442246 heartbeat IPC: 0.700692 cumulative IPC: 0.702872 (Simulation time: 0 hr 47 min 48 sec) 
Heartbeat CPU 0 instructions: 80000000 cycles: 61866031 heartbeat IPC: 0.702353 cumulative IPC: 0.702854 (Simulation time: 0 hr 48 min 20 sec) 
Heartbeat CPU 0 instructions: 81000003 cycles: 63283229 heartbeat IPC: 0.70562 cumulative IPC: 0.702943 (Simulation time: 0 hr 48 min 54 sec) 
Heartbeat CPU 0 instructions: 82000003 cycles: 64704442 heartbeat IPC: 0.703624 cumulative IPC: 0.702964 (Simulation time: 0 hr 49 min 32 sec) 
Heartbeat CPU 0 instructions: 83000002 cycles: 66124335 heartbeat IPC: 0.704278 cumulative IPC: 0.703004 (Simulation time: 0 hr 50 min 4 sec) 
Heartbeat CPU 0 instructions: 84000000 cycles: 67542969 heartbeat IPC: 0.704902 cumulative IPC: 0.70306 (Simulation time: 0 hr 50 min 37 sec) 
Heartbeat CPU 0 instructions: 85000000 cycles: 68962094 heartbeat IPC: 0.70466 cumulative IPC: 0.703105 (Simulation time: 0 hr 51 min 11 sec) 
Heartbeat CPU 0 instructions: 86000001 cycles: 70380340 heartbeat IPC: 0.705097 cumulative IPC: 0.703161 (Simulation time: 0 hr 51 min 44 sec) 
Heartbeat CPU 0 instructions: 87000001 cycles: 71806371 heartbeat IPC: 0.701247 cumulative IPC: 0.703109 (Simulation time: 0 hr 52 min 19 sec) 
Heartbeat CPU 0 instructions: 88000000 cycles: 73227966 heartbeat IPC: 0.703435 cumulative IPC: 0.703117 (Simulation time: 0 hr 52 min 52 sec) 
Heartbeat CPU 0 instructions: 89000001 cycles: 74643741 heartbeat IPC: 0.706328 cumulative IPC: 0.703199 (Simulation time: 0 hr 53 min 27 sec) 
Heartbeat CPU 0 instructions: 90000000 cycles: 76064924 heartbeat IPC: 0.703638 cumulative IPC: 0.70321 (Simulation time: 0 hr 53 min 59 sec) 
Heartbeat CPU 0 instructions: 91000001 cycles: 77490737 heartbeat IPC: 0.701355 cumulative IPC: 0.703165 (Simulation time: 0 hr 54 min 34 sec) 
Heartbeat CPU 0 instructions: 92000000 cycles: 82027875 heartbeat IPC: 0.220403 cumulative IPC: 0.668311 (Simulation time: 0 hr 55 min 40 sec) 
Heartbeat CPU 0 instructions: 93000000 cycles: 86690524 heartbeat IPC: 0.21447 cumulative IPC: 0.636965 (Simulation time: 0 hr 56 min 48 sec) 
Heartbeat CPU 0 instructions: 94000002 cycles: 89874469 heartbeat IPC: 0.314076 cumulative IPC: 0.622422 (Simulation time: 0 hr 57 min 39 sec) 
Heartbeat CPU 0 instructions: 95000000 cycles: 91205480 heartbeat IPC: 0.751307 cumulative IPC: 0.624804 (Simulation time: 0 hr 58 min 19 sec) 
Heartbeat CPU 0 instructions: 96000000 cycles: 92557033 heartbeat IPC: 0.73989 cumulative IPC: 0.626924 (Simulation time: 0 hr 58 min 53 sec) 
Heartbeat CPU 0 instructions: 97000002 cycles: 93800846 heartbeat IPC: 0.803981 cumulative IPC: 0.629876 (Simulation time: 0 hr 59 min 26 sec) 
Heartbeat CPU 0 instructions: 98000003 cycles: 95041165 heartbeat IPC: 0.806245 cumulative IPC: 0.632759 (Simulation time: 0 hr 59 min 57 sec) 
Heartbeat CPU 0 instructions: 99000000 cycles: 96284906 heartbeat IPC: 0.804024 cumulative IPC: 0.635522 (Simulation time: 1 hr 0 min 28 sec) 
Heartbeat CPU 0 instructions: 100000000 cycles: 97542214 heartbeat IPC: 0.79535 cumulative IPC: 0.638086 (Simulation time: 1 hr 1 min 1 sec) 
Heartbeat CPU 0 instructions: 101000001 cycles: 98794906 heartbeat IPC: 0.798282 cumulative IPC: 0.640607 (Simulation time: 1 hr 1 min 33 sec) 
Heartbeat CPU 0 instructions: 102000000 cycles: 100052804 heartbeat IPC: 0.794976 cumulative IPC: 0.643008 (Simulation time: 1 hr 2 min 6 sec) 
Heartbeat CPU 0 instructions: 103000002 cycles: 101310218 heartbeat IPC: 0.795285 cumulative IPC: 0.64534 (Simulation time: 1 hr 2 min 36 sec) 
Heartbeat CPU 0 instructions: 104000000 cycles: 102568959 heartbeat IPC: 0.794443 cumulative IPC: 0.64759 (Simulation time: 1 hr 3 min 6 sec) 
Heartbeat CPU 0 instructions: 105000003 cycles: 103827831 heartbeat IPC: 0.794364 cumulative IPC: 0.649773 (Simulation time: 1 hr 3 min 36 sec) 
Heartbeat CPU 0 instructions: 106000002 cycles: 105083230 heartbeat IPC: 0.796559 cumulative IPC: 0.651919 (Simulation time: 1 hr 4 min 7 sec) 
Heartbeat CPU 0 instructions: 107000002 cycles: 106343767 heartbeat IPC: 0.793313 cumulative IPC: 0.653963 (Simulation time: 1 hr 4 min 39 sec) 
Heartbeat CPU 0 instructions: 108000000 cycles: 107605906 heartbeat IPC: 0.792304 cumulative IPC: 0.655938 (Simulation time: 1 hr 5 min 9 sec) 
Heartbeat CPU 0 instructions: 109000001 cycles: 108859424 heartbeat IPC: 0.797756 cumulative IPC: 0.65792 (Simulation time: 1 hr 5 min 39 sec) 
Heartbeat CPU 0 instructions: 110000001 cycles: 110120497 heartbeat IPC: 0.792975 cumulative IPC: 0.659793 (Simulation time: 1 hr 6 min 9 sec) 
Heartbeat CPU 0 instructions: 111000000 cycles: 111379494 heartbeat IPC: 0.794282 cumulative IPC: 0.66163 (Simulation time: 1 hr 6 min 38 sec) 
Heartbeat CPU 0 instructions: 112000000 cycles: 112637309 heartbeat IPC: 0.795029 cumulative IPC: 0.663425 (Simulation time: 1 hr 7 min 10 sec) 
Heartbeat CPU 0 instructions: 113000002 cycles: 113898288 heartbeat IPC: 0.793036 cumulative IPC: 0.665151 (Simulation time: 1 hr 7 min 44 sec) 
Heartbeat CPU 0 instructions: 114000000 cycles: 115151664 heartbeat IPC: 0.797844 cumulative IPC: 0.666884 (Simulation time: 1 hr 8 min 17 sec) 
Heartbeat CPU 0 instructions: 115000002 cycles: 116409782 heartbeat IPC: 0.79484 cumulative IPC: 0.66854 (Simulation time: 1 hr 8 min 50 sec) 
Heartbeat CPU 0 instructions: 116000000 cycles: 117669106 heartbeat IPC: 0.794075 cumulative IPC: 0.670145 (Simulation time: 1 hr 9 min 19 sec) 
Heartbeat CPU 0 instructions: 117000003 cycles: 118926349 heartbeat IPC: 0.795394 cumulative IPC: 0.671723 (Simulation time: 1 hr 9 min 49 sec) 
Heartbeat CPU 0 instructions: 118000000 cycles: 120188105 heartbeat IPC: 0.792544 cumulative IPC: 0.673233 (Simulation time: 1 hr 10 min 20 sec) 
Heartbeat CPU 0 instructions: 119000003 cycles: 121450199 heartbeat IPC: 0.792336 cumulative IPC: 0.674703 (Simulation time: 1 hr 10 min 53 sec) 
Heartbeat CPU 0 instructions: 120000000 cycles: 122711662 heartbeat IPC: 0.792728 cumulative IPC: 0.676141 (Simulation time: 1 hr 11 min 21 sec) 
Heartbeat CPU 0 instructions: 121000003 cycles: 123969393 heartbeat IPC: 0.795085 cumulative IPC: 0.677568 (Simulation time: 1 hr 11 min 49 sec) 
Heartbeat CPU 0 instructions: 122000001 cycles: 125232275 heartbeat IPC: 0.791838 cumulative IPC: 0.678929 (Simulation time: 1 hr 12 min 18 sec) 
Heartbeat CPU 0 instructions: 123000000 cycles: 126489918 heartbeat IPC: 0.795137 cumulative IPC: 0.680291 (Simulation time: 1 hr 12 min 46 sec) 
Heartbeat CPU 0 instructions: 124000000 cycles: 127750101 heartbeat IPC: 0.793536 cumulative IPC: 0.681606 (Simulation time: 1 hr 13 min 14 sec) 
Heartbeat CPU 0 instructions: 125000003 cycles: 129011401 heartbeat IPC: 0.792835 cumulative IPC: 0.682883 (Simulation time: 1 hr 13 min 42 sec) 
Heartbeat CPU 0 instructions: 126000000 cycles: 130270400 heartbeat IPC: 0.794279 cumulative IPC: 0.684146 (Simulation time: 1 hr 14 min 13 sec) 
Heartbeat CPU 0 instructions: 127000000 cycles: 131531329 heartbeat IPC: 0.793066 cumulative IPC: 0.685368 (Simulation time: 1 hr 14 min 41 sec) 
Heartbeat CPU 0 instructions: 128000000 cycles: 132789917 heartbeat IPC: 0.794541 cumulative IPC: 0.686577 (Simulation time: 1 hr 15 min 10 sec) 
Heartbeat CPU 0 instructions: 129000000 cycles: 134048309 heartbeat IPC: 0.794665 cumulative IPC: 0.687762 (Simulation time: 1 hr 15 min 39 sec) 
Heartbeat CPU 0 instructions: 130000002 cycles: 135307221 heartbeat IPC: 0.794338 cumulative IPC: 0.688917 (Simulation time: 1 hr 16 min 6 sec) 
Heartbeat CPU 0 instructions: 131000002 cycles: 136569015 heartbeat IPC: 0.792522 cumulative IPC: 0.690031 (Simulation time: 1 hr 16 min 34 sec) 
Heartbeat CPU 0 instructions: 132000000 cycles: 137831835 heartbeat IPC: 0.791877 cumulative IPC: 0.691115 (Simulation time: 1 hr 17 min 1 sec) 
Heartbeat CPU 0 instructions: 133000002 cycles: 139091225 heartbeat IPC: 0.794037 cumulative IPC: 0.692196 (Simulation time: 1 hr 17 min 28 sec) 
Heartbeat CPU 0 instructions: 134000002 cycles: 140352321 heartbeat IPC: 0.792961 cumulative IPC: 0.693244 (Simulation time: 1 hr 17 min 55 sec) 
Heartbeat CPU 0 instructions: 135000000 cycles: 141612131 heartbeat IPC: 0.793769 cumulative IPC: 0.694279 (Simulation time: 1 hr 18 min 26 sec) 
Heartbeat CPU 0 instructions: 136000000 cycles: 142874824 heartbeat IPC: 0.791958 cumulative IPC: 0.695276 (Simulation time: 1 hr 18 min 53 sec) 
Heartbeat CPU 0 instructions: 137000001 cycles: 144127665 heartbeat IPC: 0.798187 cumulative IPC: 0.696308 (Simulation time: 1 hr 19 min 20 sec) 
Heartbeat CPU 0 instructions: 138000003 cycles: 145394137 heartbeat IPC: 0.789597 cumulative IPC: 0.697244 (Simulation time: 1 hr 19 min 44 sec) 
Heartbeat CPU 0 instructions: 139000001 cycles: 146651565 heartbeat IPC: 0.795273 cumulative IPC: 0.698211 (Simulation time: 1 hr 20 min 6 sec) 
Heartbeat CPU 0 instructions: 140000000 cycles: 147915734 heartbeat IPC: 0.791033 cumulative IPC: 0.699122 (Simulation time: 1 hr 20 min 28 sec) 
Heartbeat CPU 0 instructions: 141000003 cycles: 149178458 heartbeat IPC: 0.791941 cumulative IPC: 0.700024 (Simulation time: 1 hr 20 min 50 sec) 
Heartbeat CPU 0 instructions: 142000001 cycles: 150438632 heartbeat IPC: 0.79354 cumulative IPC: 0.700922 (Simulation time: 1 hr 21 min 12 sec) 
Heartbeat CPU 0 instructions: 143000001 cycles: 151700832 heartbeat IPC: 0.792267 cumulative IPC: 0.701792 (Simulation time: 1 hr 21 min 32 sec) 
Heartbeat CPU 0 instructions: 144000000 cycles: 152957472 heartbeat IPC: 0.795772 cumulative IPC: 0.702675 (Simulation time: 1 hr 21 min 53 sec) 
Heartbeat CPU 0 instructions: 145000001 cycles: 154210035 heartbeat IPC: 0.798364 cumulative IPC: 0.703562 (Simulation time: 1 hr 22 min 16 sec) 
Heartbeat CPU 0 instructions: 146000003 cycles: 155458044 heartbeat IPC: 0.801278 cumulative IPC: 0.704457 (Simulation time: 1 hr 22 min 41 sec) 
Heartbeat CPU 0 instructions: 147000003 cycles: 156717821 heartbeat IPC: 0.793791 cumulative IPC: 0.705276 (Simulation time: 1 hr 23 min 4 sec) 
Heartbeat CPU 0 instructions: 148000000 cycles: 157975607 heartbeat IPC: 0.795045 cumulative IPC: 0.706089 (Simulation time: 1 hr 23 min 28 sec) 
Heartbeat CPU 0 instructions: 149000001 cycles: 159233481 heartbeat IPC: 0.794993 cumulative IPC: 0.706888 (Simulation time: 1 hr 23 min 52 sec) 
Heartbeat CPU 0 instructions: 150000003 cycles: 160492811 heartbeat IPC: 0.794075 cumulative IPC: 0.707665 (Simulation time: 1 hr 24 min 16 sec) 
Finished CPU 0 instructions: 100000003 cycles: 141309881 cummulative IPC: 0.707665 (Simulation time: 1 hr 24 min 16 sec) 

ChampSim completed all CPUs

Region of Interest Statistics

CPU 0 cummulative IPC: 0.707665 instructions: 100000003 cycles: 141309881
LLC TOTAL     ACCESS:    2853535  HIT:      71664  MISS:    2781871
LLC LOAD      ACCESS:     878558  HIT:        108  MISS:     878450
LLC RFO       ACCESS:     539880  HIT:       7655  MISS:     532225
LLC PREFETCH  ACCESS:     755114  HIT:       3084  MISS:     752030
LLC WRITEBACK ACCESS:     679983  HIT:      60817  MISS:     619166
OPTgen accesses: 25472
OPTgen hits: 68
OPTgen hit rate: 0.26696


