
*** ChampSim Multicore Out-of-Order Simulator ***

Warmup Instructions: 50000000
Simulation Instructions: 100000000
Configuration: 2
Number of CPUs: 1
LLC sets: 2048
LLC ways: 16
Off-chip DRAM Channels: 1 Width: 64-bit Data Rate: 1600 MT/s

CPU 0 runs /datasets/cs240c-wi22-a00-public/data/Assignment2-gz/gcc_56B.trace.gz
CPU 0 L1D next line prefetcher
CPU 0 L2C IP-based stride prefetcher
Initialize Hawkeye state
Heartbeat CPU 0 instructions: 1000003 cycles: 954151 heartbeat IPC: 1.04806 cumulative IPC: 1.04806 (Simulation time: 0 hr 0 min 48 sec) 
Heartbeat CPU 0 instructions: 2000001 cycles: 1898349 heartbeat IPC: 1.0591 cumulative IPC: 1.05355 (Simulation time: 0 hr 1 min 31 sec) 
Heartbeat CPU 0 instructions: 3000001 cycles: 2885593 heartbeat IPC: 1.01292 cumulative IPC: 1.03965 (Simulation time: 0 hr 2 min 14 sec) 
Heartbeat CPU 0 instructions: 4000000 cycles: 3848221 heartbeat IPC: 1.03882 cumulative IPC: 1.03944 (Simulation time: 0 hr 2 min 59 sec) 
Heartbeat CPU 0 instructions: 5000002 cycles: 4737701 heartbeat IPC: 1.12425 cumulative IPC: 1.05536 (Simulation time: 0 hr 3 min 40 sec) 
Heartbeat CPU 0 instructions: 6000000 cycles: 5685656 heartbeat IPC: 1.0549 cumulative IPC: 1.05529 (Simulation time: 0 hr 4 min 23 sec) 
Heartbeat CPU 0 instructions: 7000000 cycles: 6649890 heartbeat IPC: 1.03709 cumulative IPC: 1.05265 (Simulation time: 0 hr 5 min 8 sec) 
Heartbeat CPU 0 instructions: 8000000 cycles: 7611113 heartbeat IPC: 1.04034 cumulative IPC: 1.05109 (Simulation time: 0 hr 5 min 53 sec) 
Heartbeat CPU 0 instructions: 9000000 cycles: 8622586 heartbeat IPC: 0.988657 cumulative IPC: 1.04377 (Simulation time: 0 hr 6 min 35 sec) 
Heartbeat CPU 0 instructions: 10000002 cycles: 9583097 heartbeat IPC: 1.04111 cumulative IPC: 1.0435 (Simulation time: 0 hr 7 min 19 sec) 
Heartbeat CPU 0 instructions: 11000002 cycles: 10472393 heartbeat IPC: 1.12449 cumulative IPC: 1.05038 (Simulation time: 0 hr 8 min 1 sec) 
Heartbeat CPU 0 instructions: 12000000 cycles: 11357924 heartbeat IPC: 1.12926 cumulative IPC: 1.05653 (Simulation time: 0 hr 8 min 43 sec) 
Heartbeat CPU 0 instructions: 13000001 cycles: 12297171 heartbeat IPC: 1.06468 cumulative IPC: 1.05715 (Simulation time: 0 hr 9 min 24 sec) 
Heartbeat CPU 0 instructions: 14000000 cycles: 13290642 heartbeat IPC: 1.00657 cumulative IPC: 1.05337 (Simulation time: 0 hr 10 min 8 sec) 
Heartbeat CPU 0 instructions: 15000003 cycles: 14246129 heartbeat IPC: 1.04659 cumulative IPC: 1.05292 (Simulation time: 0 hr 10 min 53 sec) 
Heartbeat CPU 0 instructions: 16000000 cycles: 15246171 heartbeat IPC: 0.999955 cumulative IPC: 1.04944 (Simulation time: 0 hr 11 min 36 sec) 
Heartbeat CPU 0 instructions: 17000001 cycles: 16221154 heartbeat IPC: 1.02566 cumulative IPC: 1.04801 (Simulation time: 0 hr 12 min 17 sec) 
Heartbeat CPU 0 instructions: 18000000 cycles: 17121983 heartbeat IPC: 1.11009 cumulative IPC: 1.05128 (Simulation time: 0 hr 12 min 57 sec) 
Heartbeat CPU 0 instructions: 19000000 cycles: 18045877 heartbeat IPC: 1.08238 cumulative IPC: 1.05287 (Simulation time: 0 hr 13 min 39 sec) 
Heartbeat CPU 0 instructions: 20000000 cycles: 18990386 heartbeat IPC: 1.05875 cumulative IPC: 1.05316 (Simulation time: 0 hr 14 min 23 sec) 
Heartbeat CPU 0 instructions: 21000000 cycles: 19947017 heartbeat IPC: 1.04534 cumulative IPC: 1.05279 (Simulation time: 0 hr 15 min 6 sec) 
Heartbeat CPU 0 instructions: 22000000 cycles: 20939401 heartbeat IPC: 1.00767 cumulative IPC: 1.05065 (Simulation time: 0 hr 15 min 50 sec) 
Heartbeat CPU 0 instructions: 23000000 cycles: 21860051 heartbeat IPC: 1.08619 cumulative IPC: 1.05215 (Simulation time: 0 hr 16 min 31 sec) 
Heartbeat CPU 0 instructions: 24000000 cycles: 22777462 heartbeat IPC: 1.09002 cumulative IPC: 1.05367 (Simulation time: 0 hr 17 min 14 sec) 
Heartbeat CPU 0 instructions: 25000000 cycles: 23713194 heartbeat IPC: 1.06868 cumulative IPC: 1.05427 (Simulation time: 0 hr 17 min 55 sec) 
Heartbeat CPU 0 instructions: 26000002 cycles: 24633681 heartbeat IPC: 1.08638 cumulative IPC: 1.05547 (Simulation time: 0 hr 18 min 37 sec) 
Heartbeat CPU 0 instructions: 27000000 cycles: 25585993 heartbeat IPC: 1.05007 cumulative IPC: 1.05526 (Simulation time: 0 hr 19 min 21 sec) 
Heartbeat CPU 0 instructions: 28000000 cycles: 26583765 heartbeat IPC: 1.00223 cumulative IPC: 1.05327 (Simulation time: 0 hr 20 min 2 sec) 
Heartbeat CPU 0 instructions: 29000000 cycles: 27583171 heartbeat IPC: 1.00059 cumulative IPC: 1.05137 (Simulation time: 0 hr 20 min 46 sec) 
Heartbeat CPU 0 instructions: 30000000 cycles: 28562056 heartbeat IPC: 1.02157 cumulative IPC: 1.05034 (Simulation time: 0 hr 21 min 29 sec) 
Heartbeat CPU 0 instructions: 31000000 cycles: 29476450 heartbeat IPC: 1.09362 cumulative IPC: 1.05169 (Simulation time: 0 hr 22 min 12 sec) 
Heartbeat CPU 0 instructions: 32000000 cycles: 30387154 heartbeat IPC: 1.09805 cumulative IPC: 1.05308 (Simulation time: 0 hr 22 min 56 sec) 
Heartbeat CPU 0 instructions: 33000002 cycles: 31312871 heartbeat IPC: 1.08025 cumulative IPC: 1.05388 (Simulation time: 0 hr 23 min 40 sec) 
Heartbeat CPU 0 instructions: 34000002 cycles: 32279383 heartbeat IPC: 1.03465 cumulative IPC: 1.0533 (Simulation time: 0 hr 24 min 23 sec) 
Heartbeat CPU 0 instructions: 35000002 cycles: 33244047 heartbeat IPC: 1.03663 cumulative IPC: 1.05282 (Simulation time: 0 hr 25 min 7 sec) 
Heartbeat CPU 0 instructions: 36000000 cycles: 34239319 heartbeat IPC: 1.00475 cumulative IPC: 1.05142 (Simulation time: 0 hr 25 min 50 sec) 
Heartbeat CPU 0 instructions: 37000000 cycles: 35205864 heartbeat IPC: 1.03461 cumulative IPC: 1.05096 (Simulation time: 0 hr 26 min 36 sec) 
Heartbeat CPU 0 instructions: 38000002 cycles: 36155156 heartbeat IPC: 1.05342 cumulative IPC: 1.05103 (Simulation time: 0 hr 27 min 20 sec) 
Heartbeat CPU 0 instructions: 39000000 cycles: 37066136 heartbeat IPC: 1.09772 cumulative IPC: 1.05217 (Simulation time: 0 hr 28 min 3 sec) 
Heartbeat CPU 0 instructions: 40000000 cycles: 38010457 heartbeat IPC: 1.05896 cumulative IPC: 1.05234 (Simulation time: 0 hr 28 min 48 sec) 
Heartbeat CPU 0 instructions: 41000001 cycles: 38985289 heartbeat IPC: 1.02582 cumulative IPC: 1.05168 (Simulation time: 0 hr 29 min 32 sec) 
Heartbeat CPU 0 instructions: 42000003 cycles: 39974542 heartbeat IPC: 1.01087 cumulative IPC: 1.05067 (Simulation time: 0 hr 30 min 17 sec) 
Heartbeat CPU 0 instructions: 43000001 cycles: 40938702 heartbeat IPC: 1.03717 cumulative IPC: 1.05035 (Simulation time: 0 hr 31 min 1 sec) 
Heartbeat CPU 0 instructions: 44000000 cycles: 41869464 heartbeat IPC: 1.07439 cumulative IPC: 1.05089 (Simulation time: 0 hr 31 min 44 sec) 
Heartbeat CPU 0 instructions: 45000000 cycles: 42778763 heartbeat IPC: 1.09975 cumulative IPC: 1.05192 (Simulation time: 0 hr 32 min 26 sec) 
Heartbeat CPU 0 instructions: 46000001 cycles: 43731183 heartbeat IPC: 1.04996 cumulative IPC: 1.05188 (Simulation time: 0 hr 33 min 10 sec) 
Heartbeat CPU 0 instructions: 47000001 cycles: 44686065 heartbeat IPC: 1.04725 cumulative IPC: 1.05178 (Simulation time: 0 hr 33 min 51 sec) 
Heartbeat CPU 0 instructions: 48000000 cycles: 45666145 heartbeat IPC: 1.02032 cumulative IPC: 1.05111 (Simulation time: 0 hr 34 min 32 sec) 
Heartbeat CPU 0 instructions: 49000002 cycles: 46667605 heartbeat IPC: 0.998544 cumulative IPC: 1.04998 (Simulation time: 0 hr 35 min 16 sec) 
Heartbeat CPU 0 instructions: 50000000 cycles: 47652570 heartbeat IPC: 1.01526 cumulative IPC: 1.04926 (Simulation time: 0 hr 36 min 1 sec) 

Warmup complete CPU 0 instructions: 50000001 cycles: 47652572 (Simulation time: 0 hr 36 min 1 sec) 

Heartbeat CPU 0 instructions: 51000000 cycles: 49006417 heartbeat IPC: 0.738636 cumulative IPC: 0.738636 (Simulation time: 0 hr 36 min 42 sec) 
Heartbeat CPU 0 instructions: 52000000 cycles: 50398390 heartbeat IPC: 0.718405 cumulative IPC: 0.72838 (Simulation time: 0 hr 37 min 26 sec) 
Heartbeat CPU 0 instructions: 53000001 cycles: 51735784 heartbeat IPC: 0.747724 cumulative IPC: 0.734716 (Simulation time: 0 hr 38 min 12 sec) 
Heartbeat CPU 0 instructions: 54000000 cycles: 53050835 heartbeat IPC: 0.760426 cumulative IPC: 0.740979 (Simulation time: 0 hr 38 min 55 sec) 
Heartbeat CPU 0 instructions: 55000001 cycles: 54356896 heartbeat IPC: 0.765662 cumulative IPC: 0.745787 (Simulation time: 0 hr 39 min 40 sec) 
Heartbeat CPU 0 instructions: 56000000 cycles: 55680024 heartbeat IPC: 0.755784 cumulative IPC: 0.747435 (Simulation time: 0 hr 40 min 24 sec) 
Heartbeat CPU 0 instructions: 57000001 cycles: 57014699 heartbeat IPC: 0.749247 cumulative IPC: 0.747693 (Simulation time: 0 hr 41 min 4 sec) 
Heartbeat CPU 0 instructions: 58000000 cycles: 58387511 heartbeat IPC: 0.728431 cumulative IPC: 0.74523 (Simulation time: 0 hr 41 min 46 sec) 
Heartbeat CPU 0 instructions: 59000000 cycles: 59780752 heartbeat IPC: 0.717751 cumulative IPC: 0.742073 (Simulation time: 0 hr 42 min 27 sec) 
Heartbeat CPU 0 instructions: 60000000 cycles: 61156810 heartbeat IPC: 0.726714 cumulative IPC: 0.740508 (Simulation time: 0 hr 43 min 13 sec) 
Heartbeat CPU 0 instructions: 61000000 cycles: 62486955 heartbeat IPC: 0.751798 cumulative IPC: 0.74152 (Simulation time: 0 hr 43 min 51 sec) 
Heartbeat CPU 0 instructions: 62000002 cycles: 63846622 heartbeat IPC: 0.735476 cumulative IPC: 0.741013 (Simulation time: 0 hr 44 min 31 sec) 
Heartbeat CPU 0 instructions: 63000003 cycles: 65160997 heartbeat IPC: 0.760819 cumulative IPC: 0.7425 (Simulation time: 0 hr 45 min 8 sec) 
Heartbeat CPU 0 instructions: 64000000 cycles: 66479971 heartbeat IPC: 0.758163 cumulative IPC: 0.743597 (Simulation time: 0 hr 45 min 45 sec) 
Heartbeat CPU 0 instructions: 65000000 cycles: 67821772 heartbeat IPC: 0.745267 cumulative IPC: 0.743708 (Simulation time: 0 hr 46 min 22 sec) 
Heartbeat CPU 0 instructions: 66000002 cycles: 69210346 heartbeat IPC: 0.720165 cumulative IPC: 0.742192 (Simulation time: 0 hr 46 min 58 sec) 
Heartbeat CPU 0 instructions: 67000002 cycles: 70597411 heartbeat IPC: 0.720947 cumulative IPC: 0.740907 (Simulation time: 0 hr 47 min 34 sec) 
Heartbeat CPU 0 instructions: 68000000 cycles: 71947749 heartbeat IPC: 0.740554 cumulative IPC: 0.740888 (Simulation time: 0 hr 48 min 9 sec) 
Heartbeat CPU 0 instructions: 69000000 cycles: 73275911 heartbeat IPC: 0.75292 cumulative IPC: 0.741511 (Simulation time: 0 hr 48 min 49 sec) 
Heartbeat CPU 0 instructions: 70000000 cycles: 74601831 heartbeat IPC: 0.754193 cumulative IPC: 0.742135 (Simulation time: 0 hr 49 min 29 sec) 
Heartbeat CPU 0 instructions: 71000003 cycles: 75943097 heartbeat IPC: 0.745566 cumulative IPC: 0.742298 (Simulation time: 0 hr 50 min 5 sec) 
Heartbeat CPU 0 instructions: 72000000 cycles: 77280416 heartbeat IPC: 0.747763 cumulative IPC: 0.742545 (Simulation time: 0 hr 50 min 40 sec) 
Heartbeat CPU 0 instructions: 73000003 cycles: 78646189 heartbeat IPC: 0.732188 cumulative IPC: 0.742088 (Simulation time: 0 hr 51 min 14 sec) 
Heartbeat CPU 0 instructions: 74000001 cycles: 80044405 heartbeat IPC: 0.715196 cumulative IPC: 0.740928 (Simulation time: 0 hr 51 min 51 sec) 
Heartbeat CPU 0 instructions: 75000003 cycles: 81417792 heartbeat IPC: 0.728128 cumulative IPC: 0.740407 (Simulation time: 0 hr 52 min 28 sec) 
Heartbeat CPU 0 instructions: 76000000 cycles: 82758850 heartbeat IPC: 0.745678 cumulative IPC: 0.740608 (Simulation time: 0 hr 53 min 4 sec) 
Heartbeat CPU 0 instructions: 77000003 cycles: 84091669 heartbeat IPC: 0.750292 cumulative IPC: 0.740962 (Simulation time: 0 hr 53 min 41 sec) 
Heartbeat CPU 0 instructions: 78000001 cycles: 85422981 heartbeat IPC: 0.751137 cumulative IPC: 0.741321 (Simulation time: 0 hr 54 min 17 sec) 
Heartbeat CPU 0 instructions: 79000000 cycles: 86780298 heartbeat IPC: 0.736747 cumulative IPC: 0.741162 (Simulation time: 0 hr 54 min 53 sec) 
Heartbeat CPU 0 instructions: 80000000 cycles: 88125070 heartbeat IPC: 0.74362 cumulative IPC: 0.741244 (Simulation time: 0 hr 55 min 28 sec) 
Heartbeat CPU 0 instructions: 81000002 cycles: 89501718 heartbeat IPC: 0.726404 cumulative IPC: 0.740756 (Simulation time: 0 hr 56 min 5 sec) 
Heartbeat CPU 0 instructions: 82000000 cycles: 90871511 heartbeat IPC: 0.730036 cumulative IPC: 0.740416 (Simulation time: 0 hr 56 min 44 sec) 
Heartbeat CPU 0 instructions: 83000003 cycles: 92202490 heartbeat IPC: 0.751329 cumulative IPC: 0.740742 (Simulation time: 0 hr 57 min 19 sec) 
Heartbeat CPU 0 instructions: 84000000 cycles: 93544135 heartbeat IPC: 0.745351 cumulative IPC: 0.740877 (Simulation time: 0 hr 57 min 56 sec) 
Heartbeat CPU 0 instructions: 85000002 cycles: 94856642 heartbeat IPC: 0.761902 cumulative IPC: 0.741462 (Simulation time: 0 hr 58 min 34 sec) 
Heartbeat CPU 0 instructions: 86000003 cycles: 96158652 heartbeat IPC: 0.768044 cumulative IPC: 0.742175 (Simulation time: 0 hr 59 min 13 sec) 
Heartbeat CPU 0 instructions: 87000000 cycles: 97539071 heartbeat IPC: 0.724416 cumulative IPC: 0.741684 (Simulation time: 0 hr 59 min 51 sec) 
Heartbeat CPU 0 instructions: 88000000 cycles: 98889062 heartbeat IPC: 0.740746 cumulative IPC: 0.741659 (Simulation time: 1 hr 0 min 29 sec) 
Heartbeat CPU 0 instructions: 89000000 cycles: 100247388 heartbeat IPC: 0.7362 cumulative IPC: 0.741518 (Simulation time: 1 hr 1 min 5 sec) 
Heartbeat CPU 0 instructions: 90000000 cycles: 101564103 heartbeat IPC: 0.759466 cumulative IPC: 0.741956 (Simulation time: 1 hr 1 min 41 sec) 
Heartbeat CPU 0 instructions: 91000001 cycles: 102870764 heartbeat IPC: 0.76531 cumulative IPC: 0.742509 (Simulation time: 1 hr 2 min 17 sec) 
Heartbeat CPU 0 instructions: 92000000 cycles: 104188171 heartbeat IPC: 0.759066 cumulative IPC: 0.742895 (Simulation time: 1 hr 2 min 53 sec) 
Heartbeat CPU 0 instructions: 93000003 cycles: 105570083 heartbeat IPC: 0.723637 cumulative IPC: 0.742435 (Simulation time: 1 hr 3 min 30 sec) 
Heartbeat CPU 0 instructions: 94000000 cycles: 106912120 heartbeat IPC: 0.745134 cumulative IPC: 0.742496 (Simulation time: 1 hr 4 min 9 sec) 
Heartbeat CPU 0 instructions: 95000000 cycles: 108263049 heartbeat IPC: 0.740231 cumulative IPC: 0.742446 (Simulation time: 1 hr 4 min 43 sec) 
Heartbeat CPU 0 instructions: 96000000 cycles: 109596602 heartbeat IPC: 0.749876 cumulative IPC: 0.742606 (Simulation time: 1 hr 5 min 21 sec) 
Heartbeat CPU 0 instructions: 97000000 cycles: 110907430 heartbeat IPC: 0.762877 cumulative IPC: 0.743026 (Simulation time: 1 hr 5 min 58 sec) 
Heartbeat CPU 0 instructions: 98000003 cycles: 112217533 heartbeat IPC: 0.763301 cumulative IPC: 0.743437 (Simulation time: 1 hr 6 min 35 sec) 
Heartbeat CPU 0 instructions: 99000000 cycles: 113605594 heartbeat IPC: 0.720427 cumulative IPC: 0.742953 (Simulation time: 1 hr 7 min 11 sec) 
Heartbeat CPU 0 instructions: 100000000 cycles: 114947613 heartbeat IPC: 0.745146 cumulative IPC: 0.742997 (Simulation time: 1 hr 7 min 47 sec) 
Heartbeat CPU 0 instructions: 101000000 cycles: 116294691 heartbeat IPC: 0.742348 cumulative IPC: 0.742984 (Simulation time: 1 hr 8 min 28 sec) 
Heartbeat CPU 0 instructions: 102000001 cycles: 117608523 heartbeat IPC: 0.761133 cumulative IPC: 0.743325 (Simulation time: 1 hr 9 min 3 sec) 
Heartbeat CPU 0 instructions: 103000001 cycles: 118911237 heartbeat IPC: 0.767628 cumulative IPC: 0.743769 (Simulation time: 1 hr 9 min 40 sec) 
Heartbeat CPU 0 instructions: 104000000 cycles: 120214142 heartbeat IPC: 0.767515 cumulative IPC: 0.744196 (Simulation time: 1 hr 10 min 15 sec) 
Heartbeat CPU 0 instructions: 105000002 cycles: 121592469 heartbeat IPC: 0.725519 cumulative IPC: 0.743847 (Simulation time: 1 hr 10 min 52 sec) 
Heartbeat CPU 0 instructions: 106000000 cycles: 122997004 heartbeat IPC: 0.711978 cumulative IPC: 0.743253 (Simulation time: 1 hr 11 min 27 sec) 
Heartbeat CPU 0 instructions: 107000002 cycles: 124387805 heartbeat IPC: 0.719012 cumulative IPC: 0.742814 (Simulation time: 1 hr 12 min 1 sec) 
Heartbeat CPU 0 instructions: 108000000 cycles: 125742891 heartbeat IPC: 0.737959 cumulative IPC: 0.74273 (Simulation time: 1 hr 12 min 33 sec) 
Heartbeat CPU 0 instructions: 109000000 cycles: 127078667 heartbeat IPC: 0.748628 cumulative IPC: 0.742829 (Simulation time: 1 hr 13 min 5 sec) 
Heartbeat CPU 0 instructions: 110000000 cycles: 128407506 heartbeat IPC: 0.752537 cumulative IPC: 0.742989 (Simulation time: 1 hr 13 min 38 sec) 
Heartbeat CPU 0 instructions: 111000000 cycles: 129743146 heartbeat IPC: 0.748705 cumulative IPC: 0.743082 (Simulation time: 1 hr 14 min 11 sec) 
Heartbeat CPU 0 instructions: 112000000 cycles: 131133428 heartbeat IPC: 0.719279 cumulative IPC: 0.742685 (Simulation time: 1 hr 14 min 43 sec) 
Heartbeat CPU 0 instructions: 113000000 cycles: 132505854 heartbeat IPC: 0.728637 cumulative IPC: 0.742458 (Simulation time: 1 hr 15 min 16 sec) 
Heartbeat CPU 0 instructions: 114000001 cycles: 133833916 heartbeat IPC: 0.752978 cumulative IPC: 0.74262 (Simulation time: 1 hr 15 min 49 sec) 
Heartbeat CPU 0 instructions: 115000000 cycles: 135192226 heartbeat IPC: 0.736208 cumulative IPC: 0.742521 (Simulation time: 1 hr 16 min 21 sec) 
Heartbeat CPU 0 instructions: 116000000 cycles: 136510729 heartbeat IPC: 0.758436 cumulative IPC: 0.742757 (Simulation time: 1 hr 16 min 54 sec) 
Heartbeat CPU 0 instructions: 117000000 cycles: 137818868 heartbeat IPC: 0.764445 cumulative IPC: 0.743071 (Simulation time: 1 hr 17 min 26 sec) 
Heartbeat CPU 0 instructions: 118000002 cycles: 139187896 heartbeat IPC: 0.730447 cumulative IPC: 0.742883 (Simulation time: 1 hr 17 min 56 sec) 
Heartbeat CPU 0 instructions: 119000000 cycles: 140591256 heartbeat IPC: 0.712574 cumulative IPC: 0.742425 (Simulation time: 1 hr 18 min 25 sec) 
Heartbeat CPU 0 instructions: 120000000 cycles: 142020614 heartbeat IPC: 0.699615 cumulative IPC: 0.741777 (Simulation time: 1 hr 18 min 55 sec) 
Heartbeat CPU 0 instructions: 121000000 cycles: 143374899 heartbeat IPC: 0.738397 cumulative IPC: 0.741729 (Simulation time: 1 hr 19 min 23 sec) 
Heartbeat CPU 0 instructions: 122000003 cycles: 144708785 heartbeat IPC: 0.749691 cumulative IPC: 0.741838 (Simulation time: 1 hr 19 min 48 sec) 
Heartbeat CPU 0 instructions: 123000003 cycles: 146037485 heartbeat IPC: 0.752615 cumulative IPC: 0.741984 (Simulation time: 1 hr 20 min 13 sec) 
Heartbeat CPU 0 instructions: 124000000 cycles: 147375684 heartbeat IPC: 0.747271 cumulative IPC: 0.742055 (Simulation time: 1 hr 20 min 40 sec) 
Heartbeat CPU 0 instructions: 125000001 cycles: 148763834 heartbeat IPC: 0.720384 cumulative IPC: 0.741757 (Simulation time: 1 hr 21 min 3 sec) 
Heartbeat CPU 0 instructions: 126000000 cycles: 150093851 heartbeat IPC: 0.751869 cumulative IPC: 0.741888 (Simulation time: 1 hr 21 min 28 sec) 
Heartbeat CPU 0 instructions: 127000003 cycles: 151433205 heartbeat IPC: 0.746631 cumulative IPC: 0.74195 (Simulation time: 1 hr 21 min 51 sec) 
Heartbeat CPU 0 instructions: 128000000 cycles: 152747617 heartbeat IPC: 0.760794 cumulative IPC: 0.742185 (Simulation time: 1 hr 22 min 19 sec) 
Heartbeat CPU 0 instructions: 129000003 cycles: 154049581 heartbeat IPC: 0.768073 cumulative IPC: 0.742502 (Simulation time: 1 hr 22 min 47 sec) 
Heartbeat CPU 0 instructions: 130000000 cycles: 155346099 heartbeat IPC: 0.771294 cumulative IPC: 0.742849 (Simulation time: 1 hr 23 min 14 sec) 
Heartbeat CPU 0 instructions: 131000000 cycles: 156720713 heartbeat IPC: 0.727477 cumulative IPC: 0.742655 (Simulation time: 1 hr 23 min 41 sec) 
Heartbeat CPU 0 instructions: 132000000 cycles: 158119343 heartbeat IPC: 0.714985 cumulative IPC: 0.742305 (Simulation time: 1 hr 24 min 8 sec) 
Heartbeat CPU 0 instructions: 133000003 cycles: 159496136 heartbeat IPC: 0.726328 cumulative IPC: 0.742108 (Simulation time: 1 hr 24 min 36 sec) 
Heartbeat CPU 0 instructions: 134000000 cycles: 160843919 heartbeat IPC: 0.741957 cumulative IPC: 0.742106 (Simulation time: 1 hr 25 min 2 sec) 
Heartbeat CPU 0 instructions: 135000002 cycles: 162165281 heartbeat IPC: 0.756796 cumulative IPC: 0.742276 (Simulation time: 1 hr 25 min 29 sec) 
Heartbeat CPU 0 instructions: 136000000 cycles: 163471046 heartbeat IPC: 0.765833 cumulative IPC: 0.742541 (Simulation time: 1 hr 25 min 55 sec) 
Heartbeat CPU 0 instructions: 137000003 cycles: 164803946 heartbeat IPC: 0.750246 cumulative IPC: 0.742629 (Simulation time: 1 hr 26 min 20 sec) 
Heartbeat CPU 0 instructions: 138000003 cycles: 166154409 heartbeat IPC: 0.740487 cumulative IPC: 0.742605 (Simulation time: 1 hr 26 min 44 sec) 
Heartbeat CPU 0 instructions: 139000000 cycles: 167543183 heartbeat IPC: 0.720057 cumulative IPC: 0.742343 (Simulation time: 1 hr 27 min 7 sec) 
Heartbeat CPU 0 instructions: 140000000 cycles: 168866634 heartbeat IPC: 0.7556 cumulative IPC: 0.742488 (Simulation time: 1 hr 27 min 32 sec) 
Heartbeat CPU 0 instructions: 141000001 cycles: 170187963 heartbeat IPC: 0.756815 cumulative IPC: 0.742643 (Simulation time: 1 hr 27 min 54 sec) 
Heartbeat CPU 0 instructions: 142000000 cycles: 171488077 heartbeat IPC: 0.769163 cumulative IPC: 0.742921 (Simulation time: 1 hr 28 min 17 sec) 
Heartbeat CPU 0 instructions: 143000003 cycles: 172812174 heartbeat IPC: 0.755234 cumulative IPC: 0.743051 (Simulation time: 1 hr 28 min 39 sec) 
Heartbeat CPU 0 instructions: 144000000 cycles: 174157444 heartbeat IPC: 0.743343 cumulative IPC: 0.743054 (Simulation time: 1 hr 29 min 0 sec) 
Heartbeat CPU 0 instructions: 145000001 cycles: 175547726 heartbeat IPC: 0.719279 cumulative IPC: 0.742796 (Simulation time: 1 hr 29 min 20 sec) 
Heartbeat CPU 0 instructions: 146000000 cycles: 176954050 heartbeat IPC: 0.711073 cumulative IPC: 0.742451 (Simulation time: 1 hr 29 min 40 sec) 
Heartbeat CPU 0 instructions: 147000001 cycles: 178310274 heartbeat IPC: 0.737342 cumulative IPC: 0.742398 (Simulation time: 1 hr 29 min 59 sec) 
Heartbeat CPU 0 instructions: 148000000 cycles: 179635949 heartbeat IPC: 0.754332 cumulative IPC: 0.742518 (Simulation time: 1 hr 30 min 19 sec) 
Heartbeat CPU 0 instructions: 149000000 cycles: 180950434 heartbeat IPC: 0.760754 cumulative IPC: 0.742698 (Simulation time: 1 hr 30 min 39 sec) 
Heartbeat CPU 0 instructions: 150000000 cycles: 182271629 heartbeat IPC: 0.756891 cumulative IPC: 0.742837 (Simulation time: 1 hr 30 min 58 sec) 
Finished CPU 0 instructions: 100000000 cycles: 134619066 cummulative IPC: 0.742837 (Simulation time: 1 hr 30 min 58 sec) 

ChampSim completed all CPUs

Region of Interest Statistics

CPU 0 cummulative IPC: 0.742837 instructions: 100000000 cycles: 134619066
LLC TOTAL     ACCESS:   21168193  HIT:   21092731  MISS:      75462
LLC LOAD      ACCESS:     165333  HIT:     129521  MISS:      35812
LLC RFO       ACCESS:   10374956  HIT:   10369312  MISS:       5644
LLC PREFETCH  ACCESS:     183342  HIT:     149659  MISS:      33683
LLC WRITEBACK ACCESS:   10444562  HIT:   10444239  MISS:        323
OPTgen accesses: 250930
OPTgen hits: 252077
OPTgen hit rate: 100.457


