
*** ChampSim Multicore Out-of-Order Simulator ***

Warmup Instructions: 50000000
Simulation Instructions: 100000000
Configuration: 2
Number of CPUs: 1
LLC sets: 2048
LLC ways: 16
Off-chip DRAM Channels: 1 Width: 64-bit Data Rate: 1600 MT/s

CPU 0 runs /datasets/cs240c-wi22-a00-public/data/Assignment2-gz/libquantum_964B.trace.gz
CPU 0 L1D next line prefetcher
CPU 0 L2C IP-based stride prefetcher
Initialize Hawkeye state
Heartbeat CPU 0 instructions: 1000002 cycles: 333341 heartbeat IPC: 2.99994 cumulative IPC: 2.99994 (Simulation time: 0 hr 0 min 25 sec) 
Heartbeat CPU 0 instructions: 2000001 cycles: 666674 heartbeat IPC: 3 cumulative IPC: 2.99997 (Simulation time: 0 hr 0 min 54 sec) 
Heartbeat CPU 0 instructions: 3000000 cycles: 1000007 heartbeat IPC: 3 cumulative IPC: 2.99998 (Simulation time: 0 hr 1 min 22 sec) 
Heartbeat CPU 0 instructions: 4000000 cycles: 1333341 heartbeat IPC: 2.99999 cumulative IPC: 2.99998 (Simulation time: 0 hr 1 min 48 sec) 
Heartbeat CPU 0 instructions: 5000000 cycles: 1666674 heartbeat IPC: 3 cumulative IPC: 2.99999 (Simulation time: 0 hr 2 min 16 sec) 
Heartbeat CPU 0 instructions: 6000002 cycles: 2000008 heartbeat IPC: 3 cumulative IPC: 2.99999 (Simulation time: 0 hr 2 min 43 sec) 
Heartbeat CPU 0 instructions: 7000001 cycles: 2331518 heartbeat IPC: 3.0165 cumulative IPC: 3.00234 (Simulation time: 0 hr 3 min 11 sec) 
Heartbeat CPU 0 instructions: 8000000 cycles: 2662240 heartbeat IPC: 3.02368 cumulative IPC: 3.00499 (Simulation time: 0 hr 3 min 39 sec) 
Heartbeat CPU 0 instructions: 9000001 cycles: 2992962 heartbeat IPC: 3.02369 cumulative IPC: 3.00705 (Simulation time: 0 hr 4 min 7 sec) 
Heartbeat CPU 0 instructions: 10000001 cycles: 3323684 heartbeat IPC: 3.02369 cumulative IPC: 3.00871 (Simulation time: 0 hr 4 min 36 sec) 
Heartbeat CPU 0 instructions: 11000000 cycles: 3654406 heartbeat IPC: 3.02368 cumulative IPC: 3.01007 (Simulation time: 0 hr 5 min 4 sec) 
Heartbeat CPU 0 instructions: 12000000 cycles: 3985113 heartbeat IPC: 3.02382 cumulative IPC: 3.01121 (Simulation time: 0 hr 5 min 30 sec) 
Heartbeat CPU 0 instructions: 13000001 cycles: 4315818 heartbeat IPC: 3.02385 cumulative IPC: 3.01218 (Simulation time: 0 hr 5 min 54 sec) 
Heartbeat CPU 0 instructions: 14000000 cycles: 4646523 heartbeat IPC: 3.02384 cumulative IPC: 3.01301 (Simulation time: 0 hr 6 min 24 sec) 
Heartbeat CPU 0 instructions: 15000003 cycles: 4977229 heartbeat IPC: 3.02384 cumulative IPC: 3.01373 (Simulation time: 0 hr 6 min 52 sec) 
Heartbeat CPU 0 instructions: 16000000 cycles: 5307934 heartbeat IPC: 3.02383 cumulative IPC: 3.01436 (Simulation time: 0 hr 7 min 19 sec) 
Heartbeat CPU 0 instructions: 17000000 cycles: 5638642 heartbeat IPC: 3.02382 cumulative IPC: 3.01491 (Simulation time: 0 hr 7 min 47 sec) 
Heartbeat CPU 0 instructions: 18000003 cycles: 5969365 heartbeat IPC: 3.02369 cumulative IPC: 3.0154 (Simulation time: 0 hr 8 min 17 sec) 
Heartbeat CPU 0 instructions: 19000002 cycles: 6300087 heartbeat IPC: 3.02368 cumulative IPC: 3.01583 (Simulation time: 0 hr 8 min 45 sec) 
Heartbeat CPU 0 instructions: 20000000 cycles: 6630808 heartbeat IPC: 3.02369 cumulative IPC: 3.01622 (Simulation time: 0 hr 9 min 14 sec) 
Heartbeat CPU 0 instructions: 21000003 cycles: 6961531 heartbeat IPC: 3.02369 cumulative IPC: 3.01658 (Simulation time: 0 hr 9 min 44 sec) 
Heartbeat CPU 0 instructions: 22000002 cycles: 7292253 heartbeat IPC: 3.02368 cumulative IPC: 3.0169 (Simulation time: 0 hr 10 min 12 sec) 
Heartbeat CPU 0 instructions: 23000000 cycles: 7622968 heartbeat IPC: 3.02375 cumulative IPC: 3.0172 (Simulation time: 0 hr 10 min 40 sec) 
Heartbeat CPU 0 instructions: 24000000 cycles: 7953674 heartbeat IPC: 3.02383 cumulative IPC: 3.01747 (Simulation time: 0 hr 11 min 8 sec) 
Heartbeat CPU 0 instructions: 25000000 cycles: 8284379 heartbeat IPC: 3.02384 cumulative IPC: 3.01773 (Simulation time: 0 hr 11 min 36 sec) 
Heartbeat CPU 0 instructions: 26000002 cycles: 8675744 heartbeat IPC: 2.55516 cumulative IPC: 2.99686 (Simulation time: 0 hr 12 min 13 sec) 
Heartbeat CPU 0 instructions: 27000000 cycles: 9096050 heartbeat IPC: 2.37921 cumulative IPC: 2.96832 (Simulation time: 0 hr 12 min 56 sec) 
Heartbeat CPU 0 instructions: 28000000 cycles: 9516352 heartbeat IPC: 2.37924 cumulative IPC: 2.9423 (Simulation time: 0 hr 13 min 44 sec) 
Heartbeat CPU 0 instructions: 29000002 cycles: 9936683 heartbeat IPC: 2.37908 cumulative IPC: 2.91848 (Simulation time: 0 hr 14 min 30 sec) 
Heartbeat CPU 0 instructions: 30000002 cycles: 10356994 heartbeat IPC: 2.37919 cumulative IPC: 2.89659 (Simulation time: 0 hr 15 min 13 sec) 
Heartbeat CPU 0 instructions: 31000000 cycles: 10777300 heartbeat IPC: 2.37921 cumulative IPC: 2.87642 (Simulation time: 0 hr 15 min 57 sec) 
Heartbeat CPU 0 instructions: 32000000 cycles: 11197602 heartbeat IPC: 2.37924 cumulative IPC: 2.85775 (Simulation time: 0 hr 16 min 42 sec) 
Heartbeat CPU 0 instructions: 33000002 cycles: 11617933 heartbeat IPC: 2.37908 cumulative IPC: 2.84044 (Simulation time: 0 hr 17 min 27 sec) 
Heartbeat CPU 0 instructions: 34000002 cycles: 12038244 heartbeat IPC: 2.37919 cumulative IPC: 2.82433 (Simulation time: 0 hr 18 min 14 sec) 
Heartbeat CPU 0 instructions: 35000000 cycles: 12458550 heartbeat IPC: 2.37921 cumulative IPC: 2.80932 (Simulation time: 0 hr 18 min 57 sec) 
Heartbeat CPU 0 instructions: 36000000 cycles: 12862260 heartbeat IPC: 2.47703 cumulative IPC: 2.79889 (Simulation time: 0 hr 19 min 40 sec) 
Heartbeat CPU 0 instructions: 37000001 cycles: 13195593 heartbeat IPC: 3.00001 cumulative IPC: 2.80397 (Simulation time: 0 hr 20 min 10 sec) 
Heartbeat CPU 0 instructions: 38000000 cycles: 13528926 heartbeat IPC: 3 cumulative IPC: 2.8088 (Simulation time: 0 hr 20 min 37 sec) 
Heartbeat CPU 0 instructions: 39000003 cycles: 13862260 heartbeat IPC: 3 cumulative IPC: 2.81339 (Simulation time: 0 hr 21 min 5 sec) 
Heartbeat CPU 0 instructions: 40000000 cycles: 14195593 heartbeat IPC: 2.99999 cumulative IPC: 2.81778 (Simulation time: 0 hr 21 min 36 sec) 
Heartbeat CPU 0 instructions: 41000001 cycles: 14528926 heartbeat IPC: 3.00001 cumulative IPC: 2.82196 (Simulation time: 0 hr 22 min 4 sec) 
Heartbeat CPU 0 instructions: 42000000 cycles: 14862259 heartbeat IPC: 3 cumulative IPC: 2.82595 (Simulation time: 0 hr 22 min 35 sec) 
Heartbeat CPU 0 instructions: 43000001 cycles: 15195593 heartbeat IPC: 3 cumulative IPC: 2.82977 (Simulation time: 0 hr 23 min 4 sec) 
Heartbeat CPU 0 instructions: 44000000 cycles: 15528926 heartbeat IPC: 3 cumulative IPC: 2.83342 (Simulation time: 0 hr 23 min 33 sec) 
Heartbeat CPU 0 instructions: 45000002 cycles: 15862260 heartbeat IPC: 3 cumulative IPC: 2.83692 (Simulation time: 0 hr 24 min 0 sec) 
Heartbeat CPU 0 instructions: 46000001 cycles: 16195593 heartbeat IPC: 3 cumulative IPC: 2.84028 (Simulation time: 0 hr 24 min 29 sec) 
Heartbeat CPU 0 instructions: 47000000 cycles: 16528926 heartbeat IPC: 3 cumulative IPC: 2.8435 (Simulation time: 0 hr 24 min 57 sec) 
Heartbeat CPU 0 instructions: 48000000 cycles: 16862260 heartbeat IPC: 2.99999 cumulative IPC: 2.84659 (Simulation time: 0 hr 25 min 24 sec) 
Heartbeat CPU 0 instructions: 49000003 cycles: 17195596 heartbeat IPC: 2.99998 cumulative IPC: 2.84957 (Simulation time: 0 hr 25 min 54 sec) 
Heartbeat CPU 0 instructions: 50000001 cycles: 17528926 heartbeat IPC: 3.00002 cumulative IPC: 2.85243 (Simulation time: 0 hr 26 min 19 sec) 

Warmup complete CPU 0 instructions: 50000001 cycles: 17528926 (Simulation time: 0 hr 26 min 19 sec) 

Heartbeat CPU 0 instructions: 51000000 cycles: 18995168 heartbeat IPC: 0.682015 cumulative IPC: 0.682015 (Simulation time: 0 hr 27 min 10 sec) 
Heartbeat CPU 0 instructions: 52000000 cycles: 20461433 heartbeat IPC: 0.682005 cumulative IPC: 0.68201 (Simulation time: 0 hr 27 min 57 sec) 
Heartbeat CPU 0 instructions: 53000000 cycles: 21927639 heartbeat IPC: 0.682032 cumulative IPC: 0.682017 (Simulation time: 0 hr 28 min 50 sec) 
Heartbeat CPU 0 instructions: 54000002 cycles: 23369173 heartbeat IPC: 0.693707 cumulative IPC: 0.684903 (Simulation time: 0 hr 29 min 46 sec) 
Heartbeat CPU 0 instructions: 55000002 cycles: 24665684 heartbeat IPC: 0.771301 cumulative IPC: 0.700598 (Simulation time: 0 hr 30 min 33 sec) 
Heartbeat CPU 0 instructions: 56000000 cycles: 26402470 heartbeat IPC: 0.575775 cumulative IPC: 0.676167 (Simulation time: 0 hr 31 min 19 sec) 
Heartbeat CPU 0 instructions: 57000001 cycles: 28155449 heartbeat IPC: 0.570458 cumulative IPC: 0.658729 (Simulation time: 0 hr 32 min 6 sec) 
Heartbeat CPU 0 instructions: 58000000 cycles: 29904917 heartbeat IPC: 0.571602 cumulative IPC: 0.646413 (Simulation time: 0 hr 32 min 49 sec) 
Heartbeat CPU 0 instructions: 59000003 cycles: 31655757 heartbeat IPC: 0.571156 cumulative IPC: 0.637086 (Simulation time: 0 hr 33 min 36 sec) 
Heartbeat CPU 0 instructions: 60000000 cycles: 33403177 heartbeat IPC: 0.572271 cumulative IPC: 0.629951 (Simulation time: 0 hr 34 min 20 sec) 
Heartbeat CPU 0 instructions: 61000002 cycles: 35153191 heartbeat IPC: 0.571425 cumulative IPC: 0.62414 (Simulation time: 0 hr 35 min 1 sec) 
Heartbeat CPU 0 instructions: 62000001 cycles: 36906300 heartbeat IPC: 0.570415 cumulative IPC: 0.619279 (Simulation time: 0 hr 35 min 46 sec) 
Heartbeat CPU 0 instructions: 63000001 cycles: 38654233 heartbeat IPC: 0.572104 cumulative IPC: 0.615376 (Simulation time: 0 hr 36 min 33 sec) 
Heartbeat CPU 0 instructions: 64000000 cycles: 40409369 heartbeat IPC: 0.569756 cumulative IPC: 0.611876 (Simulation time: 0 hr 37 min 16 sec) 
Heartbeat CPU 0 instructions: 65000002 cycles: 41709272 heartbeat IPC: 0.76929 cumulative IPC: 0.620339 (Simulation time: 0 hr 37 min 59 sec) 
Heartbeat CPU 0 instructions: 66000002 cycles: 43453733 heartbeat IPC: 0.573243 cumulative IPC: 0.61717 (Simulation time: 0 hr 38 min 41 sec) 
Heartbeat CPU 0 instructions: 67000000 cycles: 45205056 heartbeat IPC: 0.570996 cumulative IPC: 0.614248 (Simulation time: 0 hr 39 min 26 sec) 
Heartbeat CPU 0 instructions: 68000000 cycles: 46953499 heartbeat IPC: 0.571937 cumulative IPC: 0.611734 (Simulation time: 0 hr 40 min 12 sec) 
Heartbeat CPU 0 instructions: 69000000 cycles: 48706257 heartbeat IPC: 0.570529 cumulative IPC: 0.609417 (Simulation time: 0 hr 40 min 52 sec) 
Heartbeat CPU 0 instructions: 70000002 cycles: 50455138 heartbeat IPC: 0.571795 cumulative IPC: 0.607419 (Simulation time: 0 hr 41 min 33 sec) 
Heartbeat CPU 0 instructions: 71000001 cycles: 52205683 heartbeat IPC: 0.57125 cumulative IPC: 0.605593 (Simulation time: 0 hr 42 min 11 sec) 
Heartbeat CPU 0 instructions: 72000000 cycles: 53953243 heartbeat IPC: 0.572226 cumulative IPC: 0.603992 (Simulation time: 0 hr 42 min 55 sec) 
Heartbeat CPU 0 instructions: 73000000 cycles: 55656085 heartbeat IPC: 0.587254 cumulative IPC: 0.603244 (Simulation time: 0 hr 43 min 36 sec) 
Heartbeat CPU 0 instructions: 74000000 cycles: 57166304 heartbeat IPC: 0.662156 cumulative IPC: 0.605489 (Simulation time: 0 hr 44 min 23 sec) 
Heartbeat CPU 0 instructions: 75000000 cycles: 59498541 heartbeat IPC: 0.428773 cumulative IPC: 0.595669 (Simulation time: 0 hr 45 min 10 sec) 
Heartbeat CPU 0 instructions: 76000000 cycles: 61839521 heartbeat IPC: 0.427172 cumulative IPC: 0.586767 (Simulation time: 0 hr 45 min 59 sec) 
Heartbeat CPU 0 instructions: 77000000 cycles: 64176182 heartbeat IPC: 0.427961 cumulative IPC: 0.578812 (Simulation time: 0 hr 46 min 48 sec) 
Heartbeat CPU 0 instructions: 78000000 cycles: 66538980 heartbeat IPC: 0.423227 cumulative IPC: 0.571311 (Simulation time: 0 hr 47 min 39 sec) 
Heartbeat CPU 0 instructions: 79000000 cycles: 68875388 heartbeat IPC: 0.428007 cumulative IPC: 0.564791 (Simulation time: 0 hr 48 min 35 sec) 
Heartbeat CPU 0 instructions: 80000000 cycles: 70751562 heartbeat IPC: 0.533 cumulative IPC: 0.56367 (Simulation time: 0 hr 49 min 27 sec) 
Heartbeat CPU 0 instructions: 81000000 cycles: 73087481 heartbeat IPC: 0.428097 cumulative IPC: 0.55797 (Simulation time: 0 hr 50 min 17 sec) 
Heartbeat CPU 0 instructions: 82000000 cycles: 75418016 heartbeat IPC: 0.429086 cumulative IPC: 0.552781 (Simulation time: 0 hr 51 min 17 sec) 
Heartbeat CPU 0 instructions: 83000000 cycles: 77764587 heartbeat IPC: 0.426154 cumulative IPC: 0.547848 (Simulation time: 0 hr 52 min 7 sec) 
Heartbeat CPU 0 instructions: 84000000 cycles: 79940265 heartbeat IPC: 0.459627 cumulative IPC: 0.544773 (Simulation time: 0 hr 52 min 57 sec) 
Heartbeat CPU 0 instructions: 85000001 cycles: 81385198 heartbeat IPC: 0.692074 cumulative IPC: 0.548106 (Simulation time: 0 hr 53 min 39 sec) 
Heartbeat CPU 0 instructions: 86000000 cycles: 82895116 heartbeat IPC: 0.662287 cumulative IPC: 0.550743 (Simulation time: 0 hr 54 min 29 sec) 
Heartbeat CPU 0 instructions: 87000003 cycles: 84405044 heartbeat IPC: 0.662285 cumulative IPC: 0.553262 (Simulation time: 0 hr 55 min 16 sec) 
Heartbeat CPU 0 instructions: 88000000 cycles: 85915036 heartbeat IPC: 0.662253 cumulative IPC: 0.555668 (Simulation time: 0 hr 55 min 51 sec) 
Heartbeat CPU 0 instructions: 89000001 cycles: 87425083 heartbeat IPC: 0.662232 cumulative IPC: 0.557971 (Simulation time: 0 hr 56 min 29 sec) 
Heartbeat CPU 0 instructions: 90000000 cycles: 88935203 heartbeat IPC: 0.662198 cumulative IPC: 0.560175 (Simulation time: 0 hr 57 min 5 sec) 
Heartbeat CPU 0 instructions: 91000001 cycles: 90445126 heartbeat IPC: 0.662286 cumulative IPC: 0.562289 (Simulation time: 0 hr 57 min 50 sec) 
Heartbeat CPU 0 instructions: 92000000 cycles: 91955234 heartbeat IPC: 0.662204 cumulative IPC: 0.564317 (Simulation time: 0 hr 58 min 28 sec) 
Heartbeat CPU 0 instructions: 93000002 cycles: 93465388 heartbeat IPC: 0.662185 cumulative IPC: 0.566263 (Simulation time: 0 hr 59 min 10 sec) 
Heartbeat CPU 0 instructions: 94000001 cycles: 94853061 heartbeat IPC: 0.72063 cumulative IPC: 0.569033 (Simulation time: 0 hr 59 min 47 sec) 
Heartbeat CPU 0 instructions: 95000000 cycles: 96110709 heartbeat IPC: 0.795134 cumulative IPC: 0.572652 (Simulation time: 1 hr 0 min 25 sec) 
Heartbeat CPU 0 instructions: 96000000 cycles: 97620703 heartbeat IPC: 0.662254 cumulative IPC: 0.574341 (Simulation time: 1 hr 1 min 15 sec) 
Heartbeat CPU 0 instructions: 97000002 cycles: 99128357 heartbeat IPC: 0.663283 cumulative IPC: 0.575984 (Simulation time: 1 hr 1 min 53 sec) 
Heartbeat CPU 0 instructions: 98000001 cycles: 100625031 heartbeat IPC: 0.668148 cumulative IPC: 0.577644 (Simulation time: 1 hr 2 min 36 sec) 
Heartbeat CPU 0 instructions: 99000000 cycles: 102135025 heartbeat IPC: 0.662254 cumulative IPC: 0.579154 (Simulation time: 1 hr 3 min 20 sec) 
Heartbeat CPU 0 instructions: 100000000 cycles: 103644946 heartbeat IPC: 0.662286 cumulative IPC: 0.580612 (Simulation time: 1 hr 3 min 55 sec) 
Heartbeat CPU 0 instructions: 101000000 cycles: 105154991 heartbeat IPC: 0.662232 cumulative IPC: 0.582019 (Simulation time: 1 hr 4 min 37 sec) 
Heartbeat CPU 0 instructions: 102000002 cycles: 106655950 heartbeat IPC: 0.666242 cumulative IPC: 0.583437 (Simulation time: 1 hr 5 min 20 sec) 
Heartbeat CPU 0 instructions: 103000001 cycles: 107886307 heartbeat IPC: 0.812771 cumulative IPC: 0.58656 (Simulation time: 1 hr 5 min 57 sec) 
Heartbeat CPU 0 instructions: 104000000 cycles: 110087040 heartbeat IPC: 0.454394 cumulative IPC: 0.583417 (Simulation time: 1 hr 6 min 43 sec) 
Heartbeat CPU 0 instructions: 105000000 cycles: 112431770 heartbeat IPC: 0.426488 cumulative IPC: 0.57954 (Simulation time: 1 hr 7 min 30 sec) 
Heartbeat CPU 0 instructions: 106000000 cycles: 114784466 heartbeat IPC: 0.425044 cumulative IPC: 0.575803 (Simulation time: 1 hr 8 min 26 sec) 
Heartbeat CPU 0 instructions: 107000000 cycles: 117141439 heartbeat IPC: 0.424273 cumulative IPC: 0.572217 (Simulation time: 1 hr 9 min 12 sec) 
Heartbeat CPU 0 instructions: 108000000 cycles: 119501314 heartbeat IPC: 0.423751 cumulative IPC: 0.568781 (Simulation time: 1 hr 10 min 3 sec) 
Heartbeat CPU 0 instructions: 109000000 cycles: 121375620 heartbeat IPC: 0.533531 cumulative IPC: 0.568145 (Simulation time: 1 hr 10 min 52 sec) 
Heartbeat CPU 0 instructions: 110000000 cycles: 123708448 heartbeat IPC: 0.428664 cumulative IPC: 0.565081 (Simulation time: 1 hr 11 min 36 sec) 
Heartbeat CPU 0 instructions: 111000000 cycles: 126058327 heartbeat IPC: 0.425554 cumulative IPC: 0.56206 (Simulation time: 1 hr 12 min 22 sec) 
Heartbeat CPU 0 instructions: 112000000 cycles: 128412071 heartbeat IPC: 0.424855 cumulative IPC: 0.559147 (Simulation time: 1 hr 13 min 12 sec) 
Heartbeat CPU 0 instructions: 113000000 cycles: 130754800 heartbeat IPC: 0.426853 cumulative IPC: 0.55641 (Simulation time: 1 hr 13 min 57 sec) 
Heartbeat CPU 0 instructions: 114000002 cycles: 132466512 heartbeat IPC: 0.584212 cumulative IPC: 0.556824 (Simulation time: 1 hr 14 min 35 sec) 
Heartbeat CPU 0 instructions: 115000001 cycles: 134210689 heartbeat IPC: 0.573336 cumulative IPC: 0.557071 (Simulation time: 1 hr 15 min 13 sec) 
Heartbeat CPU 0 instructions: 116000000 cycles: 135954792 heartbeat IPC: 0.57336 cumulative IPC: 0.557311 (Simulation time: 1 hr 15 min 52 sec) 
Heartbeat CPU 0 instructions: 117000002 cycles: 137706574 heartbeat IPC: 0.570848 cumulative IPC: 0.557508 (Simulation time: 1 hr 16 min 31 sec) 
Heartbeat CPU 0 instructions: 118000002 cycles: 139455142 heartbeat IPC: 0.571897 cumulative IPC: 0.557714 (Simulation time: 1 hr 17 min 6 sec) 
Heartbeat CPU 0 instructions: 119000002 cycles: 141205656 heartbeat IPC: 0.571261 cumulative IPC: 0.557906 (Simulation time: 1 hr 17 min 39 sec) 
Heartbeat CPU 0 instructions: 120000000 cycles: 142955974 heartbeat IPC: 0.571324 cumulative IPC: 0.558093 (Simulation time: 1 hr 18 min 7 sec) 
Heartbeat CPU 0 instructions: 121000000 cycles: 144708135 heartbeat IPC: 0.570724 cumulative IPC: 0.558267 (Simulation time: 1 hr 18 min 38 sec) 
Heartbeat CPU 0 instructions: 122000001 cycles: 146458532 heartbeat IPC: 0.5713 cumulative IPC: 0.558444 (Simulation time: 1 hr 19 min 5 sec) 
Heartbeat CPU 0 instructions: 123000000 cycles: 148207262 heartbeat IPC: 0.571843 cumulative IPC: 0.558624 (Simulation time: 1 hr 19 min 30 sec) 
Heartbeat CPU 0 instructions: 124000000 cycles: 149522699 heartbeat IPC: 0.760204 cumulative IPC: 0.560633 (Simulation time: 1 hr 19 min 52 sec) 
Heartbeat CPU 0 instructions: 125000001 cycles: 151267452 heartbeat IPC: 0.573148 cumulative IPC: 0.560796 (Simulation time: 1 hr 20 min 18 sec) 
Heartbeat CPU 0 instructions: 126000000 cycles: 153020445 heartbeat IPC: 0.570452 cumulative IPC: 0.560921 (Simulation time: 1 hr 20 min 45 sec) 
Heartbeat CPU 0 instructions: 127000003 cycles: 154769050 heartbeat IPC: 0.571886 cumulative IPC: 0.56106 (Simulation time: 1 hr 21 min 8 sec) 
Heartbeat CPU 0 instructions: 128000000 cycles: 156517066 heartbeat IPC: 0.572075 cumulative IPC: 0.561199 (Simulation time: 1 hr 21 min 35 sec) 
Heartbeat CPU 0 instructions: 129000000 cycles: 158268855 heartbeat IPC: 0.570845 cumulative IPC: 0.561319 (Simulation time: 1 hr 21 min 57 sec) 
Heartbeat CPU 0 instructions: 130000001 cycles: 160016945 heartbeat IPC: 0.572053 cumulative IPC: 0.561451 (Simulation time: 1 hr 22 min 25 sec) 
Heartbeat CPU 0 instructions: 131000000 cycles: 161766493 heartbeat IPC: 0.571576 cumulative IPC: 0.561574 (Simulation time: 1 hr 22 min 54 sec) 
Heartbeat CPU 0 instructions: 132000000 cycles: 163433665 heartbeat IPC: 0.599818 cumulative IPC: 0.562011 (Simulation time: 1 hr 23 min 20 sec) 
Heartbeat CPU 0 instructions: 133000000 cycles: 165071025 heartbeat IPC: 0.610739 cumulative IPC: 0.562551 (Simulation time: 1 hr 23 min 51 sec) 
Heartbeat CPU 0 instructions: 134000000 cycles: 167372677 heartbeat IPC: 0.434471 cumulative IPC: 0.560584 (Simulation time: 1 hr 24 min 29 sec) 
Heartbeat CPU 0 instructions: 135000000 cycles: 169687164 heartbeat IPC: 0.432061 cumulative IPC: 0.558629 (Simulation time: 1 hr 25 min 9 sec) 
Heartbeat CPU 0 instructions: 136000000 cycles: 172006706 heartbeat IPC: 0.43112 cumulative IPC: 0.556714 (Simulation time: 1 hr 25 min 40 sec) 
Heartbeat CPU 0 instructions: 137000000 cycles: 174331093 heartbeat IPC: 0.430221 cumulative IPC: 0.554839 (Simulation time: 1 hr 26 min 16 sec) 
Heartbeat CPU 0 instructions: 138000000 cycles: 176529386 heartbeat IPC: 0.454898 cumulative IPC: 0.553457 (Simulation time: 1 hr 26 min 46 sec) 
Heartbeat CPU 0 instructions: 139000000 cycles: 178480841 heartbeat IPC: 0.512438 cumulative IPC: 0.55296 (Simulation time: 1 hr 27 min 18 sec) 
Heartbeat CPU 0 instructions: 140000000 cycles: 180787716 heartbeat IPC: 0.433487 cumulative IPC: 0.551272 (Simulation time: 1 hr 27 min 49 sec) 
Heartbeat CPU 0 instructions: 141000000 cycles: 183097829 heartbeat IPC: 0.432879 cumulative IPC: 0.54962 (Simulation time: 1 hr 28 min 18 sec) 
Heartbeat CPU 0 instructions: 142000000 cycles: 185412377 heartbeat IPC: 0.43205 cumulative IPC: 0.547999 (Simulation time: 1 hr 28 min 48 sec) 
Heartbeat CPU 0 instructions: 143000000 cycles: 187413791 heartbeat IPC: 0.499647 cumulative IPC: 0.54743 (Simulation time: 1 hr 29 min 15 sec) 
Heartbeat CPU 0 instructions: 144000000 cycles: 189142988 heartbeat IPC: 0.578303 cumulative IPC: 0.547741 (Simulation time: 1 hr 29 min 33 sec) 
Heartbeat CPU 0 instructions: 145000002 cycles: 190892331 heartbeat IPC: 0.571644 cumulative IPC: 0.547982 (Simulation time: 1 hr 29 min 50 sec) 
Heartbeat CPU 0 instructions: 146000001 cycles: 192639472 heartbeat IPC: 0.572363 cumulative IPC: 0.548225 (Simulation time: 1 hr 30 min 8 sec) 
Heartbeat CPU 0 instructions: 147000000 cycles: 194389104 heartbeat IPC: 0.571548 cumulative IPC: 0.548456 (Simulation time: 1 hr 30 min 24 sec) 
Heartbeat CPU 0 instructions: 148000000 cycles: 196139416 heartbeat IPC: 0.571327 cumulative IPC: 0.54868 (Simulation time: 1 hr 30 min 40 sec) 
Heartbeat CPU 0 instructions: 149000002 cycles: 197888476 heartbeat IPC: 0.571737 cumulative IPC: 0.548904 (Simulation time: 1 hr 30 min 57 sec) 
Heartbeat CPU 0 instructions: 150000000 cycles: 199637654 heartbeat IPC: 0.571696 cumulative IPC: 0.549123 (Simulation time: 1 hr 31 min 12 sec) 
Finished CPU 0 instructions: 100000001 cycles: 182108729 cummulative IPC: 0.549122 (Simulation time: 1 hr 31 min 12 sec) 

ChampSim completed all CPUs

Region of Interest Statistics

CPU 0 cummulative IPC: 0.549122 instructions: 100000001 cycles: 182108729
LLC TOTAL     ACCESS:    5216164  HIT:     332936  MISS:    4883228
LLC LOAD      ACCESS:    1223632  HIT:      78653  MISS:    1144979
LLC RFO       ACCESS:         28  HIT:         28  MISS:          0
LLC PREFETCH  ACCESS:    2243451  HIT:     119345  MISS:    2124106
LLC WRITEBACK ACCESS:    1749053  HIT:     134910  MISS:    1614143
OPTgen accesses: 20834
OPTgen hits: 62
OPTgen hit rate: 0.29759


