
*** ChampSim Multicore Out-of-Order Simulator ***

Warmup Instructions: 50000000
Simulation Instructions: 100000000
Configuration: 2
Number of CPUs: 1
LLC sets: 2048
LLC ways: 16
Off-chip DRAM Channels: 1 Width: 64-bit Data Rate: 1600 MT/s

CPU 0 runs /datasets/cs240c-wi22-a00-public/data/Assignment2-gz/lbm_1004B.trace.gz
CPU 0 L1D next line prefetcher
CPU 0 L2C IP-based stride prefetcher
Initialize Hawkeye state
Heartbeat CPU 0 instructions: 1000002 cycles: 391414 heartbeat IPC: 2.55484 cumulative IPC: 2.55484 (Simulation time: 0 hr 0 min 36 sec) 
Heartbeat CPU 0 instructions: 2000001 cycles: 782838 heartbeat IPC: 2.55477 cumulative IPC: 2.55481 (Simulation time: 0 hr 1 min 11 sec) 
Heartbeat CPU 0 instructions: 3000001 cycles: 1174187 heartbeat IPC: 2.55526 cumulative IPC: 2.55496 (Simulation time: 0 hr 1 min 46 sec) 
Heartbeat CPU 0 instructions: 4000000 cycles: 1570367 heartbeat IPC: 2.5241 cumulative IPC: 2.54718 (Simulation time: 0 hr 2 min 22 sec) 
Heartbeat CPU 0 instructions: 5000002 cycles: 1961787 heartbeat IPC: 2.55481 cumulative IPC: 2.5487 (Simulation time: 0 hr 2 min 58 sec) 
Heartbeat CPU 0 instructions: 6000002 cycles: 2353155 heartbeat IPC: 2.55514 cumulative IPC: 2.54977 (Simulation time: 0 hr 3 min 34 sec) 
Heartbeat CPU 0 instructions: 7000003 cycles: 2749264 heartbeat IPC: 2.52456 cumulative IPC: 2.54614 (Simulation time: 0 hr 4 min 10 sec) 
Heartbeat CPU 0 instructions: 8000000 cycles: 3140611 heartbeat IPC: 2.55527 cumulative IPC: 2.54728 (Simulation time: 0 hr 4 min 46 sec) 
Heartbeat CPU 0 instructions: 9000003 cycles: 3532034 heartbeat IPC: 2.55479 cumulative IPC: 2.54811 (Simulation time: 0 hr 5 min 22 sec) 
Heartbeat CPU 0 instructions: 10000000 cycles: 3923400 heartbeat IPC: 2.55515 cumulative IPC: 2.54881 (Simulation time: 0 hr 5 min 58 sec) 
Heartbeat CPU 0 instructions: 11000000 cycles: 4319641 heartbeat IPC: 2.52372 cumulative IPC: 2.54651 (Simulation time: 0 hr 6 min 33 sec) 
Heartbeat CPU 0 instructions: 12000000 cycles: 4710969 heartbeat IPC: 2.5554 cumulative IPC: 2.54725 (Simulation time: 0 hr 7 min 7 sec) 
Heartbeat CPU 0 instructions: 13000002 cycles: 5102374 heartbeat IPC: 2.5549 cumulative IPC: 2.54783 (Simulation time: 0 hr 7 min 42 sec) 
Heartbeat CPU 0 instructions: 14000003 cycles: 5498550 heartbeat IPC: 2.52413 cumulative IPC: 2.54613 (Simulation time: 0 hr 8 min 17 sec) 
Heartbeat CPU 0 instructions: 15000003 cycles: 5889978 heartbeat IPC: 2.55475 cumulative IPC: 2.5467 (Simulation time: 0 hr 8 min 50 sec) 
Heartbeat CPU 0 instructions: 16000000 cycles: 6281358 heartbeat IPC: 2.55505 cumulative IPC: 2.54722 (Simulation time: 0 hr 9 min 26 sec) 
Heartbeat CPU 0 instructions: 17000000 cycles: 6677508 heartbeat IPC: 2.5243 cumulative IPC: 2.54586 (Simulation time: 0 hr 10 min 1 sec) 
Heartbeat CPU 0 instructions: 18000000 cycles: 7068889 heartbeat IPC: 2.55506 cumulative IPC: 2.54637 (Simulation time: 0 hr 10 min 35 sec) 
Heartbeat CPU 0 instructions: 19000003 cycles: 7460247 heartbeat IPC: 2.55521 cumulative IPC: 2.54683 (Simulation time: 0 hr 11 min 9 sec) 
Heartbeat CPU 0 instructions: 20000000 cycles: 7851656 heartbeat IPC: 2.55486 cumulative IPC: 2.54723 (Simulation time: 0 hr 11 min 44 sec) 
Heartbeat CPU 0 instructions: 21000003 cycles: 8247824 heartbeat IPC: 2.52419 cumulative IPC: 2.54613 (Simulation time: 0 hr 12 min 20 sec) 
Heartbeat CPU 0 instructions: 22000002 cycles: 8639287 heartbeat IPC: 2.55452 cumulative IPC: 2.54651 (Simulation time: 0 hr 12 min 54 sec) 
Heartbeat CPU 0 instructions: 23000001 cycles: 9030629 heartbeat IPC: 2.55531 cumulative IPC: 2.54689 (Simulation time: 0 hr 13 min 31 sec) 
Heartbeat CPU 0 instructions: 24000000 cycles: 9426845 heartbeat IPC: 2.52387 cumulative IPC: 2.54592 (Simulation time: 0 hr 14 min 6 sec) 
Heartbeat CPU 0 instructions: 25000003 cycles: 9818250 heartbeat IPC: 2.55491 cumulative IPC: 2.54628 (Simulation time: 0 hr 14 min 40 sec) 
Heartbeat CPU 0 instructions: 26000002 cycles: 10209640 heartbeat IPC: 2.55499 cumulative IPC: 2.54661 (Simulation time: 0 hr 15 min 15 sec) 
Heartbeat CPU 0 instructions: 27000001 cycles: 10601006 heartbeat IPC: 2.55515 cumulative IPC: 2.54693 (Simulation time: 0 hr 15 min 49 sec) 
Heartbeat CPU 0 instructions: 28000000 cycles: 10997191 heartbeat IPC: 2.52407 cumulative IPC: 2.5461 (Simulation time: 0 hr 16 min 23 sec) 
Heartbeat CPU 0 instructions: 29000002 cycles: 11388592 heartbeat IPC: 2.55493 cumulative IPC: 2.54641 (Simulation time: 0 hr 16 min 57 sec) 
Heartbeat CPU 0 instructions: 30000003 cycles: 11779985 heartbeat IPC: 2.55498 cumulative IPC: 2.54669 (Simulation time: 0 hr 17 min 32 sec) 
Heartbeat CPU 0 instructions: 31000003 cycles: 12176211 heartbeat IPC: 2.52381 cumulative IPC: 2.54595 (Simulation time: 0 hr 18 min 9 sec) 
Heartbeat CPU 0 instructions: 32000000 cycles: 12567594 heartbeat IPC: 2.55503 cumulative IPC: 2.54623 (Simulation time: 0 hr 18 min 44 sec) 
Heartbeat CPU 0 instructions: 33000003 cycles: 12959031 heartbeat IPC: 2.5547 cumulative IPC: 2.54649 (Simulation time: 0 hr 19 min 19 sec) 
Heartbeat CPU 0 instructions: 34000002 cycles: 13355146 heartbeat IPC: 2.52452 cumulative IPC: 2.54584 (Simulation time: 0 hr 19 min 54 sec) 
Heartbeat CPU 0 instructions: 35000003 cycles: 13746564 heartbeat IPC: 2.55482 cumulative IPC: 2.54609 (Simulation time: 0 hr 20 min 30 sec) 
Heartbeat CPU 0 instructions: 36000000 cycles: 14137968 heartbeat IPC: 2.5549 cumulative IPC: 2.54633 (Simulation time: 0 hr 21 min 6 sec) 
Heartbeat CPU 0 instructions: 37000002 cycles: 14529378 heartbeat IPC: 2.55487 cumulative IPC: 2.54656 (Simulation time: 0 hr 21 min 41 sec) 
Heartbeat CPU 0 instructions: 38000000 cycles: 14925571 heartbeat IPC: 2.52402 cumulative IPC: 2.54597 (Simulation time: 0 hr 22 min 17 sec) 
Heartbeat CPU 0 instructions: 39000003 cycles: 15316894 heartbeat IPC: 2.55544 cumulative IPC: 2.54621 (Simulation time: 0 hr 22 min 52 sec) 
Heartbeat CPU 0 instructions: 40000000 cycles: 15708290 heartbeat IPC: 2.55495 cumulative IPC: 2.54643 (Simulation time: 0 hr 23 min 28 sec) 
Heartbeat CPU 0 instructions: 41000002 cycles: 16104495 heartbeat IPC: 2.52395 cumulative IPC: 2.54587 (Simulation time: 0 hr 24 min 5 sec) 
Heartbeat CPU 0 instructions: 42000003 cycles: 16495931 heartbeat IPC: 2.5547 cumulative IPC: 2.54608 (Simulation time: 0 hr 24 min 39 sec) 
Heartbeat CPU 0 instructions: 43000000 cycles: 16887308 heartbeat IPC: 2.55507 cumulative IPC: 2.54629 (Simulation time: 0 hr 25 min 15 sec) 
Heartbeat CPU 0 instructions: 44000000 cycles: 17283481 heartbeat IPC: 2.52415 cumulative IPC: 2.54578 (Simulation time: 0 hr 25 min 52 sec) 
Heartbeat CPU 0 instructions: 45000003 cycles: 17674878 heartbeat IPC: 2.55496 cumulative IPC: 2.54599 (Simulation time: 0 hr 26 min 25 sec) 
Heartbeat CPU 0 instructions: 46000003 cycles: 18066232 heartbeat IPC: 2.55523 cumulative IPC: 2.54619 (Simulation time: 0 hr 26 min 59 sec) 
Heartbeat CPU 0 instructions: 47000002 cycles: 18457631 heartbeat IPC: 2.55493 cumulative IPC: 2.54637 (Simulation time: 0 hr 27 min 35 sec) 
Heartbeat CPU 0 instructions: 48000000 cycles: 18853805 heartbeat IPC: 2.52414 cumulative IPC: 2.54591 (Simulation time: 0 hr 28 min 9 sec) 
Heartbeat CPU 0 instructions: 49000000 cycles: 19245231 heartbeat IPC: 2.55476 cumulative IPC: 2.54609 (Simulation time: 0 hr 28 min 46 sec) 
Heartbeat CPU 0 instructions: 50000003 cycles: 19636565 heartbeat IPC: 2.55537 cumulative IPC: 2.54627 (Simulation time: 0 hr 29 min 20 sec) 

Warmup complete CPU 0 instructions: 50000003 cycles: 19636565 (Simulation time: 0 hr 29 min 20 sec) 

Heartbeat CPU 0 instructions: 51000001 cycles: 21094208 heartbeat IPC: 0.686038 cumulative IPC: 0.686038 (Simulation time: 0 hr 30 min 1 sec) 
Heartbeat CPU 0 instructions: 52000000 cycles: 22481341 heartbeat IPC: 0.720911 cumulative IPC: 0.703042 (Simulation time: 0 hr 30 min 44 sec) 
Heartbeat CPU 0 instructions: 53000002 cycles: 23894040 heartbeat IPC: 0.707866 cumulative IPC: 0.704643 (Simulation time: 0 hr 31 min 26 sec) 
Heartbeat CPU 0 instructions: 54000002 cycles: 25335964 heartbeat IPC: 0.693518 cumulative IPC: 0.701828 (Simulation time: 0 hr 32 min 10 sec) 
Heartbeat CPU 0 instructions: 55000001 cycles: 26793790 heartbeat IPC: 0.685952 cumulative IPC: 0.698595 (Simulation time: 0 hr 32 min 53 sec) 
Heartbeat CPU 0 instructions: 56000000 cycles: 28241297 heartbeat IPC: 0.690842 cumulative IPC: 0.69729 (Simulation time: 0 hr 33 min 37 sec) 
Heartbeat CPU 0 instructions: 57000003 cycles: 29672395 heartbeat IPC: 0.698766 cumulative IPC: 0.697501 (Simulation time: 0 hr 34 min 17 sec) 
Heartbeat CPU 0 instructions: 58000003 cycles: 31155287 heartbeat IPC: 0.674358 cumulative IPC: 0.694521 (Simulation time: 0 hr 34 min 59 sec) 
Heartbeat CPU 0 instructions: 59000002 cycles: 32598330 heartbeat IPC: 0.692979 cumulative IPC: 0.69435 (Simulation time: 0 hr 35 min 43 sec) 
Heartbeat CPU 0 instructions: 60000000 cycles: 34012977 heartbeat IPC: 0.706889 cumulative IPC: 0.695584 (Simulation time: 0 hr 36 min 25 sec) 
Heartbeat CPU 0 instructions: 61000003 cycles: 35466974 heartbeat IPC: 0.687761 cumulative IPC: 0.694865 (Simulation time: 0 hr 37 min 6 sec) 
Heartbeat CPU 0 instructions: 62000001 cycles: 36868407 heartbeat IPC: 0.713554 cumulative IPC: 0.696385 (Simulation time: 0 hr 37 min 50 sec) 
Heartbeat CPU 0 instructions: 63000001 cycles: 38248744 heartbeat IPC: 0.724461 cumulative IPC: 0.698467 (Simulation time: 0 hr 38 min 30 sec) 
Heartbeat CPU 0 instructions: 64000000 cycles: 39605892 heartbeat IPC: 0.736839 cumulative IPC: 0.701075 (Simulation time: 0 hr 39 min 11 sec) 
Heartbeat CPU 0 instructions: 65000000 cycles: 40986497 heartbeat IPC: 0.72432 cumulative IPC: 0.702578 (Simulation time: 0 hr 39 min 52 sec) 
Heartbeat CPU 0 instructions: 66000000 cycles: 42396789 heartbeat IPC: 0.709073 cumulative IPC: 0.702981 (Simulation time: 0 hr 40 min 30 sec) 
Heartbeat CPU 0 instructions: 67000000 cycles: 43818158 heartbeat IPC: 0.703547 cumulative IPC: 0.703014 (Simulation time: 0 hr 41 min 10 sec) 
Heartbeat CPU 0 instructions: 68000000 cycles: 45275657 heartbeat IPC: 0.686107 cumulative IPC: 0.702053 (Simulation time: 0 hr 41 min 46 sec) 
Heartbeat CPU 0 instructions: 69000000 cycles: 46656475 heartbeat IPC: 0.724208 cumulative IPC: 0.703185 (Simulation time: 0 hr 42 min 22 sec) 
Heartbeat CPU 0 instructions: 70000000 cycles: 48055103 heartbeat IPC: 0.714986 cumulative IPC: 0.703766 (Simulation time: 0 hr 43 min 5 sec) 
Heartbeat CPU 0 instructions: 71000002 cycles: 49493151 heartbeat IPC: 0.695388 cumulative IPC: 0.703362 (Simulation time: 0 hr 43 min 41 sec) 
Heartbeat CPU 0 instructions: 72000000 cycles: 51710150 heartbeat IPC: 0.451059 cumulative IPC: 0.685923 (Simulation time: 0 hr 44 min 26 sec) 
Heartbeat CPU 0 instructions: 73000002 cycles: 54838685 heartbeat IPC: 0.319639 cumulative IPC: 0.65337 (Simulation time: 0 hr 45 min 22 sec) 
Heartbeat CPU 0 instructions: 74000002 cycles: 61250813 heartbeat IPC: 0.155954 cumulative IPC: 0.576726 (Simulation time: 0 hr 46 min 44 sec) 
Heartbeat CPU 0 instructions: 75000003 cycles: 63657398 heartbeat IPC: 0.415527 cumulative IPC: 0.567913 (Simulation time: 0 hr 47 min 39 sec) 
Heartbeat CPU 0 instructions: 76000000 cycles: 65694494 heartbeat IPC: 0.490893 cumulative IPC: 0.564506 (Simulation time: 0 hr 48 min 19 sec) 
Heartbeat CPU 0 instructions: 77000000 cycles: 67211709 heartbeat IPC: 0.659102 cumulative IPC: 0.567523 (Simulation time: 0 hr 48 min 57 sec) 
Heartbeat CPU 0 instructions: 78000002 cycles: 68715400 heartbeat IPC: 0.665032 cumulative IPC: 0.570511 (Simulation time: 0 hr 49 min 35 sec) 
Heartbeat CPU 0 instructions: 79000000 cycles: 70239967 heartbeat IPC: 0.655923 cumulative IPC: 0.573084 (Simulation time: 0 hr 50 min 10 sec) 
Heartbeat CPU 0 instructions: 80000000 cycles: 71654287 heartbeat IPC: 0.707054 cumulative IPC: 0.576726 (Simulation time: 0 hr 50 min 46 sec) 
Heartbeat CPU 0 instructions: 81000001 cycles: 72922746 heartbeat IPC: 0.788359 cumulative IPC: 0.581764 (Simulation time: 0 hr 51 min 18 sec) 
Heartbeat CPU 0 instructions: 82000002 cycles: 74276414 heartbeat IPC: 0.738734 cumulative IPC: 0.585653 (Simulation time: 0 hr 51 min 55 sec) 
Heartbeat CPU 0 instructions: 83000003 cycles: 75834042 heartbeat IPC: 0.642002 cumulative IPC: 0.587215 (Simulation time: 0 hr 52 min 30 sec) 
Heartbeat CPU 0 instructions: 84000000 cycles: 77271773 heartbeat IPC: 0.695538 cumulative IPC: 0.589917 (Simulation time: 0 hr 53 min 4 sec) 
Heartbeat CPU 0 instructions: 85000000 cycles: 78635085 heartbeat IPC: 0.733508 cumulative IPC: 0.593235 (Simulation time: 0 hr 53 min 35 sec) 
Heartbeat CPU 0 instructions: 86000000 cycles: 80147592 heartbeat IPC: 0.661154 cumulative IPC: 0.594933 (Simulation time: 0 hr 54 min 11 sec) 
Heartbeat CPU 0 instructions: 87000002 cycles: 81601729 heartbeat IPC: 0.687694 cumulative IPC: 0.59711 (Simulation time: 0 hr 54 min 48 sec) 
Heartbeat CPU 0 instructions: 88000000 cycles: 82945277 heartbeat IPC: 0.744296 cumulative IPC: 0.600233 (Simulation time: 0 hr 55 min 21 sec) 
Heartbeat CPU 0 instructions: 89000003 cycles: 84286878 heartbeat IPC: 0.74538 cumulative IPC: 0.603245 (Simulation time: 0 hr 55 min 55 sec) 
Heartbeat CPU 0 instructions: 90000002 cycles: 85784920 heartbeat IPC: 0.667537 cumulative IPC: 0.604701 (Simulation time: 0 hr 56 min 33 sec) 
Heartbeat CPU 0 instructions: 91000001 cycles: 87226159 heartbeat IPC: 0.693847 cumulative IPC: 0.606602 (Simulation time: 0 hr 57 min 7 sec) 
Heartbeat CPU 0 instructions: 92000000 cycles: 88541154 heartbeat IPC: 0.760458 cumulative IPC: 0.609538 (Simulation time: 0 hr 57 min 40 sec) 
Heartbeat CPU 0 instructions: 93000003 cycles: 89931680 heartbeat IPC: 0.719154 cumulative IPC: 0.611707 (Simulation time: 0 hr 58 min 17 sec) 
Heartbeat CPU 0 instructions: 94000003 cycles: 91379461 heartbeat IPC: 0.690712 cumulative IPC: 0.613301 (Simulation time: 0 hr 58 min 52 sec) 
Heartbeat CPU 0 instructions: 95000000 cycles: 92754002 heartbeat IPC: 0.727513 cumulative IPC: 0.615448 (Simulation time: 0 hr 59 min 25 sec) 
Heartbeat CPU 0 instructions: 96000000 cycles: 94211007 heartbeat IPC: 0.686339 cumulative IPC: 0.616833 (Simulation time: 1 hr 0 min 1 sec) 
Heartbeat CPU 0 instructions: 97000002 cycles: 95673841 heartbeat IPC: 0.683606 cumulative IPC: 0.618118 (Simulation time: 1 hr 0 min 37 sec) 
Heartbeat CPU 0 instructions: 98000001 cycles: 97101453 heartbeat IPC: 0.70047 cumulative IPC: 0.619636 (Simulation time: 1 hr 1 min 11 sec) 
Heartbeat CPU 0 instructions: 99000000 cycles: 98482661 heartbeat IPC: 0.724003 cumulative IPC: 0.621464 (Simulation time: 1 hr 1 min 45 sec) 
Heartbeat CPU 0 instructions: 100000000 cycles: 99970610 heartbeat IPC: 0.672066 cumulative IPC: 0.622401 (Simulation time: 1 hr 2 min 22 sec) 
Heartbeat CPU 0 instructions: 101000000 cycles: 101418802 heartbeat IPC: 0.690516 cumulative IPC: 0.623607 (Simulation time: 1 hr 2 min 57 sec) 
Heartbeat CPU 0 instructions: 102000000 cycles: 102853370 heartbeat IPC: 0.697074 cumulative IPC: 0.624874 (Simulation time: 1 hr 3 min 30 sec) 
Heartbeat CPU 0 instructions: 103000001 cycles: 104295168 heartbeat IPC: 0.693579 cumulative IPC: 0.626044 (Simulation time: 1 hr 4 min 5 sec) 
Heartbeat CPU 0 instructions: 104000000 cycles: 105718719 heartbeat IPC: 0.702468 cumulative IPC: 0.627308 (Simulation time: 1 hr 4 min 39 sec) 
Heartbeat CPU 0 instructions: 105000001 cycles: 107152555 heartbeat IPC: 0.697431 cumulative IPC: 0.628457 (Simulation time: 1 hr 5 min 17 sec) 
Heartbeat CPU 0 instructions: 106000000 cycles: 108539409 heartbeat IPC: 0.721056 cumulative IPC: 0.629901 (Simulation time: 1 hr 5 min 52 sec) 
Heartbeat CPU 0 instructions: 107000000 cycles: 110043977 heartbeat IPC: 0.664643 cumulative IPC: 0.630479 (Simulation time: 1 hr 6 min 29 sec) 
Heartbeat CPU 0 instructions: 108000000 cycles: 111496209 heartbeat IPC: 0.688595 cumulative IPC: 0.631398 (Simulation time: 1 hr 7 min 3 sec) 
Heartbeat CPU 0 instructions: 109000003 cycles: 112894392 heartbeat IPC: 0.715216 cumulative IPC: 0.632655 (Simulation time: 1 hr 7 min 42 sec) 
Heartbeat CPU 0 instructions: 110000001 cycles: 114311099 heartbeat IPC: 0.705861 cumulative IPC: 0.63375 (Simulation time: 1 hr 8 min 16 sec) 
Heartbeat CPU 0 instructions: 111000003 cycles: 115773368 heartbeat IPC: 0.68387 cumulative IPC: 0.634512 (Simulation time: 1 hr 8 min 52 sec) 
Heartbeat CPU 0 instructions: 112000000 cycles: 117170177 heartbeat IPC: 0.715915 cumulative IPC: 0.635678 (Simulation time: 1 hr 9 min 27 sec) 
Heartbeat CPU 0 instructions: 113000001 cycles: 118558527 heartbeat IPC: 0.72028 cumulative IPC: 0.636866 (Simulation time: 1 hr 10 min 1 sec) 
Heartbeat CPU 0 instructions: 114000001 cycles: 120062761 heartbeat IPC: 0.66479 cumulative IPC: 0.637284 (Simulation time: 1 hr 10 min 40 sec) 
Heartbeat CPU 0 instructions: 115000000 cycles: 121509592 heartbeat IPC: 0.691165 cumulative IPC: 0.638049 (Simulation time: 1 hr 11 min 16 sec) 
Heartbeat CPU 0 instructions: 116000000 cycles: 123015657 heartbeat IPC: 0.663982 cumulative IPC: 0.638427 (Simulation time: 1 hr 11 min 51 sec) 
Heartbeat CPU 0 instructions: 117000000 cycles: 124541576 heartbeat IPC: 0.655343 cumulative IPC: 0.638673 (Simulation time: 1 hr 12 min 26 sec) 
Heartbeat CPU 0 instructions: 118000002 cycles: 125961644 heartbeat IPC: 0.704193 cumulative IPC: 0.639548 (Simulation time: 1 hr 12 min 58 sec) 
Heartbeat CPU 0 instructions: 119000002 cycles: 127331822 heartbeat IPC: 0.729832 cumulative IPC: 0.640697 (Simulation time: 1 hr 13 min 30 sec) 
Heartbeat CPU 0 instructions: 120000000 cycles: 128901130 heartbeat IPC: 0.637222 cumulative IPC: 0.640647 (Simulation time: 1 hr 14 min 1 sec) 
Heartbeat CPU 0 instructions: 121000002 cycles: 130418488 heartbeat IPC: 0.659042 cumulative IPC: 0.640899 (Simulation time: 1 hr 14 min 33 sec) 
Heartbeat CPU 0 instructions: 122000002 cycles: 131895315 heartbeat IPC: 0.677127 cumulative IPC: 0.641375 (Simulation time: 1 hr 15 min 5 sec) 
Heartbeat CPU 0 instructions: 123000002 cycles: 133402405 heartbeat IPC: 0.66353 cumulative IPC: 0.641669 (Simulation time: 1 hr 15 min 36 sec) 
Heartbeat CPU 0 instructions: 124000000 cycles: 134962329 heartbeat IPC: 0.641056 cumulative IPC: 0.641661 (Simulation time: 1 hr 16 min 6 sec) 
Heartbeat CPU 0 instructions: 125000000 cycles: 136373978 heartbeat IPC: 0.708391 cumulative IPC: 0.642467 (Simulation time: 1 hr 16 min 38 sec) 
Heartbeat CPU 0 instructions: 126000002 cycles: 137859448 heartbeat IPC: 0.673189 cumulative IPC: 0.642854 (Simulation time: 1 hr 17 min 8 sec) 
Heartbeat CPU 0 instructions: 127000000 cycles: 139488570 heartbeat IPC: 0.613826 cumulative IPC: 0.642459 (Simulation time: 1 hr 17 min 39 sec) 
Heartbeat CPU 0 instructions: 128000000 cycles: 140869286 heartbeat IPC: 0.724262 cumulative IPC: 0.643391 (Simulation time: 1 hr 18 min 6 sec) 
Heartbeat CPU 0 instructions: 129000000 cycles: 142326820 heartbeat IPC: 0.68609 cumulative IPC: 0.643898 (Simulation time: 1 hr 18 min 33 sec) 
Heartbeat CPU 0 instructions: 130000000 cycles: 143968895 heartbeat IPC: 0.608986 cumulative IPC: 0.643437 (Simulation time: 1 hr 19 min 2 sec) 
Heartbeat CPU 0 instructions: 131000000 cycles: 145395940 heartbeat IPC: 0.700749 cumulative IPC: 0.644087 (Simulation time: 1 hr 19 min 29 sec) 
Heartbeat CPU 0 instructions: 132000000 cycles: 146832375 heartbeat IPC: 0.696168 cumulative IPC: 0.644675 (Simulation time: 1 hr 19 min 55 sec) 
Heartbeat CPU 0 instructions: 133000001 cycles: 148544491 heartbeat IPC: 0.584073 cumulative IPC: 0.64387 (Simulation time: 1 hr 20 min 21 sec) 
Heartbeat CPU 0 instructions: 134000000 cycles: 149963145 heartbeat IPC: 0.704893 cumulative IPC: 0.644535 (Simulation time: 1 hr 20 min 46 sec) 
Heartbeat CPU 0 instructions: 135000003 cycles: 151428028 heartbeat IPC: 0.68265 cumulative IPC: 0.644958 (Simulation time: 1 hr 21 min 9 sec) 
Heartbeat CPU 0 instructions: 136000000 cycles: 153102768 heartbeat IPC: 0.597106 cumulative IPC: 0.644358 (Simulation time: 1 hr 21 min 35 sec) 
Heartbeat CPU 0 instructions: 137000000 cycles: 154444019 heartbeat IPC: 0.745573 cumulative IPC: 0.645365 (Simulation time: 1 hr 21 min 59 sec) 
Heartbeat CPU 0 instructions: 138000003 cycles: 155833224 heartbeat IPC: 0.719838 cumulative IPC: 0.646125 (Simulation time: 1 hr 22 min 25 sec) 
Heartbeat CPU 0 instructions: 139000000 cycles: 157519527 heartbeat IPC: 0.593011 cumulative IPC: 0.645475 (Simulation time: 1 hr 22 min 53 sec) 
Heartbeat CPU 0 instructions: 140000000 cycles: 158969227 heartbeat IPC: 0.689798 cumulative IPC: 0.645936 (Simulation time: 1 hr 23 min 20 sec) 
Heartbeat CPU 0 instructions: 141000001 cycles: 160443467 heartbeat IPC: 0.678316 cumulative IPC: 0.646275 (Simulation time: 1 hr 23 min 47 sec) 
Heartbeat CPU 0 instructions: 142000003 cycles: 162177702 heartbeat IPC: 0.576624 cumulative IPC: 0.645428 (Simulation time: 1 hr 24 min 16 sec) 
Heartbeat CPU 0 instructions: 143000000 cycles: 163637990 heartbeat IPC: 0.684794 cumulative IPC: 0.645827 (Simulation time: 1 hr 24 min 42 sec) 
Heartbeat CPU 0 instructions: 144000000 cycles: 165120845 heartbeat IPC: 0.674375 cumulative IPC: 0.646118 (Simulation time: 1 hr 25 min 7 sec) 
Heartbeat CPU 0 instructions: 145000000 cycles: 166857173 heartbeat IPC: 0.575928 cumulative IPC: 0.64529 (Simulation time: 1 hr 25 min 33 sec) 
Heartbeat CPU 0 instructions: 146000003 cycles: 168305423 heartbeat IPC: 0.690491 cumulative IPC: 0.64573 (Simulation time: 1 hr 25 min 57 sec) 
Heartbeat CPU 0 instructions: 147000000 cycles: 169744237 heartbeat IPC: 0.695015 cumulative IPC: 0.646203 (Simulation time: 1 hr 26 min 20 sec) 
Heartbeat CPU 0 instructions: 148000000 cycles: 171490054 heartbeat IPC: 0.572798 cumulative IPC: 0.645359 (Simulation time: 1 hr 26 min 45 sec) 
Heartbeat CPU 0 instructions: 149000001 cycles: 172919278 heartbeat IPC: 0.699681 cumulative IPC: 0.645865 (Simulation time: 1 hr 27 min 8 sec) 
Heartbeat CPU 0 instructions: 150000000 cycles: 174364699 heartbeat IPC: 0.691839 cumulative IPC: 0.646295 (Simulation time: 1 hr 27 min 30 sec) 
Finished CPU 0 instructions: 100000003 cycles: 154728174 cummulative IPC: 0.646295 (Simulation time: 1 hr 27 min 30 sec) 

ChampSim completed all CPUs

Region of Interest Statistics

CPU 0 cummulative IPC: 0.646295 instructions: 100000003 cycles: 154728174
LLC TOTAL     ACCESS:    5975070  HIT:    1854936  MISS:    4120134
LLC LOAD      ACCESS:     434561  HIT:      16992  MISS:     417569
LLC RFO       ACCESS:    2551826  HIT:     651496  MISS:    1900330
LLC PREFETCH  ACCESS:     436552  HIT:      22203  MISS:     414349
LLC WRITEBACK ACCESS:    2552131  HIT:    1164245  MISS:    1387886
OPTgen accesses: 66975
OPTgen hits: 21570
OPTgen hit rate: 32.206


