
*** ChampSim Multicore Out-of-Order Simulator ***

Warmup Instructions: 50000000
Simulation Instructions: 100000000
Configuration: 2
Number of CPUs: 1
LLC sets: 2048
LLC ways: 16
Off-chip DRAM Channels: 1 Width: 64-bit Data Rate: 1600 MT/s

CPU 0 runs /datasets/cs240c-wi22-a00-public/data/Assignment2-gz/gcc_13B.trace.gz
CPU 0 L1D next line prefetcher
CPU 0 L2C IP-based stride prefetcher
Initialize Hawkeye state
Heartbeat CPU 0 instructions: 1000000 cycles: 633313 heartbeat IPC: 1.579 cumulative IPC: 1.579 (Simulation time: 0 hr 0 min 44 sec) 
Heartbeat CPU 0 instructions: 2000001 cycles: 1243575 heartbeat IPC: 1.63864 cumulative IPC: 1.60827 (Simulation time: 0 hr 1 min 26 sec) 
Heartbeat CPU 0 instructions: 3000001 cycles: 1717448 heartbeat IPC: 2.11027 cumulative IPC: 1.74678 (Simulation time: 0 hr 2 min 5 sec) 
Heartbeat CPU 0 instructions: 4000000 cycles: 2191041 heartbeat IPC: 2.11152 cumulative IPC: 1.82562 (Simulation time: 0 hr 2 min 44 sec) 
Heartbeat CPU 0 instructions: 5000002 cycles: 2665159 heartbeat IPC: 2.10918 cumulative IPC: 1.87606 (Simulation time: 0 hr 3 min 24 sec) 
Heartbeat CPU 0 instructions: 6000002 cycles: 3139022 heartbeat IPC: 2.11031 cumulative IPC: 1.91142 (Simulation time: 0 hr 4 min 3 sec) 
Heartbeat CPU 0 instructions: 7000001 cycles: 3614398 heartbeat IPC: 2.1036 cumulative IPC: 1.9367 (Simulation time: 0 hr 4 min 45 sec) 
Heartbeat CPU 0 instructions: 8000000 cycles: 4091538 heartbeat IPC: 2.09582 cumulative IPC: 1.95525 (Simulation time: 0 hr 5 min 25 sec) 
Heartbeat CPU 0 instructions: 9000001 cycles: 4832529 heartbeat IPC: 1.34955 cumulative IPC: 1.86238 (Simulation time: 0 hr 6 min 12 sec) 
Heartbeat CPU 0 instructions: 10000001 cycles: 5537373 heartbeat IPC: 1.41875 cumulative IPC: 1.80591 (Simulation time: 0 hr 6 min 55 sec) 
Heartbeat CPU 0 instructions: 11000002 cycles: 6158408 heartbeat IPC: 1.61022 cumulative IPC: 1.78618 (Simulation time: 0 hr 7 min 39 sec) 
Heartbeat CPU 0 instructions: 12000000 cycles: 6772264 heartbeat IPC: 1.62904 cumulative IPC: 1.77193 (Simulation time: 0 hr 8 min 23 sec) 
Heartbeat CPU 0 instructions: 13000000 cycles: 7378295 heartbeat IPC: 1.65008 cumulative IPC: 1.76192 (Simulation time: 0 hr 9 min 7 sec) 
Heartbeat CPU 0 instructions: 14000000 cycles: 8018023 heartbeat IPC: 1.56316 cumulative IPC: 1.74607 (Simulation time: 0 hr 9 min 50 sec) 
Heartbeat CPU 0 instructions: 15000001 cycles: 8617235 heartbeat IPC: 1.66886 cumulative IPC: 1.7407 (Simulation time: 0 hr 10 min 31 sec) 
Heartbeat CPU 0 instructions: 16000000 cycles: 9090379 heartbeat IPC: 2.11352 cumulative IPC: 1.7601 (Simulation time: 0 hr 11 min 10 sec) 
Heartbeat CPU 0 instructions: 17000000 cycles: 9564051 heartbeat IPC: 2.11117 cumulative IPC: 1.77749 (Simulation time: 0 hr 11 min 48 sec) 
Heartbeat CPU 0 instructions: 18000000 cycles: 10037691 heartbeat IPC: 2.11131 cumulative IPC: 1.79324 (Simulation time: 0 hr 12 min 27 sec) 
Heartbeat CPU 0 instructions: 19000002 cycles: 10511388 heartbeat IPC: 2.11106 cumulative IPC: 1.80756 (Simulation time: 0 hr 13 min 7 sec) 
Heartbeat CPU 0 instructions: 20000000 cycles: 10987076 heartbeat IPC: 2.10221 cumulative IPC: 1.82032 (Simulation time: 0 hr 13 min 50 sec) 
Heartbeat CPU 0 instructions: 21000001 cycles: 11467895 heartbeat IPC: 2.07979 cumulative IPC: 1.8312 (Simulation time: 0 hr 14 min 30 sec) 
Heartbeat CPU 0 instructions: 22000000 cycles: 12204731 heartbeat IPC: 1.35715 cumulative IPC: 1.80258 (Simulation time: 0 hr 15 min 13 sec) 
Heartbeat CPU 0 instructions: 23000002 cycles: 12902633 heartbeat IPC: 1.43287 cumulative IPC: 1.78258 (Simulation time: 0 hr 15 min 59 sec) 
Heartbeat CPU 0 instructions: 24000000 cycles: 13523260 heartbeat IPC: 1.61127 cumulative IPC: 1.77472 (Simulation time: 0 hr 16 min 45 sec) 
Heartbeat CPU 0 instructions: 25000000 cycles: 14139007 heartbeat IPC: 1.62404 cumulative IPC: 1.76816 (Simulation time: 0 hr 17 min 30 sec) 
Heartbeat CPU 0 instructions: 26000002 cycles: 14746605 heartbeat IPC: 1.64583 cumulative IPC: 1.76312 (Simulation time: 0 hr 18 min 16 sec) 
Heartbeat CPU 0 instructions: 27000001 cycles: 15397496 heartbeat IPC: 1.53635 cumulative IPC: 1.75353 (Simulation time: 0 hr 19 min 0 sec) 
Heartbeat CPU 0 instructions: 28000000 cycles: 15979995 heartbeat IPC: 1.71674 cumulative IPC: 1.75219 (Simulation time: 0 hr 19 min 38 sec) 
Heartbeat CPU 0 instructions: 29000001 cycles: 16453435 heartbeat IPC: 2.1122 cumulative IPC: 1.76255 (Simulation time: 0 hr 20 min 17 sec) 
Heartbeat CPU 0 instructions: 30000000 cycles: 16926835 heartbeat IPC: 2.11238 cumulative IPC: 1.77233 (Simulation time: 0 hr 20 min 58 sec) 
Heartbeat CPU 0 instructions: 31000000 cycles: 17400584 heartbeat IPC: 2.11082 cumulative IPC: 1.78155 (Simulation time: 0 hr 21 min 39 sec) 
Heartbeat CPU 0 instructions: 32000000 cycles: 17874317 heartbeat IPC: 2.11089 cumulative IPC: 1.79028 (Simulation time: 0 hr 22 min 18 sec) 
Heartbeat CPU 0 instructions: 33000002 cycles: 18349841 heartbeat IPC: 2.10295 cumulative IPC: 1.79838 (Simulation time: 0 hr 22 min 58 sec) 
Heartbeat CPU 0 instructions: 34000001 cycles: 18823071 heartbeat IPC: 2.11314 cumulative IPC: 1.80629 (Simulation time: 0 hr 23 min 39 sec) 
Heartbeat CPU 0 instructions: 35000000 cycles: 19467756 heartbeat IPC: 1.55114 cumulative IPC: 1.79784 (Simulation time: 0 hr 24 min 28 sec) 
Heartbeat CPU 0 instructions: 36000000 cycles: 20152222 heartbeat IPC: 1.46099 cumulative IPC: 1.7864 (Simulation time: 0 hr 25 min 12 sec) 
Heartbeat CPU 0 instructions: 37000003 cycles: 20836891 heartbeat IPC: 1.46056 cumulative IPC: 1.7757 (Simulation time: 0 hr 25 min 56 sec) 
Heartbeat CPU 0 instructions: 38000000 cycles: 21521949 heartbeat IPC: 1.45973 cumulative IPC: 1.76564 (Simulation time: 0 hr 26 min 37 sec) 
Heartbeat CPU 0 instructions: 39000002 cycles: 22206869 heartbeat IPC: 1.46003 cumulative IPC: 1.75621 (Simulation time: 0 hr 27 min 18 sec) 
Heartbeat CPU 0 instructions: 40000000 cycles: 22892369 heartbeat IPC: 1.45879 cumulative IPC: 1.74731 (Simulation time: 0 hr 28 min 2 sec) 
Heartbeat CPU 0 instructions: 41000000 cycles: 23577624 heartbeat IPC: 1.45931 cumulative IPC: 1.73894 (Simulation time: 0 hr 28 min 46 sec) 
Heartbeat CPU 0 instructions: 42000000 cycles: 24262283 heartbeat IPC: 1.46058 cumulative IPC: 1.73108 (Simulation time: 0 hr 29 min 28 sec) 
Heartbeat CPU 0 instructions: 43000002 cycles: 24947352 heartbeat IPC: 1.45971 cumulative IPC: 1.72363 (Simulation time: 0 hr 30 min 11 sec) 
Heartbeat CPU 0 instructions: 44000000 cycles: 25632427 heartbeat IPC: 1.45969 cumulative IPC: 1.71658 (Simulation time: 0 hr 30 min 53 sec) 
Heartbeat CPU 0 instructions: 45000000 cycles: 26318176 heartbeat IPC: 1.45826 cumulative IPC: 1.70984 (Simulation time: 0 hr 31 min 35 sec) 
Heartbeat CPU 0 instructions: 46000002 cycles: 27003427 heartbeat IPC: 1.45932 cumulative IPC: 1.70349 (Simulation time: 0 hr 32 min 20 sec) 
Heartbeat CPU 0 instructions: 47000001 cycles: 27688119 heartbeat IPC: 1.46051 cumulative IPC: 1.69748 (Simulation time: 0 hr 33 min 1 sec) 
Heartbeat CPU 0 instructions: 48000000 cycles: 28372410 heartbeat IPC: 1.46137 cumulative IPC: 1.69178 (Simulation time: 0 hr 33 min 44 sec) 
Heartbeat CPU 0 instructions: 49000000 cycles: 29057610 heartbeat IPC: 1.45943 cumulative IPC: 1.68631 (Simulation time: 0 hr 34 min 27 sec) 
Heartbeat CPU 0 instructions: 50000003 cycles: 29741911 heartbeat IPC: 1.46135 cumulative IPC: 1.68113 (Simulation time: 0 hr 35 min 8 sec) 

Warmup complete CPU 0 instructions: 50000003 cycles: 29741911 (Simulation time: 0 hr 35 min 8 sec) 

Heartbeat CPU 0 instructions: 51000001 cycles: 33321422 heartbeat IPC: 0.279367 cumulative IPC: 0.279367 (Simulation time: 0 hr 35 min 56 sec) 
Heartbeat CPU 0 instructions: 52000000 cycles: 36887737 heartbeat IPC: 0.280401 cumulative IPC: 0.279883 (Simulation time: 0 hr 36 min 39 sec) 
Heartbeat CPU 0 instructions: 53000001 cycles: 40469644 heartbeat IPC: 0.279181 cumulative IPC: 0.279649 (Simulation time: 0 hr 37 min 20 sec) 
Heartbeat CPU 0 instructions: 54000000 cycles: 44044560 heartbeat IPC: 0.279727 cumulative IPC: 0.279668 (Simulation time: 0 hr 38 min 8 sec) 
Heartbeat CPU 0 instructions: 55000000 cycles: 47628709 heartbeat IPC: 0.279006 cumulative IPC: 0.279536 (Simulation time: 0 hr 38 min 52 sec) 
Heartbeat CPU 0 instructions: 56000000 cycles: 51201958 heartbeat IPC: 0.279857 cumulative IPC: 0.279589 (Simulation time: 0 hr 39 min 31 sec) 
Heartbeat CPU 0 instructions: 57000002 cycles: 54742235 heartbeat IPC: 0.282464 cumulative IPC: 0.279996 (Simulation time: 0 hr 40 min 12 sec) 
Heartbeat CPU 0 instructions: 58000001 cycles: 58288353 heartbeat IPC: 0.281998 cumulative IPC: 0.280245 (Simulation time: 0 hr 40 min 55 sec) 
Heartbeat CPU 0 instructions: 59000003 cycles: 61807271 heartbeat IPC: 0.284179 cumulative IPC: 0.280677 (Simulation time: 0 hr 41 min 35 sec) 
Heartbeat CPU 0 instructions: 60000000 cycles: 65322771 heartbeat IPC: 0.284454 cumulative IPC: 0.28105 (Simulation time: 0 hr 42 min 18 sec) 
Heartbeat CPU 0 instructions: 61000000 cycles: 68833738 heartbeat IPC: 0.284822 cumulative IPC: 0.281389 (Simulation time: 0 hr 42 min 57 sec) 
Heartbeat CPU 0 instructions: 62000003 cycles: 72341437 heartbeat IPC: 0.285088 cumulative IPC: 0.281693 (Simulation time: 0 hr 43 min 31 sec) 
Heartbeat CPU 0 instructions: 63000001 cycles: 75851825 heartbeat IPC: 0.284868 cumulative IPC: 0.281935 (Simulation time: 0 hr 44 min 6 sec) 
Heartbeat CPU 0 instructions: 64000000 cycles: 79381467 heartbeat IPC: 0.283315 cumulative IPC: 0.282033 (Simulation time: 0 hr 44 min 39 sec) 
Heartbeat CPU 0 instructions: 65000000 cycles: 82951609 heartbeat IPC: 0.280101 cumulative IPC: 0.281903 (Simulation time: 0 hr 45 min 14 sec) 
Heartbeat CPU 0 instructions: 66000000 cycles: 86521358 heartbeat IPC: 0.280132 cumulative IPC: 0.281792 (Simulation time: 0 hr 45 min 48 sec) 
Heartbeat CPU 0 instructions: 67000001 cycles: 90168692 heartbeat IPC: 0.274173 cumulative IPC: 0.281332 (Simulation time: 0 hr 46 min 26 sec) 
Heartbeat CPU 0 instructions: 68000000 cycles: 93860711 heartbeat IPC: 0.270854 cumulative IPC: 0.280729 (Simulation time: 0 hr 47 min 8 sec) 
Heartbeat CPU 0 instructions: 69000003 cycles: 97613852 heartbeat IPC: 0.266444 cumulative IPC: 0.279939 (Simulation time: 0 hr 47 min 47 sec) 
Heartbeat CPU 0 instructions: 70000000 cycles: 101423308 heartbeat IPC: 0.262504 cumulative IPC: 0.279012 (Simulation time: 0 hr 48 min 27 sec) 
Heartbeat CPU 0 instructions: 71000002 cycles: 105036043 heartbeat IPC: 0.276799 cumulative IPC: 0.278906 (Simulation time: 0 hr 49 min 9 sec) 
Heartbeat CPU 0 instructions: 72000000 cycles: 108620463 heartbeat IPC: 0.278985 cumulative IPC: 0.27891 (Simulation time: 0 hr 49 min 52 sec) 
Heartbeat CPU 0 instructions: 73000003 cycles: 112203679 heartbeat IPC: 0.27908 cumulative IPC: 0.278917 (Simulation time: 0 hr 50 min 30 sec) 
Heartbeat CPU 0 instructions: 74000000 cycles: 115797412 heartbeat IPC: 0.278261 cumulative IPC: 0.27889 (Simulation time: 0 hr 51 min 10 sec) 
Heartbeat CPU 0 instructions: 75000000 cycles: 119390218 heartbeat IPC: 0.278334 cumulative IPC: 0.278867 (Simulation time: 0 hr 51 min 50 sec) 
Heartbeat CPU 0 instructions: 76000000 cycles: 123008518 heartbeat IPC: 0.276373 cumulative IPC: 0.278771 (Simulation time: 0 hr 52 min 33 sec) 
Heartbeat CPU 0 instructions: 77000000 cycles: 126599209 heartbeat IPC: 0.278498 cumulative IPC: 0.278761 (Simulation time: 0 hr 53 min 13 sec) 
Heartbeat CPU 0 instructions: 78000003 cycles: 130138317 heartbeat IPC: 0.282558 cumulative IPC: 0.278894 (Simulation time: 0 hr 53 min 52 sec) 
Heartbeat CPU 0 instructions: 79000000 cycles: 133706915 heartbeat IPC: 0.280221 cumulative IPC: 0.27894 (Simulation time: 0 hr 54 min 33 sec) 
Heartbeat CPU 0 instructions: 80000000 cycles: 137239204 heartbeat IPC: 0.283103 cumulative IPC: 0.279077 (Simulation time: 0 hr 55 min 13 sec) 
Heartbeat CPU 0 instructions: 81000001 cycles: 140758574 heartbeat IPC: 0.284142 cumulative IPC: 0.279237 (Simulation time: 0 hr 55 min 53 sec) 
Heartbeat CPU 0 instructions: 82000000 cycles: 144281026 heartbeat IPC: 0.283893 cumulative IPC: 0.279381 (Simulation time: 0 hr 56 min 32 sec) 
Heartbeat CPU 0 instructions: 83000003 cycles: 147823319 heartbeat IPC: 0.282304 cumulative IPC: 0.279468 (Simulation time: 0 hr 57 min 13 sec) 
Heartbeat CPU 0 instructions: 84000000 cycles: 151345376 heartbeat IPC: 0.283924 cumulative IPC: 0.279597 (Simulation time: 0 hr 57 min 58 sec) 
Heartbeat CPU 0 instructions: 85000000 cycles: 154861479 heartbeat IPC: 0.284406 cumulative IPC: 0.279732 (Simulation time: 0 hr 58 min 40 sec) 
Heartbeat CPU 0 instructions: 86000001 cycles: 158384538 heartbeat IPC: 0.283845 cumulative IPC: 0.279845 (Simulation time: 0 hr 59 min 17 sec) 
Heartbeat CPU 0 instructions: 87000001 cycles: 161918039 heartbeat IPC: 0.283005 cumulative IPC: 0.27993 (Simulation time: 0 hr 59 min 53 sec) 
Heartbeat CPU 0 instructions: 88000000 cycles: 165439668 heartbeat IPC: 0.283959 cumulative IPC: 0.280034 (Simulation time: 1 hr 0 min 32 sec) 
Heartbeat CPU 0 instructions: 89000003 cycles: 168963982 heartbeat IPC: 0.283744 cumulative IPC: 0.280128 (Simulation time: 1 hr 1 min 9 sec) 
Heartbeat CPU 0 instructions: 90000000 cycles: 172502184 heartbeat IPC: 0.282629 cumulative IPC: 0.28019 (Simulation time: 1 hr 1 min 46 sec) 
Heartbeat CPU 0 instructions: 91000000 cycles: 176029416 heartbeat IPC: 0.283508 cumulative IPC: 0.28027 (Simulation time: 1 hr 2 min 27 sec) 
Heartbeat CPU 0 instructions: 92000000 cycles: 179540598 heartbeat IPC: 0.284804 cumulative IPC: 0.280376 (Simulation time: 1 hr 3 min 9 sec) 
Heartbeat CPU 0 instructions: 93000001 cycles: 183056187 heartbeat IPC: 0.284448 cumulative IPC: 0.28047 (Simulation time: 1 hr 3 min 47 sec) 
Heartbeat CPU 0 instructions: 94000003 cycles: 186561429 heartbeat IPC: 0.285288 cumulative IPC: 0.280577 (Simulation time: 1 hr 4 min 28 sec) 
Heartbeat CPU 0 instructions: 95000002 cycles: 190074035 heartbeat IPC: 0.284689 cumulative IPC: 0.280667 (Simulation time: 1 hr 5 min 6 sec) 
Heartbeat CPU 0 instructions: 96000000 cycles: 193568302 heartbeat IPC: 0.286182 cumulative IPC: 0.280785 (Simulation time: 1 hr 5 min 49 sec) 
Heartbeat CPU 0 instructions: 97000000 cycles: 197058308 heartbeat IPC: 0.286532 cumulative IPC: 0.280905 (Simulation time: 1 hr 6 min 33 sec) 
Heartbeat CPU 0 instructions: 98000000 cycles: 200541674 heartbeat IPC: 0.287079 cumulative IPC: 0.281031 (Simulation time: 1 hr 7 min 13 sec) 
Heartbeat CPU 0 instructions: 99000000 cycles: 204045768 heartbeat IPC: 0.28538 cumulative IPC: 0.281118 (Simulation time: 1 hr 7 min 52 sec) 
Heartbeat CPU 0 instructions: 100000000 cycles: 207568715 heartbeat IPC: 0.283853 cumulative IPC: 0.281172 (Simulation time: 1 hr 8 min 38 sec) 
Heartbeat CPU 0 instructions: 101000003 cycles: 211073703 heartbeat IPC: 0.285309 cumulative IPC: 0.281252 (Simulation time: 1 hr 9 min 27 sec) 
Heartbeat CPU 0 instructions: 102000000 cycles: 214887395 heartbeat IPC: 0.262212 cumulative IPC: 0.28086 (Simulation time: 1 hr 10 min 5 sec) 
Heartbeat CPU 0 instructions: 103000002 cycles: 219010439 heartbeat IPC: 0.24254 cumulative IPC: 0.280025 (Simulation time: 1 hr 10 min 45 sec) 
Heartbeat CPU 0 instructions: 104000000 cycles: 223068606 heartbeat IPC: 0.246416 cumulative IPC: 0.27932 (Simulation time: 1 hr 11 min 27 sec) 
Heartbeat CPU 0 instructions: 105000000 cycles: 226941126 heartbeat IPC: 0.25823 cumulative IPC: 0.278906 (Simulation time: 1 hr 12 min 3 sec) 
Heartbeat CPU 0 instructions: 106000002 cycles: 230802584 heartbeat IPC: 0.25897 cumulative IPC: 0.278523 (Simulation time: 1 hr 12 min 38 sec) 
Heartbeat CPU 0 instructions: 107000001 cycles: 234715975 heartbeat IPC: 0.255533 cumulative IPC: 0.278084 (Simulation time: 1 hr 13 min 13 sec) 
Heartbeat CPU 0 instructions: 108000000 cycles: 238523206 heartbeat IPC: 0.262658 cumulative IPC: 0.277803 (Simulation time: 1 hr 13 min 46 sec) 
Heartbeat CPU 0 instructions: 109000000 cycles: 242246225 heartbeat IPC: 0.268599 cumulative IPC: 0.277641 (Simulation time: 1 hr 14 min 18 sec) 
Heartbeat CPU 0 instructions: 110000002 cycles: 245942927 heartbeat IPC: 0.270512 cumulative IPC: 0.277519 (Simulation time: 1 hr 14 min 52 sec) 
Heartbeat CPU 0 instructions: 111000000 cycles: 249622572 heartbeat IPC: 0.271765 cumulative IPC: 0.277423 (Simulation time: 1 hr 15 min 26 sec) 
Heartbeat CPU 0 instructions: 112000000 cycles: 253304416 heartbeat IPC: 0.271603 cumulative IPC: 0.277327 (Simulation time: 1 hr 16 min 1 sec) 
Heartbeat CPU 0 instructions: 113000001 cycles: 257000500 heartbeat IPC: 0.270557 cumulative IPC: 0.277217 (Simulation time: 1 hr 16 min 36 sec) 
Heartbeat CPU 0 instructions: 114000000 cycles: 260681449 heartbeat IPC: 0.271669 cumulative IPC: 0.277129 (Simulation time: 1 hr 17 min 8 sec) 
Heartbeat CPU 0 instructions: 115000003 cycles: 264247925 heartbeat IPC: 0.28039 cumulative IPC: 0.277178 (Simulation time: 1 hr 17 min 42 sec) 
Heartbeat CPU 0 instructions: 116000000 cycles: 267775126 heartbeat IPC: 0.28351 cumulative IPC: 0.277272 (Simulation time: 1 hr 18 min 12 sec) 
Heartbeat CPU 0 instructions: 117000001 cycles: 271290463 heartbeat IPC: 0.284468 cumulative IPC: 0.277377 (Simulation time: 1 hr 18 min 42 sec) 
Heartbeat CPU 0 instructions: 118000000 cycles: 274807752 heartbeat IPC: 0.28431 cumulative IPC: 0.277476 (Simulation time: 1 hr 19 min 11 sec) 
Heartbeat CPU 0 instructions: 119000001 cycles: 278513888 heartbeat IPC: 0.269823 cumulative IPC: 0.277362 (Simulation time: 1 hr 19 min 39 sec) 
Heartbeat CPU 0 instructions: 120000000 cycles: 283471608 heartbeat IPC: 0.201705 cumulative IPC: 0.275884 (Simulation time: 1 hr 20 min 12 sec) 
Heartbeat CPU 0 instructions: 121000001 cycles: 289383161 heartbeat IPC: 0.16916 cumulative IPC: 0.273454 (Simulation time: 1 hr 20 min 46 sec) 
Heartbeat CPU 0 instructions: 122000000 cycles: 295008998 heartbeat IPC: 0.177751 cumulative IPC: 0.271425 (Simulation time: 1 hr 21 min 19 sec) 
Heartbeat CPU 0 instructions: 123000001 cycles: 300621801 heartbeat IPC: 0.178164 cumulative IPC: 0.269492 (Simulation time: 1 hr 21 min 50 sec) 
Heartbeat CPU 0 instructions: 124000000 cycles: 306171924 heartbeat IPC: 0.180176 cumulative IPC: 0.267699 (Simulation time: 1 hr 22 min 28 sec) 
Heartbeat CPU 0 instructions: 125000003 cycles: 311629793 heartbeat IPC: 0.183222 cumulative IPC: 0.266063 (Simulation time: 1 hr 23 min 8 sec) 
Heartbeat CPU 0 instructions: 126000000 cycles: 317078290 heartbeat IPC: 0.183536 cumulative IPC: 0.264498 (Simulation time: 1 hr 23 min 47 sec) 
Heartbeat CPU 0 instructions: 127000003 cycles: 322526311 heartbeat IPC: 0.183553 cumulative IPC: 0.262992 (Simulation time: 1 hr 24 min 25 sec) 
Heartbeat CPU 0 instructions: 128000000 cycles: 327870265 heartbeat IPC: 0.187127 cumulative IPC: 0.261632 (Simulation time: 1 hr 25 min 1 sec) 
Heartbeat CPU 0 instructions: 129000002 cycles: 333071454 heartbeat IPC: 0.192264 cumulative IPC: 0.260443 (Simulation time: 1 hr 25 min 36 sec) 
Heartbeat CPU 0 instructions: 130000000 cycles: 338246872 heartbeat IPC: 0.193221 cumulative IPC: 0.259315 (Simulation time: 1 hr 26 min 10 sec) 
Heartbeat CPU 0 instructions: 131000001 cycles: 343618033 heartbeat IPC: 0.18618 cumulative IPC: 0.258064 (Simulation time: 1 hr 26 min 44 sec) 
Heartbeat CPU 0 instructions: 132000000 cycles: 349025696 heartbeat IPC: 0.184923 cumulative IPC: 0.256825 (Simulation time: 1 hr 27 min 17 sec) 
Heartbeat CPU 0 instructions: 133000001 cycles: 354632888 heartbeat IPC: 0.178343 cumulative IPC: 0.25547 (Simulation time: 1 hr 27 min 50 sec) 
Heartbeat CPU 0 instructions: 134000002 cycles: 359828145 heartbeat IPC: 0.192483 cumulative IPC: 0.254479 (Simulation time: 1 hr 28 min 20 sec) 
Heartbeat CPU 0 instructions: 135000000 cycles: 364988094 heartbeat IPC: 0.1938 cumulative IPC: 0.253545 (Simulation time: 1 hr 28 min 49 sec) 
Heartbeat CPU 0 instructions: 136000000 cycles: 370159111 heartbeat IPC: 0.193386 cumulative IPC: 0.252631 (Simulation time: 1 hr 29 min 17 sec) 
Heartbeat CPU 0 instructions: 137000001 cycles: 375232964 heartbeat IPC: 0.197089 cumulative IPC: 0.251815 (Simulation time: 1 hr 29 min 43 sec) 
Heartbeat CPU 0 instructions: 138000002 cycles: 380199207 heartbeat IPC: 0.20136 cumulative IPC: 0.2511 (Simulation time: 1 hr 30 min 8 sec) 
Heartbeat CPU 0 instructions: 139000000 cycles: 385161550 heartbeat IPC: 0.201517 cumulative IPC: 0.250408 (Simulation time: 1 hr 30 min 33 sec) 
Heartbeat CPU 0 instructions: 140000000 cycles: 390125275 heartbeat IPC: 0.201462 cumulative IPC: 0.249734 (Simulation time: 1 hr 30 min 59 sec) 
Heartbeat CPU 0 instructions: 141000000 cycles: 395097976 heartbeat IPC: 0.201098 cumulative IPC: 0.249072 (Simulation time: 1 hr 31 min 21 sec) 
Heartbeat CPU 0 instructions: 142000000 cycles: 400010568 heartbeat IPC: 0.203559 cumulative IPC: 0.248468 (Simulation time: 1 hr 31 min 42 sec) 
Heartbeat CPU 0 instructions: 143000000 cycles: 404890149 heartbeat IPC: 0.204936 cumulative IPC: 0.247902 (Simulation time: 1 hr 32 min 2 sec) 
Heartbeat CPU 0 instructions: 144000000 cycles: 409764932 heartbeat IPC: 0.205137 cumulative IPC: 0.247353 (Simulation time: 1 hr 32 min 22 sec) 
Heartbeat CPU 0 instructions: 145000000 cycles: 414616768 heartbeat IPC: 0.206108 cumulative IPC: 0.246833 (Simulation time: 1 hr 32 min 41 sec) 
Heartbeat CPU 0 instructions: 146000000 cycles: 419543150 heartbeat IPC: 0.202989 cumulative IPC: 0.246279 (Simulation time: 1 hr 32 min 59 sec) 
Heartbeat CPU 0 instructions: 147000000 cycles: 423173946 heartbeat IPC: 0.275422 cumulative IPC: 0.246548 (Simulation time: 1 hr 33 min 16 sec) 
Heartbeat CPU 0 instructions: 148000000 cycles: 428234370 heartbeat IPC: 0.197612 cumulative IPC: 0.245927 (Simulation time: 1 hr 33 min 33 sec) 
Heartbeat CPU 0 instructions: 149000003 cycles: 433128939 heartbeat IPC: 0.204309 cumulative IPC: 0.245422 (Simulation time: 1 hr 33 min 48 sec) 
Heartbeat CPU 0 instructions: 150000001 cycles: 437466384 heartbeat IPC: 0.23055 cumulative IPC: 0.245264 (Simulation time: 1 hr 33 min 58 sec) 
Finished CPU 0 instructions: 100000002 cycles: 407724474 cummulative IPC: 0.245264 (Simulation time: 1 hr 33 min 58 sec) 

ChampSim completed all CPUs

Region of Interest Statistics

CPU 0 cummulative IPC: 0.245264 instructions: 100000002 cycles: 407724474
LLC TOTAL     ACCESS:    1690044  HIT:     134780  MISS:    1555264
LLC LOAD      ACCESS:     565225  HIT:      30989  MISS:     534236
LLC RFO       ACCESS:      88718  HIT:        637  MISS:      88081
LLC PREFETCH  ACCESS:     720299  HIT:      39876  MISS:     680423
LLC WRITEBACK ACCESS:     315802  HIT:      63278  MISS:     252524
OPTgen accesses: 23973
OPTgen hits: 4760
OPTgen hit rate: 19.8557


