
*** ChampSim Multicore Out-of-Order Simulator ***

Warmup Instructions: 50000000
Simulation Instructions: 100000000
Configuration: 2
Number of CPUs: 1
LLC sets: 2048
LLC ways: 16
Off-chip DRAM Channels: 1 Width: 64-bit Data Rate: 1600 MT/s

CPU 0 runs /datasets/cs240c-wi22-a00-public/data/Assignment2-gz/cactusADM_1039B.trace.gz
CPU 0 L1D next line prefetcher
CPU 0 L2C IP-based stride prefetcher
Initialize Hawkeye state
Heartbeat CPU 0 instructions: 1000000 cycles: 595518 heartbeat IPC: 1.67921 cumulative IPC: 1.67921 (Simulation time: 0 hr 0 min 47 sec) 
Heartbeat CPU 0 instructions: 2000002 cycles: 1190937 heartbeat IPC: 1.67949 cumulative IPC: 1.67935 (Simulation time: 0 hr 1 min 31 sec) 
Heartbeat CPU 0 instructions: 3000003 cycles: 1786622 heartbeat IPC: 1.67874 cumulative IPC: 1.67915 (Simulation time: 0 hr 2 min 15 sec) 
Heartbeat CPU 0 instructions: 4000000 cycles: 2382046 heartbeat IPC: 1.67947 cumulative IPC: 1.67923 (Simulation time: 0 hr 3 min 1 sec) 
Heartbeat CPU 0 instructions: 5000001 cycles: 2977457 heartbeat IPC: 1.67951 cumulative IPC: 1.67929 (Simulation time: 0 hr 3 min 44 sec) 
Heartbeat CPU 0 instructions: 6000002 cycles: 3572930 heartbeat IPC: 1.67934 cumulative IPC: 1.67929 (Simulation time: 0 hr 4 min 29 sec) 
Heartbeat CPU 0 instructions: 7000000 cycles: 4168306 heartbeat IPC: 1.67961 cumulative IPC: 1.67934 (Simulation time: 0 hr 5 min 13 sec) 
Heartbeat CPU 0 instructions: 8000000 cycles: 4763681 heartbeat IPC: 1.67961 cumulative IPC: 1.67937 (Simulation time: 0 hr 5 min 55 sec) 
Heartbeat CPU 0 instructions: 9000002 cycles: 5359336 heartbeat IPC: 1.67883 cumulative IPC: 1.67931 (Simulation time: 0 hr 6 min 38 sec) 
Heartbeat CPU 0 instructions: 10000003 cycles: 5974113 heartbeat IPC: 1.62661 cumulative IPC: 1.67389 (Simulation time: 0 hr 7 min 23 sec) 
Heartbeat CPU 0 instructions: 11000002 cycles: 6713347 heartbeat IPC: 1.35275 cumulative IPC: 1.63853 (Simulation time: 0 hr 8 min 14 sec) 
Heartbeat CPU 0 instructions: 12000000 cycles: 7308791 heartbeat IPC: 1.67942 cumulative IPC: 1.64186 (Simulation time: 0 hr 8 min 59 sec) 
Heartbeat CPU 0 instructions: 13000002 cycles: 7904297 heartbeat IPC: 1.67925 cumulative IPC: 1.64468 (Simulation time: 0 hr 9 min 43 sec) 
Heartbeat CPU 0 instructions: 14000000 cycles: 8499943 heartbeat IPC: 1.67885 cumulative IPC: 1.64707 (Simulation time: 0 hr 10 min 29 sec) 
Heartbeat CPU 0 instructions: 15000000 cycles: 9094996 heartbeat IPC: 1.68052 cumulative IPC: 1.64926 (Simulation time: 0 hr 11 min 15 sec) 
Heartbeat CPU 0 instructions: 16000000 cycles: 9690594 heartbeat IPC: 1.67898 cumulative IPC: 1.65109 (Simulation time: 0 hr 11 min 59 sec) 
Heartbeat CPU 0 instructions: 17000003 cycles: 10286183 heartbeat IPC: 1.67902 cumulative IPC: 1.6527 (Simulation time: 0 hr 12 min 43 sec) 
Heartbeat CPU 0 instructions: 18000001 cycles: 10881717 heartbeat IPC: 1.67916 cumulative IPC: 1.65415 (Simulation time: 0 hr 13 min 27 sec) 
Heartbeat CPU 0 instructions: 19000002 cycles: 11477091 heartbeat IPC: 1.67962 cumulative IPC: 1.65547 (Simulation time: 0 hr 14 min 11 sec) 
Heartbeat CPU 0 instructions: 20000000 cycles: 12072526 heartbeat IPC: 1.67944 cumulative IPC: 1.65665 (Simulation time: 0 hr 14 min 54 sec) 
Heartbeat CPU 0 instructions: 21000002 cycles: 12668213 heartbeat IPC: 1.67874 cumulative IPC: 1.65769 (Simulation time: 0 hr 15 min 37 sec) 
Heartbeat CPU 0 instructions: 22000002 cycles: 13263640 heartbeat IPC: 1.67947 cumulative IPC: 1.65867 (Simulation time: 0 hr 16 min 21 sec) 
Heartbeat CPU 0 instructions: 23000002 cycles: 13859083 heartbeat IPC: 1.67942 cumulative IPC: 1.65956 (Simulation time: 0 hr 17 min 5 sec) 
Heartbeat CPU 0 instructions: 24000000 cycles: 14615160 heartbeat IPC: 1.32261 cumulative IPC: 1.64213 (Simulation time: 0 hr 17 min 57 sec) 
Heartbeat CPU 0 instructions: 25000002 cycles: 15210436 heartbeat IPC: 1.6799 cumulative IPC: 1.64361 (Simulation time: 0 hr 18 min 40 sec) 
Heartbeat CPU 0 instructions: 26000001 cycles: 15805546 heartbeat IPC: 1.68036 cumulative IPC: 1.64499 (Simulation time: 0 hr 19 min 23 sec) 
Heartbeat CPU 0 instructions: 27000000 cycles: 16400790 heartbeat IPC: 1.67998 cumulative IPC: 1.64626 (Simulation time: 0 hr 20 min 6 sec) 
Heartbeat CPU 0 instructions: 28000000 cycles: 16996027 heartbeat IPC: 1.68 cumulative IPC: 1.64744 (Simulation time: 0 hr 20 min 49 sec) 
Heartbeat CPU 0 instructions: 29000000 cycles: 17591488 heartbeat IPC: 1.67937 cumulative IPC: 1.64852 (Simulation time: 0 hr 21 min 32 sec) 
Heartbeat CPU 0 instructions: 30000002 cycles: 18186656 heartbeat IPC: 1.6802 cumulative IPC: 1.64956 (Simulation time: 0 hr 22 min 17 sec) 
Heartbeat CPU 0 instructions: 31000001 cycles: 18782164 heartbeat IPC: 1.67924 cumulative IPC: 1.6505 (Simulation time: 0 hr 23 min 2 sec) 
Heartbeat CPU 0 instructions: 32000000 cycles: 19377109 heartbeat IPC: 1.68083 cumulative IPC: 1.65143 (Simulation time: 0 hr 23 min 45 sec) 
Heartbeat CPU 0 instructions: 33000001 cycles: 19972527 heartbeat IPC: 1.67949 cumulative IPC: 1.65227 (Simulation time: 0 hr 24 min 30 sec) 
Heartbeat CPU 0 instructions: 34000003 cycles: 20567585 heartbeat IPC: 1.68051 cumulative IPC: 1.65309 (Simulation time: 0 hr 25 min 14 sec) 
Heartbeat CPU 0 instructions: 35000001 cycles: 21162980 heartbeat IPC: 1.67955 cumulative IPC: 1.65383 (Simulation time: 0 hr 25 min 58 sec) 
Heartbeat CPU 0 instructions: 36000000 cycles: 21758372 heartbeat IPC: 1.67956 cumulative IPC: 1.65454 (Simulation time: 0 hr 26 min 42 sec) 
Heartbeat CPU 0 instructions: 37000002 cycles: 22515400 heartbeat IPC: 1.32096 cumulative IPC: 1.64332 (Simulation time: 0 hr 27 min 36 sec) 
Heartbeat CPU 0 instructions: 38000000 cycles: 23110543 heartbeat IPC: 1.68027 cumulative IPC: 1.64427 (Simulation time: 0 hr 28 min 23 sec) 
Heartbeat CPU 0 instructions: 39000002 cycles: 23705756 heartbeat IPC: 1.68007 cumulative IPC: 1.64517 (Simulation time: 0 hr 29 min 11 sec) 
Heartbeat CPU 0 instructions: 40000000 cycles: 24300988 heartbeat IPC: 1.68001 cumulative IPC: 1.64602 (Simulation time: 0 hr 29 min 57 sec) 
Heartbeat CPU 0 instructions: 41000003 cycles: 24896424 heartbeat IPC: 1.67945 cumulative IPC: 1.64682 (Simulation time: 0 hr 30 min 42 sec) 
Heartbeat CPU 0 instructions: 42000001 cycles: 25491607 heartbeat IPC: 1.68015 cumulative IPC: 1.6476 (Simulation time: 0 hr 31 min 26 sec) 
Heartbeat CPU 0 instructions: 43000000 cycles: 26086979 heartbeat IPC: 1.67962 cumulative IPC: 1.64833 (Simulation time: 0 hr 32 min 10 sec) 
Heartbeat CPU 0 instructions: 44000000 cycles: 26682067 heartbeat IPC: 1.68042 cumulative IPC: 1.64905 (Simulation time: 0 hr 32 min 52 sec) 
Heartbeat CPU 0 instructions: 45000000 cycles: 27277540 heartbeat IPC: 1.67934 cumulative IPC: 1.64971 (Simulation time: 0 hr 33 min 37 sec) 
Heartbeat CPU 0 instructions: 46000003 cycles: 27872726 heartbeat IPC: 1.68015 cumulative IPC: 1.65036 (Simulation time: 0 hr 34 min 19 sec) 
Heartbeat CPU 0 instructions: 47000002 cycles: 28467858 heartbeat IPC: 1.6803 cumulative IPC: 1.65098 (Simulation time: 0 hr 35 min 1 sec) 
Heartbeat CPU 0 instructions: 48000000 cycles: 29062851 heartbeat IPC: 1.68069 cumulative IPC: 1.65159 (Simulation time: 0 hr 35 min 44 sec) 
Heartbeat CPU 0 instructions: 49000001 cycles: 29658257 heartbeat IPC: 1.67953 cumulative IPC: 1.65215 (Simulation time: 0 hr 36 min 28 sec) 
Heartbeat CPU 0 instructions: 50000000 cycles: 30415284 heartbeat IPC: 1.32096 cumulative IPC: 1.64391 (Simulation time: 0 hr 37 min 17 sec) 

Warmup complete CPU 0 instructions: 50000004 cycles: 30415285 (Simulation time: 0 hr 37 min 17 sec) 

Heartbeat CPU 0 instructions: 51000003 cycles: 32178959 heartbeat IPC: 0.567 cumulative IPC: 0.566998 (Simulation time: 0 hr 38 min 6 sec) 
Heartbeat CPU 0 instructions: 52000000 cycles: 33950668 heartbeat IPC: 0.564425 cumulative IPC: 0.565708 (Simulation time: 0 hr 38 min 54 sec) 
Heartbeat CPU 0 instructions: 53000003 cycles: 35721198 heartbeat IPC: 0.564804 cumulative IPC: 0.565407 (Simulation time: 0 hr 39 min 43 sec) 
Heartbeat CPU 0 instructions: 54000002 cycles: 37437379 heartbeat IPC: 0.582689 cumulative IPC: 0.56963 (Simulation time: 0 hr 40 min 31 sec) 
Heartbeat CPU 0 instructions: 55000001 cycles: 39163157 heartbeat IPC: 0.579448 cumulative IPC: 0.571567 (Simulation time: 0 hr 41 min 18 sec) 
Heartbeat CPU 0 instructions: 56000000 cycles: 40932836 heartbeat IPC: 0.565074 cumulative IPC: 0.570475 (Simulation time: 0 hr 42 min 1 sec) 
Heartbeat CPU 0 instructions: 57000000 cycles: 42706998 heartbeat IPC: 0.563646 cumulative IPC: 0.569489 (Simulation time: 0 hr 42 min 47 sec) 
Heartbeat CPU 0 instructions: 58000000 cycles: 44471870 heartbeat IPC: 0.566613 cumulative IPC: 0.569128 (Simulation time: 0 hr 43 min 28 sec) 
Heartbeat CPU 0 instructions: 59000002 cycles: 46159935 heartbeat IPC: 0.592395 cumulative IPC: 0.571623 (Simulation time: 0 hr 44 min 12 sec) 
Heartbeat CPU 0 instructions: 60000000 cycles: 47919773 heartbeat IPC: 0.568233 cumulative IPC: 0.571282 (Simulation time: 0 hr 44 min 57 sec) 
Heartbeat CPU 0 instructions: 61000001 cycles: 49694078 heartbeat IPC: 0.563601 cumulative IPC: 0.570575 (Simulation time: 0 hr 45 min 37 sec) 
Heartbeat CPU 0 instructions: 62000000 cycles: 51468122 heartbeat IPC: 0.563683 cumulative IPC: 0.569994 (Simulation time: 0 hr 46 min 15 sec) 
Heartbeat CPU 0 instructions: 63000001 cycles: 57673335 heartbeat IPC: 0.161155 cumulative IPC: 0.476923 (Simulation time: 0 hr 47 min 1 sec) 
Heartbeat CPU 0 instructions: 64000000 cycles: 59941089 heartbeat IPC: 0.440964 cumulative IPC: 0.474161 (Simulation time: 0 hr 47 min 40 sec) 
Heartbeat CPU 0 instructions: 65000002 cycles: 61711597 heartbeat IPC: 0.564811 cumulative IPC: 0.47929 (Simulation time: 0 hr 48 min 19 sec) 
Heartbeat CPU 0 instructions: 66000001 cycles: 63482487 heartbeat IPC: 0.564687 cumulative IPC: 0.483863 (Simulation time: 0 hr 49 min 4 sec) 
Heartbeat CPU 0 instructions: 67000003 cycles: 65248142 heartbeat IPC: 0.566363 cumulative IPC: 0.488045 (Simulation time: 0 hr 49 min 44 sec) 
Heartbeat CPU 0 instructions: 68000000 cycles: 66974464 heartbeat IPC: 0.579264 cumulative IPC: 0.492352 (Simulation time: 0 hr 50 min 24 sec) 
Heartbeat CPU 0 instructions: 69000003 cycles: 68750543 heartbeat IPC: 0.56304 cumulative IPC: 0.495627 (Simulation time: 0 hr 51 min 4 sec) 
Heartbeat CPU 0 instructions: 70000002 cycles: 70521260 heartbeat IPC: 0.564742 cumulative IPC: 0.498679 (Simulation time: 0 hr 51 min 42 sec) 
Heartbeat CPU 0 instructions: 71000000 cycles: 72293234 heartbeat IPC: 0.564341 cumulative IPC: 0.501457 (Simulation time: 0 hr 52 min 21 sec) 
Heartbeat CPU 0 instructions: 72000000 cycles: 74039598 heartbeat IPC: 0.572618 cumulative IPC: 0.504306 (Simulation time: 0 hr 53 min 1 sec) 
Heartbeat CPU 0 instructions: 73000001 cycles: 75740644 heartbeat IPC: 0.587874 cumulative IPC: 0.507442 (Simulation time: 0 hr 53 min 41 sec) 
Heartbeat CPU 0 instructions: 74000003 cycles: 77508818 heartbeat IPC: 0.565556 cumulative IPC: 0.509624 (Simulation time: 0 hr 54 min 21 sec) 
Heartbeat CPU 0 instructions: 75000002 cycles: 79281568 heartbeat IPC: 0.564095 cumulative IPC: 0.5116 (Simulation time: 0 hr 55 min 0 sec) 
Heartbeat CPU 0 instructions: 76000000 cycles: 84539197 heartbeat IPC: 0.190199 cumulative IPC: 0.480379 (Simulation time: 0 hr 55 min 44 sec) 
Heartbeat CPU 0 instructions: 77000001 cycles: 87702122 heartbeat IPC: 0.316163 cumulative IPC: 0.471312 (Simulation time: 0 hr 56 min 29 sec) 
Heartbeat CPU 0 instructions: 78000000 cycles: 89450600 heartbeat IPC: 0.571925 cumulative IPC: 0.474292 (Simulation time: 0 hr 57 min 8 sec) 
Heartbeat CPU 0 instructions: 79000002 cycles: 91219296 heartbeat IPC: 0.565389 cumulative IPC: 0.476942 (Simulation time: 0 hr 57 min 46 sec) 
Heartbeat CPU 0 instructions: 80000000 cycles: 92988709 heartbeat IPC: 0.565158 cumulative IPC: 0.479437 (Simulation time: 0 hr 58 min 27 sec) 
Heartbeat CPU 0 instructions: 81000002 cycles: 94735796 heartbeat IPC: 0.572383 cumulative IPC: 0.481961 (Simulation time: 0 hr 59 min 10 sec) 
Heartbeat CPU 0 instructions: 82000002 cycles: 96430279 heartbeat IPC: 0.590151 cumulative IPC: 0.484738 (Simulation time: 0 hr 59 min 51 sec) 
Heartbeat CPU 0 instructions: 83000003 cycles: 98195371 heartbeat IPC: 0.566543 cumulative IPC: 0.486869 (Simulation time: 1 hr 0 min 31 sec) 
Heartbeat CPU 0 instructions: 84000000 cycles: 99965561 heartbeat IPC: 0.564909 cumulative IPC: 0.488855 (Simulation time: 1 hr 1 min 10 sec) 
Heartbeat CPU 0 instructions: 85000002 cycles: 101735837 heartbeat IPC: 0.564885 cumulative IPC: 0.490742 (Simulation time: 1 hr 1 min 49 sec) 
Heartbeat CPU 0 instructions: 86000003 cycles: 103450908 heartbeat IPC: 0.583067 cumulative IPC: 0.49291 (Simulation time: 1 hr 2 min 33 sec) 
Heartbeat CPU 0 instructions: 87000000 cycles: 105192158 heartbeat IPC: 0.574298 cumulative IPC: 0.494805 (Simulation time: 1 hr 3 min 13 sec) 
Heartbeat CPU 0 instructions: 88000000 cycles: 106961283 heartbeat IPC: 0.565251 cumulative IPC: 0.496433 (Simulation time: 1 hr 3 min 54 sec) 
Heartbeat CPU 0 instructions: 89000001 cycles: 111293113 heartbeat IPC: 0.23085 cumulative IPC: 0.482209 (Simulation time: 1 hr 4 min 38 sec) 
Heartbeat CPU 0 instructions: 90000002 cycles: 115412691 heartbeat IPC: 0.242744 cumulative IPC: 0.470603 (Simulation time: 1 hr 5 min 24 sec) 
Heartbeat CPU 0 instructions: 91000000 cycles: 117105953 heartbeat IPC: 0.590575 cumulative IPC: 0.472946 (Simulation time: 1 hr 6 min 4 sec) 
Heartbeat CPU 0 instructions: 92000000 cycles: 118869973 heartbeat IPC: 0.566887 cumulative IPC: 0.474819 (Simulation time: 1 hr 6 min 44 sec) 
Heartbeat CPU 0 instructions: 93000001 cycles: 120640963 heartbeat IPC: 0.564656 cumulative IPC: 0.476583 (Simulation time: 1 hr 7 min 23 sec) 
Heartbeat CPU 0 instructions: 94000003 cycles: 122414470 heartbeat IPC: 0.563856 cumulative IPC: 0.478265 (Simulation time: 1 hr 8 min 2 sec) 
Heartbeat CPU 0 instructions: 95000001 cycles: 124133597 heartbeat IPC: 0.581689 cumulative IPC: 0.480162 (Simulation time: 1 hr 8 min 45 sec) 
Heartbeat CPU 0 instructions: 96000000 cycles: 125853207 heartbeat IPC: 0.581527 cumulative IPC: 0.481989 (Simulation time: 1 hr 9 min 25 sec) 
Heartbeat CPU 0 instructions: 97000002 cycles: 127621606 heartbeat IPC: 0.565484 cumulative IPC: 0.483508 (Simulation time: 1 hr 10 min 5 sec) 
Heartbeat CPU 0 instructions: 98000000 cycles: 129394819 heartbeat IPC: 0.563947 cumulative IPC: 0.484949 (Simulation time: 1 hr 10 min 46 sec) 
Heartbeat CPU 0 instructions: 99000002 cycles: 131162325 heartbeat IPC: 0.56577 cumulative IPC: 0.486367 (Simulation time: 1 hr 11 min 25 sec) 
Heartbeat CPU 0 instructions: 100000000 cycles: 132851904 heartbeat IPC: 0.591862 cumulative IPC: 0.488107 (Simulation time: 1 hr 12 min 1 sec) 
Heartbeat CPU 0 instructions: 101000002 cycles: 134606208 heartbeat IPC: 0.570028 cumulative IPC: 0.489486 (Simulation time: 1 hr 12 min 35 sec) 
Heartbeat CPU 0 instructions: 102000000 cycles: 137952585 heartbeat IPC: 0.29883 cumulative IPC: 0.483553 (Simulation time: 1 hr 13 min 10 sec) 
Heartbeat CPU 0 instructions: 103000002 cycles: 143061865 heartbeat IPC: 0.195723 cumulative IPC: 0.470498 (Simulation time: 1 hr 13 min 49 sec) 
Heartbeat CPU 0 instructions: 104000000 cycles: 144787989 heartbeat IPC: 0.579332 cumulative IPC: 0.472141 (Simulation time: 1 hr 14 min 26 sec) 
Heartbeat CPU 0 instructions: 105000002 cycles: 146502561 heartbeat IPC: 0.583237 cumulative IPC: 0.473781 (Simulation time: 1 hr 15 min 1 sec) 
Heartbeat CPU 0 instructions: 106000001 cycles: 148274279 heartbeat IPC: 0.564423 cumulative IPC: 0.475144 (Simulation time: 1 hr 15 min 35 sec) 
Heartbeat CPU 0 instructions: 107000003 cycles: 150044484 heartbeat IPC: 0.564907 cumulative IPC: 0.476472 (Simulation time: 1 hr 16 min 7 sec) 
Heartbeat CPU 0 instructions: 108000000 cycles: 151812065 heartbeat IPC: 0.565743 cumulative IPC: 0.477772 (Simulation time: 1 hr 16 min 41 sec) 
Heartbeat CPU 0 instructions: 109000003 cycles: 153509302 heartbeat IPC: 0.589195 cumulative IPC: 0.479308 (Simulation time: 1 hr 17 min 14 sec) 
Heartbeat CPU 0 instructions: 110000002 cycles: 155258537 heartbeat IPC: 0.571678 cumulative IPC: 0.480603 (Simulation time: 1 hr 17 min 45 sec) 
Heartbeat CPU 0 instructions: 111000002 cycles: 157029597 heartbeat IPC: 0.564634 cumulative IPC: 0.481778 (Simulation time: 1 hr 18 min 16 sec) 
Heartbeat CPU 0 instructions: 112000000 cycles: 158801047 heartbeat IPC: 0.564508 cumulative IPC: 0.48292 (Simulation time: 1 hr 18 min 46 sec) 
Heartbeat CPU 0 instructions: 113000002 cycles: 160557864 heartbeat IPC: 0.569212 cumulative IPC: 0.484084 (Simulation time: 1 hr 19 min 15 sec) 
Heartbeat CPU 0 instructions: 114000002 cycles: 162250319 heartbeat IPC: 0.590858 cumulative IPC: 0.485455 (Simulation time: 1 hr 19 min 43 sec) 
Heartbeat CPU 0 instructions: 115000001 cycles: 164683666 heartbeat IPC: 0.410956 cumulative IPC: 0.484105 (Simulation time: 1 hr 20 min 11 sec) 
Heartbeat CPU 0 instructions: 116000000 cycles: 170692345 heartbeat IPC: 0.166426 cumulative IPC: 0.470497 (Simulation time: 1 hr 20 min 46 sec) 
Heartbeat CPU 0 instructions: 117000003 cycles: 172463360 heartbeat IPC: 0.56465 cumulative IPC: 0.471671 (Simulation time: 1 hr 21 min 12 sec) 
Heartbeat CPU 0 instructions: 118000001 cycles: 174164049 heartbeat IPC: 0.587996 cumulative IPC: 0.473048 (Simulation time: 1 hr 21 min 40 sec) 
Heartbeat CPU 0 instructions: 119000001 cycles: 175905690 heartbeat IPC: 0.574171 cumulative IPC: 0.474258 (Simulation time: 1 hr 22 min 8 sec) 
Heartbeat CPU 0 instructions: 120000000 cycles: 177677040 heartbeat IPC: 0.564541 cumulative IPC: 0.475344 (Simulation time: 1 hr 22 min 38 sec) 
Heartbeat CPU 0 instructions: 121000000 cycles: 179449458 heartbeat IPC: 0.564201 cumulative IPC: 0.476401 (Simulation time: 1 hr 23 min 8 sec) 
Heartbeat CPU 0 instructions: 122000003 cycles: 181208399 heartbeat IPC: 0.568526 cumulative IPC: 0.477475 (Simulation time: 1 hr 23 min 38 sec) 
Heartbeat CPU 0 instructions: 123000002 cycles: 182897007 heartbeat IPC: 0.592203 cumulative IPC: 0.478746 (Simulation time: 1 hr 24 min 8 sec) 
Heartbeat CPU 0 instructions: 124000000 cycles: 184665298 heartbeat IPC: 0.565517 cumulative IPC: 0.479741 (Simulation time: 1 hr 24 min 38 sec) 
Heartbeat CPU 0 instructions: 125000001 cycles: 186435512 heartbeat IPC: 0.564904 cumulative IPC: 0.480707 (Simulation time: 1 hr 25 min 7 sec) 
Heartbeat CPU 0 instructions: 126000000 cycles: 188205697 heartbeat IPC: 0.564912 cumulative IPC: 0.481652 (Simulation time: 1 hr 25 min 36 sec) 
Heartbeat CPU 0 instructions: 127000003 cycles: 189931856 heartbeat IPC: 0.579323 cumulative IPC: 0.482708 (Simulation time: 1 hr 26 min 5 sec) 
Heartbeat CPU 0 instructions: 128000000 cycles: 191706313 heartbeat IPC: 0.563551 cumulative IPC: 0.483598 (Simulation time: 1 hr 26 min 31 sec) 
Heartbeat CPU 0 instructions: 129000001 cycles: 198572659 heartbeat IPC: 0.145638 cumulative IPC: 0.469798 (Simulation time: 1 hr 27 min 2 sec) 
Heartbeat CPU 0 instructions: 130000002 cycles: 208108845 heartbeat IPC: 0.104864 cumulative IPC: 0.450213 (Simulation time: 1 hr 27 min 37 sec) 
Heartbeat CPU 0 instructions: 131000002 cycles: 212063299 heartbeat IPC: 0.252879 cumulative IPC: 0.445917 (Simulation time: 1 hr 28 min 3 sec) 
Heartbeat CPU 0 instructions: 132000000 cycles: 213843193 heartbeat IPC: 0.56183 cumulative IPC: 0.447042 (Simulation time: 1 hr 28 min 26 sec) 
Heartbeat CPU 0 instructions: 133000000 cycles: 215545075 heartbeat IPC: 0.587585 cumulative IPC: 0.448334 (Simulation time: 1 hr 28 min 50 sec) 
Heartbeat CPU 0 instructions: 134000003 cycles: 217316146 heartbeat IPC: 0.564632 cumulative IPC: 0.449436 (Simulation time: 1 hr 29 min 14 sec) 
Heartbeat CPU 0 instructions: 135000002 cycles: 219102553 heartbeat IPC: 0.559782 cumulative IPC: 0.450481 (Simulation time: 1 hr 29 min 35 sec) 
Heartbeat CPU 0 instructions: 136000000 cycles: 220893277 heartbeat IPC: 0.558432 cumulative IPC: 0.451496 (Simulation time: 1 hr 29 min 57 sec) 
Heartbeat CPU 0 instructions: 137000001 cycles: 222646388 heartbeat IPC: 0.570415 cumulative IPC: 0.45258 (Simulation time: 1 hr 30 min 17 sec) 
Heartbeat CPU 0 instructions: 138000001 cycles: 224359748 heartbeat IPC: 0.583649 cumulative IPC: 0.453738 (Simulation time: 1 hr 30 min 38 sec) 
Heartbeat CPU 0 instructions: 139000003 cycles: 226140897 heartbeat IPC: 0.561436 cumulative IPC: 0.454718 (Simulation time: 1 hr 30 min 58 sec) 
Heartbeat CPU 0 instructions: 140000000 cycles: 227932530 heartbeat IPC: 0.558148 cumulative IPC: 0.455656 (Simulation time: 1 hr 31 min 16 sec) 
Heartbeat CPU 0 instructions: 141000003 cycles: 229718510 heartbeat IPC: 0.559918 cumulative IPC: 0.456591 (Simulation time: 1 hr 31 min 33 sec) 
Heartbeat CPU 0 instructions: 142000003 cycles: 231440443 heartbeat IPC: 0.580743 cumulative IPC: 0.457654 (Simulation time: 1 hr 31 min 50 sec) 
Heartbeat CPU 0 instructions: 143000002 cycles: 235334378 heartbeat IPC: 0.256809 cumulative IPC: 0.453838 (Simulation time: 1 hr 32 min 7 sec) 
Heartbeat CPU 0 instructions: 144000000 cycles: 240289677 heartbeat IPC: 0.201804 cumulative IPC: 0.447887 (Simulation time: 1 hr 32 min 24 sec) 
Heartbeat CPU 0 instructions: 145000003 cycles: 242030413 heartbeat IPC: 0.574471 cumulative IPC: 0.448928 (Simulation time: 1 hr 32 min 39 sec) 
Heartbeat CPU 0 instructions: 146000001 cycles: 243735140 heartbeat IPC: 0.586603 cumulative IPC: 0.450028 (Simulation time: 1 hr 32 min 54 sec) 
Heartbeat CPU 0 instructions: 147000001 cycles: 245399604 heartbeat IPC: 0.600794 cumulative IPC: 0.451196 (Simulation time: 1 hr 33 min 7 sec) 
Heartbeat CPU 0 instructions: 148000000 cycles: 247136295 heartbeat IPC: 0.575807 cumulative IPC: 0.452194 (Simulation time: 1 hr 33 min 21 sec) 
Heartbeat CPU 0 instructions: 149000000 cycles: 248873826 heartbeat IPC: 0.575529 cumulative IPC: 0.453175 (Simulation time: 1 hr 33 min 33 sec) 
Heartbeat CPU 0 instructions: 150000002 cycles: 250610709 heartbeat IPC: 0.575745 cumulative IPC: 0.454142 (Simulation time: 1 hr 33 min 44 sec) 
Finished CPU 0 instructions: 100000002 cycles: 220195425 cummulative IPC: 0.454142 (Simulation time: 1 hr 33 min 44 sec) 

ChampSim completed all CPUs

Region of Interest Statistics

CPU 0 cummulative IPC: 0.454142 instructions: 100000002 cycles: 220195425
LLC TOTAL     ACCESS:    1242785  HIT:     336197  MISS:     906588
LLC LOAD      ACCESS:      28206  HIT:       3325  MISS:      24881
LLC RFO       ACCESS:     290712  HIT:      86112  MISS:     204600
LLC PREFETCH  ACCESS:     631479  HIT:     110705  MISS:     520774
LLC WRITEBACK ACCESS:     292388  HIT:     136055  MISS:     156333
OPTgen accesses: 7325
OPTgen hits: 2576
OPTgen hit rate: 35.1672


