
*** ChampSim Multicore Out-of-Order Simulator ***

Warmup Instructions: 50000000
Simulation Instructions: 100000000
Configuration: 2
Number of CPUs: 1
LLC sets: 2048
LLC ways: 16
Off-chip DRAM Channels: 1 Width: 64-bit Data Rate: 1600 MT/s

CPU 0 runs /datasets/cs240c-wi22-a00-public/data/Assignment2-gz/mcf_158B.trace.gz
CPU 0 L1D next line prefetcher
CPU 0 L2C IP-based stride prefetcher
Initialize Hawkeye state
Heartbeat CPU 0 instructions: 1000002 cycles: 512873 heartbeat IPC: 1.9498 cumulative IPC: 1.9498 (Simulation time: 0 hr 0 min 55 sec) 
Heartbeat CPU 0 instructions: 2000002 cycles: 1025284 heartbeat IPC: 1.95156 cumulative IPC: 1.95068 (Simulation time: 0 hr 1 min 48 sec) 
Heartbeat CPU 0 instructions: 3000000 cycles: 1539057 heartbeat IPC: 1.94638 cumulative IPC: 1.94925 (Simulation time: 0 hr 2 min 42 sec) 
Heartbeat CPU 0 instructions: 4000000 cycles: 2051194 heartbeat IPC: 1.9526 cumulative IPC: 1.95008 (Simulation time: 0 hr 3 min 35 sec) 
Heartbeat CPU 0 instructions: 5000002 cycles: 2560366 heartbeat IPC: 1.96398 cumulative IPC: 1.95285 (Simulation time: 0 hr 4 min 25 sec) 
Heartbeat CPU 0 instructions: 6000001 cycles: 3074419 heartbeat IPC: 1.94532 cumulative IPC: 1.95159 (Simulation time: 0 hr 5 min 15 sec) 
Heartbeat CPU 0 instructions: 7000001 cycles: 3584591 heartbeat IPC: 1.96012 cumulative IPC: 1.9528 (Simulation time: 0 hr 6 min 7 sec) 
Heartbeat CPU 0 instructions: 8000000 cycles: 4096925 heartbeat IPC: 1.95185 cumulative IPC: 1.95268 (Simulation time: 0 hr 6 min 59 sec) 
Heartbeat CPU 0 instructions: 9000000 cycles: 4616516 heartbeat IPC: 1.92459 cumulative IPC: 1.94952 (Simulation time: 0 hr 7 min 50 sec) 
Heartbeat CPU 0 instructions: 10000001 cycles: 5148943 heartbeat IPC: 1.87819 cumulative IPC: 1.94215 (Simulation time: 0 hr 8 min 39 sec) 
Heartbeat CPU 0 instructions: 11000001 cycles: 5658158 heartbeat IPC: 1.96381 cumulative IPC: 1.9441 (Simulation time: 0 hr 9 min 27 sec) 
Heartbeat CPU 0 instructions: 12000000 cycles: 6168026 heartbeat IPC: 1.96129 cumulative IPC: 1.94552 (Simulation time: 0 hr 10 min 16 sec) 
Heartbeat CPU 0 instructions: 13000003 cycles: 6677423 heartbeat IPC: 1.96311 cumulative IPC: 1.94686 (Simulation time: 0 hr 11 min 8 sec) 
Heartbeat CPU 0 instructions: 14000001 cycles: 7183618 heartbeat IPC: 1.97552 cumulative IPC: 1.94888 (Simulation time: 0 hr 12 min 0 sec) 
Heartbeat CPU 0 instructions: 15000000 cycles: 7688849 heartbeat IPC: 1.97929 cumulative IPC: 1.95088 (Simulation time: 0 hr 12 min 51 sec) 
Heartbeat CPU 0 instructions: 16000000 cycles: 8232540 heartbeat IPC: 1.83928 cumulative IPC: 1.94351 (Simulation time: 0 hr 13 min 39 sec) 
Heartbeat CPU 0 instructions: 17000001 cycles: 8743876 heartbeat IPC: 1.95566 cumulative IPC: 1.94422 (Simulation time: 0 hr 14 min 29 sec) 
Heartbeat CPU 0 instructions: 18000001 cycles: 9250718 heartbeat IPC: 1.973 cumulative IPC: 1.9458 (Simulation time: 0 hr 15 min 21 sec) 
Heartbeat CPU 0 instructions: 19000001 cycles: 9762861 heartbeat IPC: 1.95258 cumulative IPC: 1.94615 (Simulation time: 0 hr 16 min 12 sec) 
Heartbeat CPU 0 instructions: 20000000 cycles: 10274108 heartbeat IPC: 1.956 cumulative IPC: 1.94664 (Simulation time: 0 hr 17 min 5 sec) 
Heartbeat CPU 0 instructions: 21000000 cycles: 10784741 heartbeat IPC: 1.95835 cumulative IPC: 1.9472 (Simulation time: 0 hr 17 min 56 sec) 
Heartbeat CPU 0 instructions: 22000002 cycles: 11294464 heartbeat IPC: 1.96185 cumulative IPC: 1.94786 (Simulation time: 0 hr 18 min 49 sec) 
Heartbeat CPU 0 instructions: 23000003 cycles: 11812700 heartbeat IPC: 1.92962 cumulative IPC: 1.94706 (Simulation time: 0 hr 19 min 39 sec) 
Heartbeat CPU 0 instructions: 24000000 cycles: 12350931 heartbeat IPC: 1.85793 cumulative IPC: 1.94317 (Simulation time: 0 hr 20 min 31 sec) 
Heartbeat CPU 0 instructions: 25000001 cycles: 12856861 heartbeat IPC: 1.97656 cumulative IPC: 1.94449 (Simulation time: 0 hr 21 min 22 sec) 
Heartbeat CPU 0 instructions: 26000001 cycles: 13358843 heartbeat IPC: 1.9921 cumulative IPC: 1.94628 (Simulation time: 0 hr 22 min 12 sec) 
Heartbeat CPU 0 instructions: 27000002 cycles: 13864386 heartbeat IPC: 1.97807 cumulative IPC: 1.94744 (Simulation time: 0 hr 23 min 1 sec) 
Heartbeat CPU 0 instructions: 28000000 cycles: 14407471 heartbeat IPC: 1.84133 cumulative IPC: 1.94344 (Simulation time: 0 hr 23 min 52 sec) 
Heartbeat CPU 0 instructions: 29000003 cycles: 14914913 heartbeat IPC: 1.97067 cumulative IPC: 1.94436 (Simulation time: 0 hr 24 min 39 sec) 
Heartbeat CPU 0 instructions: 30000000 cycles: 15416698 heartbeat IPC: 1.99288 cumulative IPC: 1.94594 (Simulation time: 0 hr 25 min 28 sec) 
Heartbeat CPU 0 instructions: 31000003 cycles: 15927680 heartbeat IPC: 1.95702 cumulative IPC: 1.9463 (Simulation time: 0 hr 26 min 18 sec) 
Heartbeat CPU 0 instructions: 32000000 cycles: 16466024 heartbeat IPC: 1.85754 cumulative IPC: 1.9434 (Simulation time: 0 hr 27 min 8 sec) 
Heartbeat CPU 0 instructions: 33000000 cycles: 16971695 heartbeat IPC: 1.97757 cumulative IPC: 1.94441 (Simulation time: 0 hr 27 min 58 sec) 
Heartbeat CPU 0 instructions: 34000000 cycles: 17480107 heartbeat IPC: 1.96691 cumulative IPC: 1.94507 (Simulation time: 0 hr 28 min 50 sec) 
Heartbeat CPU 0 instructions: 35000001 cycles: 17988193 heartbeat IPC: 1.96817 cumulative IPC: 1.94572 (Simulation time: 0 hr 29 min 40 sec) 
Heartbeat CPU 0 instructions: 36000000 cycles: 18532270 heartbeat IPC: 1.83797 cumulative IPC: 1.94256 (Simulation time: 0 hr 30 min 29 sec) 
Heartbeat CPU 0 instructions: 37000001 cycles: 19036917 heartbeat IPC: 1.98159 cumulative IPC: 1.94359 (Simulation time: 0 hr 31 min 19 sec) 
Heartbeat CPU 0 instructions: 38000002 cycles: 19541150 heartbeat IPC: 1.98321 cumulative IPC: 1.94461 (Simulation time: 0 hr 32 min 8 sec) 
Heartbeat CPU 0 instructions: 39000000 cycles: 20042065 heartbeat IPC: 1.99634 cumulative IPC: 1.94591 (Simulation time: 0 hr 32 min 57 sec) 
Heartbeat CPU 0 instructions: 40000000 cycles: 20580317 heartbeat IPC: 1.85787 cumulative IPC: 1.9436 (Simulation time: 0 hr 33 min 48 sec) 
Heartbeat CPU 0 instructions: 41000003 cycles: 21084230 heartbeat IPC: 1.98448 cumulative IPC: 1.94458 (Simulation time: 0 hr 34 min 38 sec) 
Heartbeat CPU 0 instructions: 42000000 cycles: 21584136 heartbeat IPC: 2.00037 cumulative IPC: 1.94587 (Simulation time: 0 hr 35 min 24 sec) 
Heartbeat CPU 0 instructions: 43000001 cycles: 22097304 heartbeat IPC: 1.94868 cumulative IPC: 1.94594 (Simulation time: 0 hr 36 min 11 sec) 
Heartbeat CPU 0 instructions: 44000000 cycles: 22614930 heartbeat IPC: 1.93189 cumulative IPC: 1.94562 (Simulation time: 0 hr 36 min 55 sec) 
Heartbeat CPU 0 instructions: 45000000 cycles: 23095495 heartbeat IPC: 2.08088 cumulative IPC: 1.94843 (Simulation time: 0 hr 37 min 43 sec) 
Heartbeat CPU 0 instructions: 46000002 cycles: 23604714 heartbeat IPC: 1.9638 cumulative IPC: 1.94876 (Simulation time: 0 hr 38 min 30 sec) 
Heartbeat CPU 0 instructions: 47000002 cycles: 24123623 heartbeat IPC: 1.92712 cumulative IPC: 1.9483 (Simulation time: 0 hr 39 min 13 sec) 
Heartbeat CPU 0 instructions: 48000000 cycles: 24605601 heartbeat IPC: 2.07478 cumulative IPC: 1.95078 (Simulation time: 0 hr 39 min 54 sec) 
Heartbeat CPU 0 instructions: 49000003 cycles: 25113002 heartbeat IPC: 1.97083 cumulative IPC: 1.95118 (Simulation time: 0 hr 40 min 37 sec) 
Heartbeat CPU 0 instructions: 50000000 cycles: 25637582 heartbeat IPC: 1.90628 cumulative IPC: 1.95026 (Simulation time: 0 hr 41 min 23 sec) 

Warmup complete CPU 0 instructions: 50000001 cycles: 25637583 (Simulation time: 0 hr 41 min 23 sec) 

Heartbeat CPU 0 instructions: 51000000 cycles: 31631264 heartbeat IPC: 0.166842 cumulative IPC: 0.166842 (Simulation time: 0 hr 42 min 20 sec) 
Heartbeat CPU 0 instructions: 52000000 cycles: 40762514 heartbeat IPC: 0.109514 cumulative IPC: 0.132232 (Simulation time: 0 hr 43 min 30 sec) 
Heartbeat CPU 0 instructions: 53000000 cycles: 53853896 heartbeat IPC: 0.0763861 cumulative IPC: 0.106321 (Simulation time: 0 hr 44 min 36 sec) 
Heartbeat CPU 0 instructions: 54000000 cycles: 60169445 heartbeat IPC: 0.158339 cumulative IPC: 0.115835 (Simulation time: 0 hr 45 min 23 sec) 
Heartbeat CPU 0 instructions: 55000000 cycles: 68057955 heartbeat IPC: 0.126767 cumulative IPC: 0.117868 (Simulation time: 0 hr 46 min 18 sec) 
Heartbeat CPU 0 instructions: 56000000 cycles: 82857874 heartbeat IPC: 0.0675679 cumulative IPC: 0.104858 (Simulation time: 0 hr 47 min 32 sec) 
Heartbeat CPU 0 instructions: 57000001 cycles: 88938384 heartbeat IPC: 0.16446 cumulative IPC: 0.110583 (Simulation time: 0 hr 48 min 20 sec) 
Heartbeat CPU 0 instructions: 58000001 cycles: 94959084 heartbeat IPC: 0.166094 cumulative IPC: 0.115404 (Simulation time: 0 hr 49 min 8 sec) 
Heartbeat CPU 0 instructions: 59000000 cycles: 110463514 heartbeat IPC: 0.0644976 cumulative IPC: 0.1061 (Simulation time: 0 hr 50 min 24 sec) 
Heartbeat CPU 0 instructions: 60000000 cycles: 117155436 heartbeat IPC: 0.149434 cumulative IPC: 0.109268 (Simulation time: 0 hr 51 min 14 sec) 
Heartbeat CPU 0 instructions: 61000000 cycles: 123951204 heartbeat IPC: 0.14715 cumulative IPC: 0.111887 (Simulation time: 0 hr 52 min 3 sec) 
Heartbeat CPU 0 instructions: 62000001 cycles: 136306427 heartbeat IPC: 0.0809375 cumulative IPC: 0.108432 (Simulation time: 0 hr 53 min 8 sec) 
Heartbeat CPU 0 instructions: 63000001 cycles: 146192211 heartbeat IPC: 0.101155 cumulative IPC: 0.107835 (Simulation time: 0 hr 54 min 4 sec) 
Heartbeat CPU 0 instructions: 64000000 cycles: 152106969 heartbeat IPC: 0.169068 cumulative IPC: 0.110699 (Simulation time: 0 hr 54 min 52 sec) 
Heartbeat CPU 0 instructions: 65000000 cycles: 159230847 heartbeat IPC: 0.140373 cumulative IPC: 0.112281 (Simulation time: 0 hr 55 min 47 sec) 
Heartbeat CPU 0 instructions: 66000000 cycles: 173928982 heartbeat IPC: 0.0680358 cumulative IPC: 0.107896 (Simulation time: 0 hr 56 min 57 sec) 
Heartbeat CPU 0 instructions: 67000002 cycles: 179863462 heartbeat IPC: 0.168507 cumulative IPC: 0.110228 (Simulation time: 0 hr 57 min 45 sec) 
Heartbeat CPU 0 instructions: 68000000 cycles: 185710245 heartbeat IPC: 0.171034 cumulative IPC: 0.112449 (Simulation time: 0 hr 58 min 35 sec) 
Heartbeat CPU 0 instructions: 69000000 cycles: 198856782 heartbeat IPC: 0.0760657 cumulative IPC: 0.109688 (Simulation time: 0 hr 59 min 41 sec) 
Heartbeat CPU 0 instructions: 70000000 cycles: 207755805 heartbeat IPC: 0.112372 cumulative IPC: 0.109819 (Simulation time: 1 hr 0 min 39 sec) 
Heartbeat CPU 0 instructions: 71000002 cycles: 213514031 heartbeat IPC: 0.173665 cumulative IPC: 0.111776 (Simulation time: 1 hr 1 min 26 sec) 
Heartbeat CPU 0 instructions: 72000000 cycles: 221230402 heartbeat IPC: 0.129594 cumulative IPC: 0.112479 (Simulation time: 1 hr 2 min 18 sec) 
Heartbeat CPU 0 instructions: 73000000 cycles: 235528068 heartbeat IPC: 0.0699415 cumulative IPC: 0.109581 (Simulation time: 1 hr 3 min 28 sec) 
Heartbeat CPU 0 instructions: 74000000 cycles: 241617088 heartbeat IPC: 0.16423 cumulative IPC: 0.111122 (Simulation time: 1 hr 4 min 15 sec) 
Heartbeat CPU 0 instructions: 75000001 cycles: 247752266 heartbeat IPC: 0.162995 cumulative IPC: 0.112554 (Simulation time: 1 hr 5 min 7 sec) 
Heartbeat CPU 0 instructions: 76000000 cycles: 259938879 heartbeat IPC: 0.0820572 cumulative IPC: 0.110968 (Simulation time: 1 hr 6 min 12 sec) 
Heartbeat CPU 0 instructions: 77000000 cycles: 270451187 heartbeat IPC: 0.0951266 cumulative IPC: 0.110288 (Simulation time: 1 hr 7 min 13 sec) 
Heartbeat CPU 0 instructions: 78000000 cycles: 277194545 heartbeat IPC: 0.148294 cumulative IPC: 0.111307 (Simulation time: 1 hr 8 min 4 sec) 
Heartbeat CPU 0 instructions: 79000001 cycles: 284273620 heartbeat IPC: 0.141262 cumulative IPC: 0.112127 (Simulation time: 1 hr 8 min 56 sec) 
Heartbeat CPU 0 instructions: 80000000 cycles: 299370626 heartbeat IPC: 0.0662382 cumulative IPC: 0.109596 (Simulation time: 1 hr 10 min 11 sec) 
Heartbeat CPU 0 instructions: 81000001 cycles: 306497955 heartbeat IPC: 0.140305 cumulative IPC: 0.110375 (Simulation time: 1 hr 11 min 2 sec) 
Heartbeat CPU 0 instructions: 82000001 cycles: 313542780 heartbeat IPC: 0.141948 cumulative IPC: 0.111148 (Simulation time: 1 hr 11 min 50 sec) 
Heartbeat CPU 0 instructions: 83000001 cycles: 326181750 heartbeat IPC: 0.0791204 cumulative IPC: 0.109801 (Simulation time: 1 hr 12 min 54 sec) 
Heartbeat CPU 0 instructions: 84000000 cycles: 336959709 heartbeat IPC: 0.0927818 cumulative IPC: 0.109212 (Simulation time: 1 hr 13 min 49 sec) 
Heartbeat CPU 0 instructions: 85000000 cycles: 343284128 heartbeat IPC: 0.158117 cumulative IPC: 0.110185 (Simulation time: 1 hr 14 min 33 sec) 
Heartbeat CPU 0 instructions: 86000000 cycles: 350940967 heartbeat IPC: 0.130602 cumulative IPC: 0.110666 (Simulation time: 1 hr 15 min 19 sec) 
Heartbeat CPU 0 instructions: 87000000 cycles: 366011920 heartbeat IPC: 0.0663528 cumulative IPC: 0.108704 (Simulation time: 1 hr 16 min 22 sec) 
Heartbeat CPU 0 instructions: 88000000 cycles: 372789691 heartbeat IPC: 0.147541 cumulative IPC: 0.109462 (Simulation time: 1 hr 17 min 5 sec) 
Heartbeat CPU 0 instructions: 89000000 cycles: 379998916 heartbeat IPC: 0.138711 cumulative IPC: 0.110057 (Simulation time: 1 hr 17 min 45 sec) 
Heartbeat CPU 0 instructions: 90000002 cycles: 393486780 heartbeat IPC: 0.0741409 cumulative IPC: 0.10874 (Simulation time: 1 hr 18 min 39 sec) 
Heartbeat CPU 0 instructions: 91000000 cycles: 402563701 heartbeat IPC: 0.110169 cumulative IPC: 0.108775 (Simulation time: 1 hr 19 min 24 sec) 
Heartbeat CPU 0 instructions: 92000000 cycles: 409054776 heartbeat IPC: 0.154058 cumulative IPC: 0.109541 (Simulation time: 1 hr 19 min 59 sec) 
Heartbeat CPU 0 instructions: 93000003 cycles: 420218622 heartbeat IPC: 0.0895751 cumulative IPC: 0.108976 (Simulation time: 1 hr 20 min 44 sec) 
Heartbeat CPU 0 instructions: 94000000 cycles: 432241946 heartbeat IPC: 0.0831714 cumulative IPC: 0.108213 (Simulation time: 1 hr 21 min 28 sec) 
Heartbeat CPU 0 instructions: 95000000 cycles: 439007408 heartbeat IPC: 0.14781 cumulative IPC: 0.108861 (Simulation time: 1 hr 22 min 3 sec) 
Heartbeat CPU 0 instructions: 96000000 cycles: 446542051 heartbeat IPC: 0.13272 cumulative IPC: 0.109288 (Simulation time: 1 hr 22 min 43 sec) 
Heartbeat CPU 0 instructions: 97000003 cycles: 462047066 heartbeat IPC: 0.0644955 cumulative IPC: 0.107697 (Simulation time: 1 hr 23 min 42 sec) 
Heartbeat CPU 0 instructions: 98000002 cycles: 469242586 heartbeat IPC: 0.138975 cumulative IPC: 0.108204 (Simulation time: 1 hr 24 min 22 sec) 
Heartbeat CPU 0 instructions: 99000000 cycles: 476279156 heartbeat IPC: 0.142114 cumulative IPC: 0.108734 (Simulation time: 1 hr 25 min 0 sec) 
Heartbeat CPU 0 instructions: 100000000 cycles: 489943194 heartbeat IPC: 0.0731848 cumulative IPC: 0.107688 (Simulation time: 1 hr 25 min 50 sec) 
Heartbeat CPU 0 instructions: 101000000 cycles: 500001278 heartbeat IPC: 0.0994225 cumulative IPC: 0.107512 (Simulation time: 1 hr 26 min 32 sec) 
Heartbeat CPU 0 instructions: 102000000 cycles: 507567215 heartbeat IPC: 0.132171 cumulative IPC: 0.1079 (Simulation time: 1 hr 27 min 7 sec) 
Heartbeat CPU 0 instructions: 103000001 cycles: 514534810 heartbeat IPC: 0.143522 cumulative IPC: 0.108407 (Simulation time: 1 hr 27 min 41 sec) 
Heartbeat CPU 0 instructions: 104000000 cycles: 530297632 heartbeat IPC: 0.0634404 cumulative IPC: 0.107003 (Simulation time: 1 hr 28 min 29 sec) 
Heartbeat CPU 0 instructions: 105000000 cycles: 538430100 heartbeat IPC: 0.122964 cumulative IPC: 0.107256 (Simulation time: 1 hr 29 min 1 sec) 
Heartbeat CPU 0 instructions: 106000000 cycles: 545995570 heartbeat IPC: 0.132179 cumulative IPC: 0.107618 (Simulation time: 1 hr 29 min 30 sec) 
Heartbeat CPU 0 instructions: 107000000 cycles: 556256400 heartbeat IPC: 0.097458 cumulative IPC: 0.107422 (Simulation time: 1 hr 30 min 2 sec) 
Heartbeat CPU 0 instructions: 108000000 cycles: 569991889 heartbeat IPC: 0.0728041 cumulative IPC: 0.106548 (Simulation time: 1 hr 30 min 39 sec) 
Heartbeat CPU 0 instructions: 109000000 cycles: 577306629 heartbeat IPC: 0.13671 cumulative IPC: 0.106948 (Simulation time: 1 hr 31 min 4 sec) 
Heartbeat CPU 0 instructions: 110000000 cycles: 585213118 heartbeat IPC: 0.126478 cumulative IPC: 0.107224 (Simulation time: 1 hr 31 min 28 sec) 
Heartbeat CPU 0 instructions: 111000001 cycles: 598244485 heartbeat IPC: 0.076738 cumulative IPC: 0.10653 (Simulation time: 1 hr 31 min 56 sec) 
Heartbeat CPU 0 instructions: 112000000 cycles: 609217692 heartbeat IPC: 0.091131 cumulative IPC: 0.106241 (Simulation time: 1 hr 32 min 21 sec) 
Heartbeat CPU 0 instructions: 113000000 cycles: 616734831 heartbeat IPC: 0.133029 cumulative IPC: 0.106581 (Simulation time: 1 hr 32 min 41 sec) 
Heartbeat CPU 0 instructions: 114000002 cycles: 624691665 heartbeat IPC: 0.125678 cumulative IPC: 0.106835 (Simulation time: 1 hr 33 min 0 sec) 
Heartbeat CPU 0 instructions: 115000000 cycles: 638287900 heartbeat IPC: 0.0735496 cumulative IPC: 0.106096 (Simulation time: 1 hr 33 min 23 sec) 
Heartbeat CPU 0 instructions: 116000000 cycles: 649677386 heartbeat IPC: 0.0878003 cumulative IPC: 0.105762 (Simulation time: 1 hr 33 min 43 sec) 
Heartbeat CPU 0 instructions: 117000003 cycles: 658117229 heartbeat IPC: 0.118486 cumulative IPC: 0.105932 (Simulation time: 1 hr 33 min 56 sec) 
Heartbeat CPU 0 instructions: 118000000 cycles: 666385427 heartbeat IPC: 0.120945 cumulative IPC: 0.106126 (Simulation time: 1 hr 34 min 6 sec) 
Heartbeat CPU 0 instructions: 119000001 cycles: 675662901 heartbeat IPC: 0.107788 cumulative IPC: 0.10615 (Simulation time: 1 hr 34 min 16 sec) 
Heartbeat CPU 0 instructions: 120000000 cycles: 689564952 heartbeat IPC: 0.0719318 cumulative IPC: 0.105433 (Simulation time: 1 hr 34 min 28 sec) 
Heartbeat CPU 0 instructions: 121000000 cycles: 697546050 heartbeat IPC: 0.125296 cumulative IPC: 0.105669 (Simulation time: 1 hr 34 min 37 sec) 
Heartbeat CPU 0 instructions: 122000001 cycles: 705930985 heartbeat IPC: 0.119262 cumulative IPC: 0.105837 (Simulation time: 1 hr 34 min 46 sec) 
Heartbeat CPU 0 instructions: 123000002 cycles: 714737044 heartbeat IPC: 0.113558 cumulative IPC: 0.105935 (Simulation time: 1 hr 34 min 55 sec) 
Heartbeat CPU 0 instructions: 124000000 cycles: 730502249 heartbeat IPC: 0.0634307 cumulative IPC: 0.104985 (Simulation time: 1 hr 35 min 6 sec) 
Heartbeat CPU 0 instructions: 125000001 cycles: 739534066 heartbeat IPC: 0.11072 cumulative IPC: 0.105057 (Simulation time: 1 hr 35 min 15 sec) 
Heartbeat CPU 0 instructions: 126000000 cycles: 748124395 heartbeat IPC: 0.11641 cumulative IPC: 0.105192 (Simulation time: 1 hr 35 min 23 sec) 
Heartbeat CPU 0 instructions: 127000002 cycles: 756232528 heartbeat IPC: 0.123333 cumulative IPC: 0.105394 (Simulation time: 1 hr 35 min 31 sec) 
Heartbeat CPU 0 instructions: 128000000 cycles: 768196211 heartbeat IPC: 0.0835861 cumulative IPC: 0.105042 (Simulation time: 1 hr 35 min 40 sec) 
Heartbeat CPU 0 instructions: 129000001 cycles: 781321113 heartbeat IPC: 0.0761911 cumulative IPC: 0.104541 (Simulation time: 1 hr 35 min 49 sec) 
Heartbeat CPU 0 instructions: 130000003 cycles: 789629547 heartbeat IPC: 0.12036 cumulative IPC: 0.104713 (Simulation time: 1 hr 35 min 56 sec) 
Heartbeat CPU 0 instructions: 131000000 cycles: 796719392 heartbeat IPC: 0.141046 cumulative IPC: 0.105047 (Simulation time: 1 hr 36 min 2 sec) 
Heartbeat CPU 0 instructions: 132000000 cycles: 808461346 heartbeat IPC: 0.0851647 cumulative IPC: 0.104749 (Simulation time: 1 hr 36 min 11 sec) 
Heartbeat CPU 0 instructions: 133000002 cycles: 820023160 heartbeat IPC: 0.0864918 cumulative IPC: 0.104483 (Simulation time: 1 hr 36 min 20 sec) 
Heartbeat CPU 0 instructions: 134000003 cycles: 827128336 heartbeat IPC: 0.140743 cumulative IPC: 0.104805 (Simulation time: 1 hr 36 min 27 sec) 
Heartbeat CPU 0 instructions: 135000000 cycles: 833695326 heartbeat IPC: 0.152276 cumulative IPC: 0.105191 (Simulation time: 1 hr 36 min 34 sec) 
Heartbeat CPU 0 instructions: 136000000 cycles: 846344191 heartbeat IPC: 0.0790585 cumulative IPC: 0.104788 (Simulation time: 1 hr 36 min 44 sec) 
Heartbeat CPU 0 instructions: 137000000 cycles: 857789759 heartbeat IPC: 0.0873701 cumulative IPC: 0.104548 (Simulation time: 1 hr 36 min 53 sec) 
Heartbeat CPU 0 instructions: 138000000 cycles: 866269037 heartbeat IPC: 0.117935 cumulative IPC: 0.104683 (Simulation time: 1 hr 37 min 1 sec) 
Heartbeat CPU 0 instructions: 139000001 cycles: 874710298 heartbeat IPC: 0.118466 cumulative IPC: 0.10482 (Simulation time: 1 hr 37 min 8 sec) 
Heartbeat CPU 0 instructions: 140000000 cycles: 883519606 heartbeat IPC: 0.113516 cumulative IPC: 0.10491 (Simulation time: 1 hr 37 min 16 sec) 
Heartbeat CPU 0 instructions: 141000000 cycles: 899319034 heartbeat IPC: 0.0632934 cumulative IPC: 0.104157 (Simulation time: 1 hr 37 min 28 sec) 
Heartbeat CPU 0 instructions: 142000000 cycles: 907209735 heartbeat IPC: 0.126731 cumulative IPC: 0.104359 (Simulation time: 1 hr 37 min 35 sec) 
Heartbeat CPU 0 instructions: 143000000 cycles: 915183492 heartbeat IPC: 0.125411 cumulative IPC: 0.104548 (Simulation time: 1 hr 37 min 43 sec) 
Heartbeat CPU 0 instructions: 144000000 cycles: 923224190 heartbeat IPC: 0.124367 cumulative IPC: 0.104725 (Simulation time: 1 hr 37 min 50 sec) 
Heartbeat CPU 0 instructions: 145000003 cycles: 938444235 heartbeat IPC: 0.065703 cumulative IPC: 0.104075 (Simulation time: 1 hr 38 min 1 sec) 
Heartbeat CPU 0 instructions: 146000000 cycles: 947066261 heartbeat IPC: 0.115982 cumulative IPC: 0.104186 (Simulation time: 1 hr 38 min 9 sec) 
Heartbeat CPU 0 instructions: 147000000 cycles: 955273615 heartbeat IPC: 0.121842 cumulative IPC: 0.104342 (Simulation time: 1 hr 38 min 16 sec) 
Heartbeat CPU 0 instructions: 148000000 cycles: 963776726 heartbeat IPC: 0.117604 cumulative IPC: 0.104462 (Simulation time: 1 hr 38 min 24 sec) 
Heartbeat CPU 0 instructions: 149000001 cycles: 977140521 heartbeat IPC: 0.0748291 cumulative IPC: 0.104046 (Simulation time: 1 hr 38 min 34 sec) 
Heartbeat CPU 0 instructions: 150000000 cycles: 988819342 heartbeat IPC: 0.085625 cumulative IPC: 0.103823 (Simulation time: 1 hr 38 min 43 sec) 
Finished CPU 0 instructions: 100000000 cycles: 963181761 cummulative IPC: 0.103823 (Simulation time: 1 hr 38 min 43 sec) 

ChampSim completed all CPUs

Region of Interest Statistics

CPU 0 cummulative IPC: 0.103823 instructions: 100000000 cycles: 963181761
LLC TOTAL     ACCESS:   21110982  HIT:   10019877  MISS:   11091105
LLC LOAD      ACCESS:    9532699  HIT:    5467701  MISS:    4064998
LLC RFO       ACCESS:     168937  HIT:      59217  MISS:     109720
LLC PREFETCH  ACCESS:    9550924  HIT:    3394641  MISS:    6156283
LLC WRITEBACK ACCESS:    1858422  HIT:    1098318  MISS:     760104
OPTgen accesses: 241897
OPTgen hits: 205845
OPTgen hit rate: 85.0961


