
*** ChampSim Multicore Out-of-Order Simulator ***

Warmup Instructions: 50000000
Simulation Instructions: 100000000
Configuration: 2
Number of CPUs: 1
LLC sets: 2048
LLC ways: 16
Off-chip DRAM Channels: 1 Width: 64-bit Data Rate: 1600 MT/s

CPU 0 runs /datasets/cs240c-wi22-a00-public/data/Assignment2-gz/sphinx3_2520B.trace.gz
CPU 0 L1D next line prefetcher
CPU 0 L2C IP-based stride prefetcher
Initialize Hawkeye state
Heartbeat CPU 0 instructions: 1000003 cycles: 338965 heartbeat IPC: 2.95017 cumulative IPC: 2.95017 (Simulation time: 0 hr 0 min 32 sec) 
Heartbeat CPU 0 instructions: 2000000 cycles: 737242 heartbeat IPC: 2.51081 cumulative IPC: 2.71281 (Simulation time: 0 hr 1 min 9 sec) 
Heartbeat CPU 0 instructions: 3000003 cycles: 1185235 heartbeat IPC: 2.23218 cumulative IPC: 2.53115 (Simulation time: 0 hr 1 min 41 sec) 
Heartbeat CPU 0 instructions: 4000000 cycles: 1524261 heartbeat IPC: 2.94962 cumulative IPC: 2.62422 (Simulation time: 0 hr 2 min 13 sec) 
Heartbeat CPU 0 instructions: 5000001 cycles: 1902377 heartbeat IPC: 2.64469 cumulative IPC: 2.62829 (Simulation time: 0 hr 2 min 47 sec) 
Heartbeat CPU 0 instructions: 6000001 cycles: 2367797 heartbeat IPC: 2.1486 cumulative IPC: 2.534 (Simulation time: 0 hr 3 min 20 sec) 
Heartbeat CPU 0 instructions: 7000001 cycles: 2706738 heartbeat IPC: 2.95037 cumulative IPC: 2.58614 (Simulation time: 0 hr 3 min 51 sec) 
Heartbeat CPU 0 instructions: 8000000 cycles: 3055749 heartbeat IPC: 2.86524 cumulative IPC: 2.61802 (Simulation time: 0 hr 4 min 22 sec) 
Heartbeat CPU 0 instructions: 9000000 cycles: 3509124 heartbeat IPC: 2.20568 cumulative IPC: 2.56474 (Simulation time: 0 hr 4 min 52 sec) 
Heartbeat CPU 0 instructions: 10000000 cycles: 3859280 heartbeat IPC: 2.85587 cumulative IPC: 2.59116 (Simulation time: 0 hr 5 min 23 sec) 
Heartbeat CPU 0 instructions: 11000003 cycles: 4204050 heartbeat IPC: 2.90049 cumulative IPC: 2.61653 (Simulation time: 0 hr 5 min 54 sec) 
Heartbeat CPU 0 instructions: 12000000 cycles: 4648661 heartbeat IPC: 2.24915 cumulative IPC: 2.58139 (Simulation time: 0 hr 6 min 26 sec) 
Heartbeat CPU 0 instructions: 13000000 cycles: 5008256 heartbeat IPC: 2.78091 cumulative IPC: 2.59571 (Simulation time: 0 hr 6 min 57 sec) 
Heartbeat CPU 0 instructions: 14000002 cycles: 5350955 heartbeat IPC: 2.91802 cumulative IPC: 2.61636 (Simulation time: 0 hr 7 min 28 sec) 
Heartbeat CPU 0 instructions: 15000003 cycles: 5790225 heartbeat IPC: 2.27651 cumulative IPC: 2.59057 (Simulation time: 0 hr 8 min 0 sec) 
Heartbeat CPU 0 instructions: 16000000 cycles: 6157078 heartbeat IPC: 2.72588 cumulative IPC: 2.59864 (Simulation time: 0 hr 8 min 33 sec) 
Heartbeat CPU 0 instructions: 17000000 cycles: 6498484 heartbeat IPC: 2.92906 cumulative IPC: 2.61599 (Simulation time: 0 hr 9 min 6 sec) 
Heartbeat CPU 0 instructions: 18000002 cycles: 6932787 heartbeat IPC: 2.30254 cumulative IPC: 2.59636 (Simulation time: 0 hr 9 min 38 sec) 
Heartbeat CPU 0 instructions: 19000000 cycles: 7304114 heartbeat IPC: 2.69304 cumulative IPC: 2.60127 (Simulation time: 0 hr 10 min 11 sec) 
Heartbeat CPU 0 instructions: 20000000 cycles: 7645296 heartbeat IPC: 2.93099 cumulative IPC: 2.61599 (Simulation time: 0 hr 10 min 43 sec) 
Heartbeat CPU 0 instructions: 21000001 cycles: 8089592 heartbeat IPC: 2.25075 cumulative IPC: 2.59593 (Simulation time: 0 hr 11 min 19 sec) 
Heartbeat CPU 0 instructions: 22000002 cycles: 8503683 heartbeat IPC: 2.41493 cumulative IPC: 2.58711 (Simulation time: 0 hr 11 min 55 sec) 
Heartbeat CPU 0 instructions: 23000001 cycles: 8942682 heartbeat IPC: 2.27791 cumulative IPC: 2.57194 (Simulation time: 0 hr 12 min 28 sec) 
Heartbeat CPU 0 instructions: 24000000 cycles: 9281706 heartbeat IPC: 2.94964 cumulative IPC: 2.58573 (Simulation time: 0 hr 13 min 1 sec) 
Heartbeat CPU 0 instructions: 25000003 cycles: 9668420 heartbeat IPC: 2.5859 cumulative IPC: 2.58574 (Simulation time: 0 hr 13 min 35 sec) 
Heartbeat CPU 0 instructions: 26000001 cycles: 10085270 heartbeat IPC: 2.39894 cumulative IPC: 2.57802 (Simulation time: 0 hr 14 min 6 sec) 
Heartbeat CPU 0 instructions: 27000003 cycles: 10424242 heartbeat IPC: 2.9501 cumulative IPC: 2.59012 (Simulation time: 0 hr 14 min 37 sec) 
Heartbeat CPU 0 instructions: 28000000 cycles: 10827525 heartbeat IPC: 2.47964 cumulative IPC: 2.586 (Simulation time: 0 hr 15 min 10 sec) 
Heartbeat CPU 0 instructions: 29000002 cycles: 11228060 heartbeat IPC: 2.49667 cumulative IPC: 2.58281 (Simulation time: 0 hr 15 min 41 sec) 
Heartbeat CPU 0 instructions: 30000002 cycles: 11566996 heartbeat IPC: 2.95041 cumulative IPC: 2.59359 (Simulation time: 0 hr 16 min 13 sec) 
Heartbeat CPU 0 instructions: 31000000 cycles: 11988242 heartbeat IPC: 2.3739 cumulative IPC: 2.58587 (Simulation time: 0 hr 16 min 46 sec) 
Heartbeat CPU 0 instructions: 32000000 cycles: 12369591 heartbeat IPC: 2.62227 cumulative IPC: 2.58699 (Simulation time: 0 hr 17 min 18 sec) 
Heartbeat CPU 0 instructions: 33000002 cycles: 12710349 heartbeat IPC: 2.93464 cumulative IPC: 2.59631 (Simulation time: 0 hr 17 min 49 sec) 
Heartbeat CPU 0 instructions: 34000000 cycles: 13150111 heartbeat IPC: 2.27395 cumulative IPC: 2.58553 (Simulation time: 0 hr 18 min 21 sec) 
Heartbeat CPU 0 instructions: 35000001 cycles: 13511385 heartbeat IPC: 2.76798 cumulative IPC: 2.59041 (Simulation time: 0 hr 18 min 53 sec) 
Heartbeat CPU 0 instructions: 36000000 cycles: 13853733 heartbeat IPC: 2.921 cumulative IPC: 2.59858 (Simulation time: 0 hr 19 min 26 sec) 
Heartbeat CPU 0 instructions: 37000000 cycles: 14313215 heartbeat IPC: 2.17636 cumulative IPC: 2.58502 (Simulation time: 0 hr 19 min 57 sec) 
Heartbeat CPU 0 instructions: 38000000 cycles: 14653526 heartbeat IPC: 2.93849 cumulative IPC: 2.59323 (Simulation time: 0 hr 20 min 29 sec) 
Heartbeat CPU 0 instructions: 39000003 cycles: 14999865 heartbeat IPC: 2.88735 cumulative IPC: 2.60002 (Simulation time: 0 hr 21 min 3 sec) 
Heartbeat CPU 0 instructions: 40000000 cycles: 15458593 heartbeat IPC: 2.17993 cumulative IPC: 2.58756 (Simulation time: 0 hr 21 min 34 sec) 
Heartbeat CPU 0 instructions: 41000001 cycles: 15797624 heartbeat IPC: 2.94959 cumulative IPC: 2.59533 (Simulation time: 0 hr 22 min 6 sec) 
Heartbeat CPU 0 instructions: 42000003 cycles: 16145580 heartbeat IPC: 2.87393 cumulative IPC: 2.60133 (Simulation time: 0 hr 22 min 41 sec) 
Heartbeat CPU 0 instructions: 43000001 cycles: 16601824 heartbeat IPC: 2.19181 cumulative IPC: 2.59008 (Simulation time: 0 hr 23 min 15 sec) 
Heartbeat CPU 0 instructions: 44000000 cycles: 16940690 heartbeat IPC: 2.95102 cumulative IPC: 2.5973 (Simulation time: 0 hr 23 min 47 sec) 
Heartbeat CPU 0 instructions: 45000001 cycles: 17287786 heartbeat IPC: 2.88105 cumulative IPC: 2.60299 (Simulation time: 0 hr 24 min 20 sec) 
Heartbeat CPU 0 instructions: 46000000 cycles: 17745448 heartbeat IPC: 2.18502 cumulative IPC: 2.59221 (Simulation time: 0 hr 24 min 54 sec) 
Heartbeat CPU 0 instructions: 47000003 cycles: 18084432 heartbeat IPC: 2.95 cumulative IPC: 2.59892 (Simulation time: 0 hr 25 min 28 sec) 
Heartbeat CPU 0 instructions: 48000000 cycles: 18432963 heartbeat IPC: 2.86918 cumulative IPC: 2.60403 (Simulation time: 0 hr 26 min 2 sec) 
Heartbeat CPU 0 instructions: 49000002 cycles: 18887729 heartbeat IPC: 2.19894 cumulative IPC: 2.59428 (Simulation time: 0 hr 26 min 34 sec) 
Heartbeat CPU 0 instructions: 50000001 cycles: 19226708 heartbeat IPC: 2.95003 cumulative IPC: 2.60055 (Simulation time: 0 hr 27 min 6 sec) 

Warmup complete CPU 0 instructions: 50000001 cycles: 19226708 (Simulation time: 0 hr 27 min 6 sec) 

Heartbeat CPU 0 instructions: 51000001 cycles: 20043693 heartbeat IPC: 1.22401 cumulative IPC: 1.22401 (Simulation time: 0 hr 27 min 41 sec) 
Heartbeat CPU 0 instructions: 52000000 cycles: 20826090 heartbeat IPC: 1.27812 cumulative IPC: 1.25048 (Simulation time: 0 hr 28 min 17 sec) 
Heartbeat CPU 0 instructions: 53000001 cycles: 21669725 heartbeat IPC: 1.18535 cumulative IPC: 1.22799 (Simulation time: 0 hr 28 min 53 sec) 
Heartbeat CPU 0 instructions: 54000001 cycles: 22454491 heartbeat IPC: 1.27427 cumulative IPC: 1.23924 (Simulation time: 0 hr 29 min 30 sec) 
Heartbeat CPU 0 instructions: 55000000 cycles: 23232149 heartbeat IPC: 1.28591 cumulative IPC: 1.2483 (Simulation time: 0 hr 30 min 7 sec) 
Heartbeat CPU 0 instructions: 56000000 cycles: 24064263 heartbeat IPC: 1.20176 cumulative IPC: 1.2403 (Simulation time: 0 hr 30 min 45 sec) 
Heartbeat CPU 0 instructions: 57000000 cycles: 24951170 heartbeat IPC: 1.12751 cumulative IPC: 1.22282 (Simulation time: 0 hr 31 min 24 sec) 
Heartbeat CPU 0 instructions: 58000002 cycles: 26079568 heartbeat IPC: 0.886214 cumulative IPC: 1.1674 (Simulation time: 0 hr 32 min 4 sec) 
Heartbeat CPU 0 instructions: 59000001 cycles: 26879629 heartbeat IPC: 1.2499 cumulative IPC: 1.17602 (Simulation time: 0 hr 32 min 39 sec) 
Heartbeat CPU 0 instructions: 60000000 cycles: 27724540 heartbeat IPC: 1.18356 cumulative IPC: 1.17677 (Simulation time: 0 hr 33 min 16 sec) 
Heartbeat CPU 0 instructions: 61000001 cycles: 28506910 heartbeat IPC: 1.27817 cumulative IPC: 1.18532 (Simulation time: 0 hr 33 min 51 sec) 
Heartbeat CPU 0 instructions: 62000000 cycles: 29286281 heartbeat IPC: 1.28308 cumulative IPC: 1.19289 (Simulation time: 0 hr 34 min 25 sec) 
Heartbeat CPU 0 instructions: 63000002 cycles: 30101890 heartbeat IPC: 1.22608 cumulative IPC: 1.19538 (Simulation time: 0 hr 35 min 2 sec) 
Heartbeat CPU 0 instructions: 64000000 cycles: 30891385 heartbeat IPC: 1.26663 cumulative IPC: 1.2002 (Simulation time: 0 hr 35 min 36 sec) 
Heartbeat CPU 0 instructions: 65000003 cycles: 31670501 heartbeat IPC: 1.28351 cumulative IPC: 1.20542 (Simulation time: 0 hr 36 min 10 sec) 
Heartbeat CPU 0 instructions: 66000003 cycles: 32488391 heartbeat IPC: 1.22266 cumulative IPC: 1.20648 (Simulation time: 0 hr 36 min 48 sec) 
Heartbeat CPU 0 instructions: 67000003 cycles: 33310154 heartbeat IPC: 1.2169 cumulative IPC: 1.20709 (Simulation time: 0 hr 37 min 23 sec) 
Heartbeat CPU 0 instructions: 68000000 cycles: 34100305 heartbeat IPC: 1.26558 cumulative IPC: 1.2102 (Simulation time: 0 hr 38 min 0 sec) 
Heartbeat CPU 0 instructions: 69000003 cycles: 34930940 heartbeat IPC: 1.2039 cumulative IPC: 1.20987 (Simulation time: 0 hr 38 min 36 sec) 
Heartbeat CPU 0 instructions: 70000000 cycles: 35759415 heartbeat IPC: 1.20703 cumulative IPC: 1.20972 (Simulation time: 0 hr 39 min 6 sec) 
Heartbeat CPU 0 instructions: 71000002 cycles: 36571142 heartbeat IPC: 1.23194 cumulative IPC: 1.21076 (Simulation time: 0 hr 39 min 36 sec) 
Heartbeat CPU 0 instructions: 72000000 cycles: 37274088 heartbeat IPC: 1.42258 cumulative IPC: 1.21901 (Simulation time: 0 hr 40 min 4 sec) 
Heartbeat CPU 0 instructions: 73000003 cycles: 38033537 heartbeat IPC: 1.31675 cumulative IPC: 1.22296 (Simulation time: 0 hr 40 min 32 sec) 
Heartbeat CPU 0 instructions: 74000003 cycles: 38769944 heartbeat IPC: 1.35794 cumulative IPC: 1.22805 (Simulation time: 0 hr 40 min 59 sec) 
Heartbeat CPU 0 instructions: 75000002 cycles: 39545641 heartbeat IPC: 1.28916 cumulative IPC: 1.23038 (Simulation time: 0 hr 41 min 28 sec) 
Heartbeat CPU 0 instructions: 76000000 cycles: 40337508 heartbeat IPC: 1.26284 cumulative IPC: 1.2316 (Simulation time: 0 hr 42 min 0 sec) 
Heartbeat CPU 0 instructions: 77000003 cycles: 41086565 heartbeat IPC: 1.33502 cumulative IPC: 1.23514 (Simulation time: 0 hr 42 min 31 sec) 
Heartbeat CPU 0 instructions: 78000003 cycles: 41769227 heartbeat IPC: 1.46485 cumulative IPC: 1.2421 (Simulation time: 0 hr 42 min 59 sec) 
Heartbeat CPU 0 instructions: 79000003 cycles: 42539796 heartbeat IPC: 1.29774 cumulative IPC: 1.24394 (Simulation time: 0 hr 43 min 28 sec) 
Heartbeat CPU 0 instructions: 80000000 cycles: 43286171 heartbeat IPC: 1.33981 cumulative IPC: 1.24691 (Simulation time: 0 hr 43 min 56 sec) 
Heartbeat CPU 0 instructions: 81000001 cycles: 43975599 heartbeat IPC: 1.45048 cumulative IPC: 1.25258 (Simulation time: 0 hr 44 min 20 sec) 
Heartbeat CPU 0 instructions: 82000002 cycles: 44753571 heartbeat IPC: 1.28539 cumulative IPC: 1.25358 (Simulation time: 0 hr 44 min 47 sec) 
Heartbeat CPU 0 instructions: 83000003 cycles: 45496711 heartbeat IPC: 1.34564 cumulative IPC: 1.25619 (Simulation time: 0 hr 45 min 15 sec) 
Heartbeat CPU 0 instructions: 84000000 cycles: 46191206 heartbeat IPC: 1.43989 cumulative IPC: 1.26092 (Simulation time: 0 hr 45 min 41 sec) 
Heartbeat CPU 0 instructions: 85000001 cycles: 46975183 heartbeat IPC: 1.27555 cumulative IPC: 1.26133 (Simulation time: 0 hr 46 min 11 sec) 
Heartbeat CPU 0 instructions: 86000000 cycles: 47680288 heartbeat IPC: 1.41823 cumulative IPC: 1.26522 (Simulation time: 0 hr 46 min 39 sec) 
Heartbeat CPU 0 instructions: 87000000 cycles: 48365701 heartbeat IPC: 1.45897 cumulative IPC: 1.26978 (Simulation time: 0 hr 47 min 8 sec) 
Heartbeat CPU 0 instructions: 88000000 cycles: 49144883 heartbeat IPC: 1.2834 cumulative IPC: 1.27013 (Simulation time: 0 hr 47 min 38 sec) 
Heartbeat CPU 0 instructions: 89000000 cycles: 49837720 heartbeat IPC: 1.44334 cumulative IPC: 1.27405 (Simulation time: 0 hr 48 min 6 sec) 
Heartbeat CPU 0 instructions: 90000001 cycles: 50521814 heartbeat IPC: 1.46179 cumulative IPC: 1.27816 (Simulation time: 0 hr 48 min 34 sec) 
Heartbeat CPU 0 instructions: 91000001 cycles: 51307779 heartbeat IPC: 1.27232 cumulative IPC: 1.27801 (Simulation time: 0 hr 49 min 2 sec) 
Heartbeat CPU 0 instructions: 92000000 cycles: 51994707 heartbeat IPC: 1.45576 cumulative IPC: 1.28174 (Simulation time: 0 hr 49 min 30 sec) 
Heartbeat CPU 0 instructions: 93000002 cycles: 52672974 heartbeat IPC: 1.47435 cumulative IPC: 1.28564 (Simulation time: 0 hr 49 min 58 sec) 
Heartbeat CPU 0 instructions: 94000000 cycles: 53481473 heartbeat IPC: 1.23686 cumulative IPC: 1.28449 (Simulation time: 0 hr 50 min 25 sec) 
Heartbeat CPU 0 instructions: 95000000 cycles: 54160372 heartbeat IPC: 1.47297 cumulative IPC: 1.28816 (Simulation time: 0 hr 50 min 55 sec) 
Heartbeat CPU 0 instructions: 96000000 cycles: 54871665 heartbeat IPC: 1.40589 cumulative IPC: 1.29051 (Simulation time: 0 hr 51 min 24 sec) 
Heartbeat CPU 0 instructions: 97000002 cycles: 56055233 heartbeat IPC: 0.844905 cumulative IPC: 1.27618 (Simulation time: 0 hr 51 min 55 sec) 
Heartbeat CPU 0 instructions: 98000003 cycles: 56983824 heartbeat IPC: 1.0769 cumulative IPC: 1.27128 (Simulation time: 0 hr 52 min 27 sec) 
Heartbeat CPU 0 instructions: 99000001 cycles: 57708273 heartbeat IPC: 1.38036 cumulative IPC: 1.27334 (Simulation time: 0 hr 52 min 56 sec) 
Heartbeat CPU 0 instructions: 100000000 cycles: 58405230 heartbeat IPC: 1.43481 cumulative IPC: 1.27621 (Simulation time: 0 hr 53 min 23 sec) 
Heartbeat CPU 0 instructions: 101000001 cycles: 59787329 heartbeat IPC: 0.723538 cumulative IPC: 1.25738 (Simulation time: 0 hr 53 min 56 sec) 
Heartbeat CPU 0 instructions: 102000002 cycles: 60575250 heartbeat IPC: 1.26916 cumulative IPC: 1.2576 (Simulation time: 0 hr 54 min 25 sec) 
Heartbeat CPU 0 instructions: 103000001 cycles: 61305813 heartbeat IPC: 1.36881 cumulative IPC: 1.25953 (Simulation time: 0 hr 54 min 57 sec) 
Heartbeat CPU 0 instructions: 104000000 cycles: 62537724 heartbeat IPC: 0.811746 cumulative IPC: 1.2468 (Simulation time: 0 hr 55 min 27 sec) 
Heartbeat CPU 0 instructions: 105000002 cycles: 63355083 heartbeat IPC: 1.22346 cumulative IPC: 1.24636 (Simulation time: 0 hr 55 min 56 sec) 
Heartbeat CPU 0 instructions: 106000000 cycles: 64075185 heartbeat IPC: 1.38869 cumulative IPC: 1.24865 (Simulation time: 0 hr 56 min 25 sec) 
Heartbeat CPU 0 instructions: 107000000 cycles: 65130045 heartbeat IPC: 0.947993 cumulative IPC: 1.24174 (Simulation time: 0 hr 56 min 59 sec) 
Heartbeat CPU 0 instructions: 108000000 cycles: 66121609 heartbeat IPC: 1.00851 cumulative IPC: 1.23681 (Simulation time: 0 hr 57 min 30 sec) 
Heartbeat CPU 0 instructions: 109000003 cycles: 66853655 heartbeat IPC: 1.36604 cumulative IPC: 1.23879 (Simulation time: 0 hr 58 min 2 sec) 
Heartbeat CPU 0 instructions: 110000000 cycles: 67660098 heartbeat IPC: 1.24001 cumulative IPC: 1.23881 (Simulation time: 0 hr 58 min 37 sec) 
Heartbeat CPU 0 instructions: 111000001 cycles: 68879303 heartbeat IPC: 0.820207 cumulative IPC: 1.22854 (Simulation time: 0 hr 59 min 11 sec) 
Heartbeat CPU 0 instructions: 112000000 cycles: 69663914 heartbeat IPC: 1.27452 cumulative IPC: 1.22925 (Simulation time: 0 hr 59 min 43 sec) 
Heartbeat CPU 0 instructions: 113000000 cycles: 70393246 heartbeat IPC: 1.37112 cumulative IPC: 1.23127 (Simulation time: 1 hr 0 min 13 sec) 
Heartbeat CPU 0 instructions: 114000000 cycles: 71662000 heartbeat IPC: 0.788175 cumulative IPC: 1.22055 (Simulation time: 1 hr 0 min 47 sec) 
Heartbeat CPU 0 instructions: 115000000 cycles: 72472820 heartbeat IPC: 1.23332 cumulative IPC: 1.22075 (Simulation time: 1 hr 1 min 16 sec) 
Heartbeat CPU 0 instructions: 116000000 cycles: 73199502 heartbeat IPC: 1.37612 cumulative IPC: 1.22284 (Simulation time: 1 hr 1 min 43 sec) 
Heartbeat CPU 0 instructions: 117000001 cycles: 74269332 heartbeat IPC: 0.934729 cumulative IPC: 1.21724 (Simulation time: 1 hr 2 min 14 sec) 
Heartbeat CPU 0 instructions: 118000001 cycles: 75273942 heartbeat IPC: 0.995411 cumulative IPC: 1.21326 (Simulation time: 1 hr 2 min 41 sec) 
Heartbeat CPU 0 instructions: 119000001 cycles: 76001089 heartbeat IPC: 1.37524 cumulative IPC: 1.21534 (Simulation time: 1 hr 3 min 9 sec) 
Heartbeat CPU 0 instructions: 120000000 cycles: 76799289 heartbeat IPC: 1.25282 cumulative IPC: 1.21586 (Simulation time: 1 hr 3 min 36 sec) 
Heartbeat CPU 0 instructions: 121000003 cycles: 78007572 heartbeat IPC: 0.827623 cumulative IPC: 1.20788 (Simulation time: 1 hr 4 min 5 sec) 
Heartbeat CPU 0 instructions: 122000000 cycles: 78805160 heartbeat IPC: 1.25378 cumulative IPC: 1.20849 (Simulation time: 1 hr 4 min 35 sec) 
Heartbeat CPU 0 instructions: 123000003 cycles: 79529796 heartbeat IPC: 1.38001 cumulative IPC: 1.21055 (Simulation time: 1 hr 5 min 2 sec) 
Heartbeat CPU 0 instructions: 124000000 cycles: 80741769 heartbeat IPC: 0.825098 cumulative IPC: 1.20296 (Simulation time: 1 hr 5 min 34 sec) 
Heartbeat CPU 0 instructions: 125000000 cycles: 81613684 heartbeat IPC: 1.1469 cumulative IPC: 1.20217 (Simulation time: 1 hr 6 min 3 sec) 
Heartbeat CPU 0 instructions: 126000000 cycles: 82339323 heartbeat IPC: 1.3781 cumulative IPC: 1.2042 (Simulation time: 1 hr 6 min 37 sec) 
Heartbeat CPU 0 instructions: 127000000 cycles: 83347602 heartbeat IPC: 0.991789 cumulative IPC: 1.20086 (Simulation time: 1 hr 7 min 6 sec) 
Heartbeat CPU 0 instructions: 128000000 cycles: 84440112 heartbeat IPC: 0.915323 cumulative IPC: 1.19607 (Simulation time: 1 hr 7 min 34 sec) 
Heartbeat CPU 0 instructions: 129000000 cycles: 85190013 heartbeat IPC: 1.33351 cumulative IPC: 1.19764 (Simulation time: 1 hr 8 min 2 sec) 
Heartbeat CPU 0 instructions: 130000000 cycles: 85922829 heartbeat IPC: 1.3646 cumulative IPC: 1.19947 (Simulation time: 1 hr 8 min 32 sec) 
Heartbeat CPU 0 instructions: 131000002 cycles: 87212729 heartbeat IPC: 0.775255 cumulative IPC: 1.19142 (Simulation time: 1 hr 9 min 5 sec) 
Heartbeat CPU 0 instructions: 132000000 cycles: 88027327 heartbeat IPC: 1.2276 cumulative IPC: 1.19185 (Simulation time: 1 hr 9 min 34 sec) 
Heartbeat CPU 0 instructions: 133000000 cycles: 88763543 heartbeat IPC: 1.3583 cumulative IPC: 1.19361 (Simulation time: 1 hr 10 min 4 sec) 
Heartbeat CPU 0 instructions: 134000001 cycles: 89938200 heartbeat IPC: 0.851313 cumulative IPC: 1.18793 (Simulation time: 1 hr 10 min 36 sec) 
Heartbeat CPU 0 instructions: 135000002 cycles: 90868676 heartbeat IPC: 1.07472 cumulative IPC: 1.18646 (Simulation time: 1 hr 11 min 7 sec) 
Heartbeat CPU 0 instructions: 136000000 cycles: 91605003 heartbeat IPC: 1.35809 cumulative IPC: 1.1882 (Simulation time: 1 hr 11 min 34 sec) 
Heartbeat CPU 0 instructions: 137000002 cycles: 92529701 heartbeat IPC: 1.08144 cumulative IPC: 1.18685 (Simulation time: 1 hr 12 min 1 sec) 
Heartbeat CPU 0 instructions: 138000000 cycles: 93915842 heartbeat IPC: 0.721426 cumulative IPC: 1.17822 (Simulation time: 1 hr 12 min 29 sec) 
Heartbeat CPU 0 instructions: 139000000 cycles: 95018253 heartbeat IPC: 0.907103 cumulative IPC: 1.17427 (Simulation time: 1 hr 12 min 57 sec) 
Heartbeat CPU 0 instructions: 140000000 cycles: 95848578 heartbeat IPC: 1.20435 cumulative IPC: 1.1746 (Simulation time: 1 hr 13 min 24 sec) 
Heartbeat CPU 0 instructions: 141000003 cycles: 96599603 heartbeat IPC: 1.33152 cumulative IPC: 1.17612 (Simulation time: 1 hr 13 min 53 sec) 
Heartbeat CPU 0 instructions: 142000000 cycles: 97722770 heartbeat IPC: 0.890337 cumulative IPC: 1.17203 (Simulation time: 1 hr 14 min 22 sec) 
Heartbeat CPU 0 instructions: 143000003 cycles: 98680505 heartbeat IPC: 1.04413 cumulative IPC: 1.17049 (Simulation time: 1 hr 14 min 47 sec) 
Heartbeat CPU 0 instructions: 144000000 cycles: 99468653 heartbeat IPC: 1.26879 cumulative IPC: 1.17146 (Simulation time: 1 hr 15 min 13 sec) 
Heartbeat CPU 0 instructions: 145000000 cycles: 100335798 heartbeat IPC: 1.15321 cumulative IPC: 1.17126 (Simulation time: 1 hr 15 min 40 sec) 
Heartbeat CPU 0 instructions: 146000000 cycles: 101504482 heartbeat IPC: 0.855663 cumulative IPC: 1.16678 (Simulation time: 1 hr 16 min 5 sec) 
Heartbeat CPU 0 instructions: 147000003 cycles: 102332116 heartbeat IPC: 1.20827 cumulative IPC: 1.16719 (Simulation time: 1 hr 16 min 31 sec) 
Heartbeat CPU 0 instructions: 148000000 cycles: 103118495 heartbeat IPC: 1.27165 cumulative IPC: 1.16817 (Simulation time: 1 hr 16 min 57 sec) 
Heartbeat CPU 0 instructions: 149000003 cycles: 104358363 heartbeat IPC: 0.80654 cumulative IPC: 1.1629 (Simulation time: 1 hr 17 min 24 sec) 
Heartbeat CPU 0 instructions: 150000001 cycles: 105206338 heartbeat IPC: 1.17928 cumulative IPC: 1.16307 (Simulation time: 1 hr 17 min 48 sec) 
Finished CPU 0 instructions: 100000000 cycles: 85979630 cummulative IPC: 1.16307 (Simulation time: 1 hr 17 min 48 sec) 

ChampSim completed all CPUs

Region of Interest Statistics

CPU 0 cummulative IPC: 1.16307 instructions: 100000000 cycles: 85979630
LLC TOTAL     ACCESS:    1520476  HIT:     894110  MISS:     626366
LLC LOAD      ACCESS:     160655  HIT:     131801  MISS:      28854
LLC RFO       ACCESS:     118677  HIT:     114504  MISS:       4173
LLC PREFETCH  ACCESS:    1108835  HIT:     515615  MISS:     593220
LLC WRITEBACK ACCESS:     132309  HIT:     132190  MISS:        119
OPTgen accesses: 6738
OPTgen hits: 6736
OPTgen hit rate: 99.9703


