
*** ChampSim Multicore Out-of-Order Simulator ***

Warmup Instructions: 50000000
Simulation Instructions: 100000000
Configuration: 2
Number of CPUs: 1
LLC sets: 2048
LLC ways: 16
Off-chip DRAM Channels: 1 Width: 64-bit Data Rate: 1600 MT/s

CPU 0 runs /datasets/cs240c-wi22-a00-public/data/Assignment2-gz/omnetpp_17B.trace.gz
CPU 0 L1D next line prefetcher
CPU 0 L2C IP-based stride prefetcher
Initialize Hawkeye state
Heartbeat CPU 0 instructions: 1000000 cycles: 559559 heartbeat IPC: 1.78712 cumulative IPC: 1.78712 (Simulation time: 0 hr 0 min 34 sec) 
Heartbeat CPU 0 instructions: 2000002 cycles: 1133708 heartbeat IPC: 1.74171 cumulative IPC: 1.76412 (Simulation time: 0 hr 1 min 8 sec) 
Heartbeat CPU 0 instructions: 3000001 cycles: 1769020 heartbeat IPC: 1.57403 cumulative IPC: 1.69585 (Simulation time: 0 hr 1 min 39 sec) 
Heartbeat CPU 0 instructions: 4000000 cycles: 2333932 heartbeat IPC: 1.77019 cumulative IPC: 1.71385 (Simulation time: 0 hr 2 min 12 sec) 
Heartbeat CPU 0 instructions: 5000002 cycles: 2892950 heartbeat IPC: 1.78885 cumulative IPC: 1.72834 (Simulation time: 0 hr 2 min 46 sec) 
Heartbeat CPU 0 instructions: 6000000 cycles: 3471472 heartbeat IPC: 1.72854 cumulative IPC: 1.72837 (Simulation time: 0 hr 3 min 18 sec) 
Heartbeat CPU 0 instructions: 7000000 cycles: 4035844 heartbeat IPC: 1.77188 cumulative IPC: 1.73446 (Simulation time: 0 hr 3 min 50 sec) 
Heartbeat CPU 0 instructions: 8000000 cycles: 4697578 heartbeat IPC: 1.51118 cumulative IPC: 1.70301 (Simulation time: 0 hr 4 min 20 sec) 
Heartbeat CPU 0 instructions: 9000000 cycles: 5359383 heartbeat IPC: 1.51102 cumulative IPC: 1.6793 (Simulation time: 0 hr 4 min 49 sec) 
Heartbeat CPU 0 instructions: 10000001 cycles: 6020952 heartbeat IPC: 1.51156 cumulative IPC: 1.66087 (Simulation time: 0 hr 5 min 18 sec) 
Heartbeat CPU 0 instructions: 11000001 cycles: 6682342 heartbeat IPC: 1.51197 cumulative IPC: 1.64613 (Simulation time: 0 hr 5 min 47 sec) 
Heartbeat CPU 0 instructions: 12000000 cycles: 7343118 heartbeat IPC: 1.51337 cumulative IPC: 1.63418 (Simulation time: 0 hr 6 min 17 sec) 
Heartbeat CPU 0 instructions: 13000001 cycles: 8001818 heartbeat IPC: 1.51814 cumulative IPC: 1.62463 (Simulation time: 0 hr 6 min 45 sec) 
Heartbeat CPU 0 instructions: 14000000 cycles: 8663106 heartbeat IPC: 1.5122 cumulative IPC: 1.61605 (Simulation time: 0 hr 7 min 13 sec) 
Heartbeat CPU 0 instructions: 15000000 cycles: 9324820 heartbeat IPC: 1.51123 cumulative IPC: 1.60861 (Simulation time: 0 hr 7 min 43 sec) 
Heartbeat CPU 0 instructions: 16000000 cycles: 9986731 heartbeat IPC: 1.51078 cumulative IPC: 1.60213 (Simulation time: 0 hr 8 min 12 sec) 
Heartbeat CPU 0 instructions: 17000000 cycles: 10652457 heartbeat IPC: 1.50212 cumulative IPC: 1.59588 (Simulation time: 0 hr 8 min 40 sec) 
Heartbeat CPU 0 instructions: 18000001 cycles: 11319014 heartbeat IPC: 1.50025 cumulative IPC: 1.59024 (Simulation time: 0 hr 9 min 9 sec) 
Heartbeat CPU 0 instructions: 19000002 cycles: 11987820 heartbeat IPC: 1.4952 cumulative IPC: 1.58494 (Simulation time: 0 hr 9 min 38 sec) 
Heartbeat CPU 0 instructions: 20000000 cycles: 12559631 heartbeat IPC: 1.74883 cumulative IPC: 1.5924 (Simulation time: 0 hr 10 min 9 sec) 
Heartbeat CPU 0 instructions: 21000000 cycles: 13148672 heartbeat IPC: 1.69767 cumulative IPC: 1.59712 (Simulation time: 0 hr 10 min 40 sec) 
Heartbeat CPU 0 instructions: 22000001 cycles: 13760571 heartbeat IPC: 1.63426 cumulative IPC: 1.59877 (Simulation time: 0 hr 11 min 10 sec) 
Heartbeat CPU 0 instructions: 23000000 cycles: 14318419 heartbeat IPC: 1.7926 cumulative IPC: 1.60632 (Simulation time: 0 hr 11 min 42 sec) 
Heartbeat CPU 0 instructions: 24000000 cycles: 14878072 heartbeat IPC: 1.78682 cumulative IPC: 1.61311 (Simulation time: 0 hr 12 min 14 sec) 
Heartbeat CPU 0 instructions: 25000001 cycles: 15461615 heartbeat IPC: 1.71367 cumulative IPC: 1.61691 (Simulation time: 0 hr 12 min 46 sec) 
Heartbeat CPU 0 instructions: 26000001 cycles: 16078491 heartbeat IPC: 1.62107 cumulative IPC: 1.61707 (Simulation time: 0 hr 13 min 16 sec) 
Heartbeat CPU 0 instructions: 27000000 cycles: 16638128 heartbeat IPC: 1.78687 cumulative IPC: 1.62278 (Simulation time: 0 hr 13 min 47 sec) 
Heartbeat CPU 0 instructions: 28000000 cycles: 17196433 heartbeat IPC: 1.79114 cumulative IPC: 1.62824 (Simulation time: 0 hr 14 min 20 sec) 
Heartbeat CPU 0 instructions: 29000000 cycles: 17775143 heartbeat IPC: 1.72798 cumulative IPC: 1.63149 (Simulation time: 0 hr 14 min 49 sec) 
Heartbeat CPU 0 instructions: 30000000 cycles: 18397690 heartbeat IPC: 1.6063 cumulative IPC: 1.63064 (Simulation time: 0 hr 15 min 18 sec) 
Heartbeat CPU 0 instructions: 31000000 cycles: 18959128 heartbeat IPC: 1.78114 cumulative IPC: 1.6351 (Simulation time: 0 hr 15 min 51 sec) 
Heartbeat CPU 0 instructions: 32000000 cycles: 19516356 heartbeat IPC: 1.7946 cumulative IPC: 1.63965 (Simulation time: 0 hr 16 min 24 sec) 
Heartbeat CPU 0 instructions: 33000001 cycles: 20088201 heartbeat IPC: 1.74873 cumulative IPC: 1.64276 (Simulation time: 0 hr 16 min 57 sec) 
Heartbeat CPU 0 instructions: 34000001 cycles: 20723908 heartbeat IPC: 1.57305 cumulative IPC: 1.64062 (Simulation time: 0 hr 17 min 26 sec) 
Heartbeat CPU 0 instructions: 35000002 cycles: 21289116 heartbeat IPC: 1.76926 cumulative IPC: 1.64403 (Simulation time: 0 hr 17 min 58 sec) 
Heartbeat CPU 0 instructions: 36000000 cycles: 21848849 heartbeat IPC: 1.78656 cumulative IPC: 1.64768 (Simulation time: 0 hr 18 min 31 sec) 
Heartbeat CPU 0 instructions: 37000001 cycles: 22427001 heartbeat IPC: 1.72965 cumulative IPC: 1.6498 (Simulation time: 0 hr 19 min 3 sec) 
Heartbeat CPU 0 instructions: 38000002 cycles: 23056036 heartbeat IPC: 1.58974 cumulative IPC: 1.64816 (Simulation time: 0 hr 19 min 32 sec) 
Heartbeat CPU 0 instructions: 39000000 cycles: 23618746 heartbeat IPC: 1.77711 cumulative IPC: 1.65123 (Simulation time: 0 hr 20 min 5 sec) 
Heartbeat CPU 0 instructions: 40000000 cycles: 24178838 heartbeat IPC: 1.78542 cumulative IPC: 1.65434 (Simulation time: 0 hr 20 min 39 sec) 
Heartbeat CPU 0 instructions: 41000002 cycles: 24761900 heartbeat IPC: 1.71509 cumulative IPC: 1.65577 (Simulation time: 0 hr 21 min 13 sec) 
Heartbeat CPU 0 instructions: 42000000 cycles: 25388878 heartbeat IPC: 1.59495 cumulative IPC: 1.65427 (Simulation time: 0 hr 21 min 43 sec) 
Heartbeat CPU 0 instructions: 43000001 cycles: 25876231 heartbeat IPC: 2.0519 cumulative IPC: 1.66176 (Simulation time: 0 hr 22 min 20 sec) 
Heartbeat CPU 0 instructions: 44000000 cycles: 26536928 heartbeat IPC: 1.51355 cumulative IPC: 1.65807 (Simulation time: 0 hr 22 min 49 sec) 
Heartbeat CPU 0 instructions: 45000003 cycles: 27198571 heartbeat IPC: 1.51139 cumulative IPC: 1.6545 (Simulation time: 0 hr 23 min 17 sec) 
Heartbeat CPU 0 instructions: 46000000 cycles: 27860946 heartbeat IPC: 1.50971 cumulative IPC: 1.65106 (Simulation time: 0 hr 23 min 48 sec) 
Heartbeat CPU 0 instructions: 47000001 cycles: 28523960 heartbeat IPC: 1.50827 cumulative IPC: 1.64774 (Simulation time: 0 hr 24 min 17 sec) 
Heartbeat CPU 0 instructions: 48000000 cycles: 29186711 heartbeat IPC: 1.50886 cumulative IPC: 1.64458 (Simulation time: 0 hr 24 min 46 sec) 
Heartbeat CPU 0 instructions: 49000000 cycles: 29848209 heartbeat IPC: 1.51172 cumulative IPC: 1.64164 (Simulation time: 0 hr 25 min 15 sec) 
Heartbeat CPU 0 instructions: 50000000 cycles: 30510400 heartbeat IPC: 1.51014 cumulative IPC: 1.63879 (Simulation time: 0 hr 25 min 44 sec) 

Warmup complete CPU 0 instructions: 50000002 cycles: 30510401 (Simulation time: 0 hr 25 min 44 sec) 

Heartbeat CPU 0 instructions: 51000002 cycles: 31553753 heartbeat IPC: 0.95845 cumulative IPC: 0.958449 (Simulation time: 0 hr 26 min 17 sec) 
Heartbeat CPU 0 instructions: 52000000 cycles: 32597992 heartbeat IPC: 0.957633 cumulative IPC: 0.958041 (Simulation time: 0 hr 26 min 48 sec) 
Heartbeat CPU 0 instructions: 53000001 cycles: 33640923 heartbeat IPC: 0.958837 cumulative IPC: 0.958306 (Simulation time: 0 hr 27 min 18 sec) 
Heartbeat CPU 0 instructions: 54000002 cycles: 34709288 heartbeat IPC: 0.936011 cumulative IPC: 0.952633 (Simulation time: 0 hr 27 min 49 sec) 
Heartbeat CPU 0 instructions: 55000003 cycles: 35749693 heartbeat IPC: 0.961165 cumulative IPC: 0.954328 (Simulation time: 0 hr 28 min 19 sec) 
Heartbeat CPU 0 instructions: 56000000 cycles: 38057745 heartbeat IPC: 0.433264 cumulative IPC: 0.794981 (Simulation time: 0 hr 28 min 57 sec) 
Heartbeat CPU 0 instructions: 57000003 cycles: 40142704 heartbeat IPC: 0.479627 cumulative IPC: 0.726721 (Simulation time: 0 hr 29 min 33 sec) 
Heartbeat CPU 0 instructions: 58000000 cycles: 43508964 heartbeat IPC: 0.297065 cumulative IPC: 0.615452 (Simulation time: 0 hr 30 min 13 sec) 
Heartbeat CPU 0 instructions: 59000003 cycles: 46856259 heartbeat IPC: 0.29875 cumulative IPC: 0.550598 (Simulation time: 0 hr 30 min 55 sec) 
Heartbeat CPU 0 instructions: 60000000 cycles: 49321459 heartbeat IPC: 0.405645 cumulative IPC: 0.531602 (Simulation time: 0 hr 31 min 33 sec) 
Heartbeat CPU 0 instructions: 61000001 cycles: 51221280 heartbeat IPC: 0.526366 cumulative IPC: 0.531122 (Simulation time: 0 hr 32 min 7 sec) 
Heartbeat CPU 0 instructions: 62000001 cycles: 54551723 heartbeat IPC: 0.30026 cumulative IPC: 0.499141 (Simulation time: 0 hr 32 min 45 sec) 
Heartbeat CPU 0 instructions: 63000000 cycles: 57887686 heartbeat IPC: 0.299763 cumulative IPC: 0.474846 (Simulation time: 0 hr 33 min 26 sec) 
Heartbeat CPU 0 instructions: 64000000 cycles: 60517119 heartbeat IPC: 0.38031 cumulative IPC: 0.466562 (Simulation time: 0 hr 34 min 2 sec) 
Heartbeat CPU 0 instructions: 65000000 cycles: 62241138 heartbeat IPC: 0.58004 cumulative IPC: 0.472728 (Simulation time: 0 hr 34 min 33 sec) 
Heartbeat CPU 0 instructions: 66000000 cycles: 65568760 heartbeat IPC: 0.300515 cumulative IPC: 0.456382 (Simulation time: 0 hr 35 min 12 sec) 
Heartbeat CPU 0 instructions: 67000001 cycles: 68903544 heartbeat IPC: 0.29987 cumulative IPC: 0.442787 (Simulation time: 0 hr 35 min 52 sec) 
Heartbeat CPU 0 instructions: 68000000 cycles: 71709744 heartbeat IPC: 0.356353 cumulative IPC: 0.4369 (Simulation time: 0 hr 36 min 29 sec) 
Heartbeat CPU 0 instructions: 69000001 cycles: 73249320 heartbeat IPC: 0.64953 cumulative IPC: 0.44456 (Simulation time: 0 hr 36 min 59 sec) 
Heartbeat CPU 0 instructions: 70000001 cycles: 76566267 heartbeat IPC: 0.301482 cumulative IPC: 0.434255 (Simulation time: 0 hr 37 min 37 sec) 
Heartbeat CPU 0 instructions: 71000001 cycles: 79896788 heartbeat IPC: 0.300253 cumulative IPC: 0.425218 (Simulation time: 0 hr 38 min 16 sec) 
Heartbeat CPU 0 instructions: 72000000 cycles: 82730286 heartbeat IPC: 0.35292 cumulative IPC: 0.421295 (Simulation time: 0 hr 38 min 54 sec) 
Heartbeat CPU 0 instructions: 73000000 cycles: 84281353 heartbeat IPC: 0.644717 cumulative IPC: 0.42774 (Simulation time: 0 hr 39 min 23 sec) 
Heartbeat CPU 0 instructions: 74000003 cycles: 87641883 heartbeat IPC: 0.297573 cumulative IPC: 0.420084 (Simulation time: 0 hr 40 min 3 sec) 
Heartbeat CPU 0 instructions: 75000001 cycles: 90970602 heartbeat IPC: 0.300415 cumulative IPC: 0.413495 (Simulation time: 0 hr 40 min 43 sec) 
Heartbeat CPU 0 instructions: 76000000 cycles: 93687391 heartbeat IPC: 0.368081 cumulative IPC: 0.411542 (Simulation time: 0 hr 41 min 18 sec) 
Heartbeat CPU 0 instructions: 77000001 cycles: 95331385 heartbeat IPC: 0.608275 cumulative IPC: 0.416532 (Simulation time: 0 hr 41 min 51 sec) 
Heartbeat CPU 0 instructions: 78000000 cycles: 98664469 heartbeat IPC: 0.300022 cumulative IPC: 0.410834 (Simulation time: 0 hr 42 min 27 sec) 
Heartbeat CPU 0 instructions: 79000000 cycles: 102170676 heartbeat IPC: 0.285208 cumulative IPC: 0.404687 (Simulation time: 0 hr 43 min 2 sec) 
Heartbeat CPU 0 instructions: 80000000 cycles: 104063407 heartbeat IPC: 0.528337 cumulative IPC: 0.407869 (Simulation time: 0 hr 43 min 30 sec) 
Heartbeat CPU 0 instructions: 81000001 cycles: 106541282 heartbeat IPC: 0.403572 cumulative IPC: 0.407729 (Simulation time: 0 hr 44 min 0 sec) 
Heartbeat CPU 0 instructions: 82000000 cycles: 109900852 heartbeat IPC: 0.297657 cumulative IPC: 0.403071 (Simulation time: 0 hr 44 min 34 sec) 
Heartbeat CPU 0 instructions: 83000000 cycles: 113250660 heartbeat IPC: 0.298525 cumulative IPC: 0.398838 (Simulation time: 0 hr 45 min 5 sec) 
Heartbeat CPU 0 instructions: 84000000 cycles: 115103399 heartbeat IPC: 0.539741 cumulative IPC: 0.401924 (Simulation time: 0 hr 45 min 31 sec) 
Heartbeat CPU 0 instructions: 85000003 cycles: 117605605 heartbeat IPC: 0.399649 cumulative IPC: 0.401859 (Simulation time: 0 hr 46 min 0 sec) 
Heartbeat CPU 0 instructions: 86000001 cycles: 120954478 heartbeat IPC: 0.298607 cumulative IPC: 0.398036 (Simulation time: 0 hr 46 min 34 sec) 
Heartbeat CPU 0 instructions: 87000000 cycles: 124295886 heartbeat IPC: 0.299275 cumulative IPC: 0.394517 (Simulation time: 0 hr 47 min 6 sec) 
Heartbeat CPU 0 instructions: 88000000 cycles: 126038768 heartbeat IPC: 0.573762 cumulative IPC: 0.397788 (Simulation time: 0 hr 47 min 33 sec) 
Heartbeat CPU 0 instructions: 89000000 cycles: 130865063 heartbeat IPC: 0.207198 cumulative IPC: 0.388622 (Simulation time: 0 hr 48 min 10 sec) 
Heartbeat CPU 0 instructions: 90000002 cycles: 131908692 heartbeat IPC: 0.958197 cumulative IPC: 0.394484 (Simulation time: 0 hr 48 min 34 sec) 
Heartbeat CPU 0 instructions: 91000001 cycles: 132953085 heartbeat IPC: 0.957493 cumulative IPC: 0.400224 (Simulation time: 0 hr 48 min 58 sec) 
Heartbeat CPU 0 instructions: 92000000 cycles: 133996949 heartbeat IPC: 0.957978 cumulative IPC: 0.40585 (Simulation time: 0 hr 49 min 21 sec) 
Heartbeat CPU 0 instructions: 93000002 cycles: 135041289 heartbeat IPC: 0.957545 cumulative IPC: 0.411362 (Simulation time: 0 hr 49 min 47 sec) 
Heartbeat CPU 0 instructions: 94000001 cycles: 136085136 heartbeat IPC: 0.957994 cumulative IPC: 0.416766 (Simulation time: 0 hr 50 min 11 sec) 
Heartbeat CPU 0 instructions: 95000000 cycles: 137129531 heartbeat IPC: 0.957491 cumulative IPC: 0.422063 (Simulation time: 0 hr 50 min 36 sec) 
Heartbeat CPU 0 instructions: 96000000 cycles: 138174621 heartbeat IPC: 0.956855 cumulative IPC: 0.427254 (Simulation time: 0 hr 51 min 0 sec) 
Heartbeat CPU 0 instructions: 97000002 cycles: 139245621 heartbeat IPC: 0.933709 cumulative IPC: 0.432243 (Simulation time: 0 hr 51 min 26 sec) 
Heartbeat CPU 0 instructions: 98000000 cycles: 140291375 heartbeat IPC: 0.956246 cumulative IPC: 0.437234 (Simulation time: 0 hr 51 min 51 sec) 
Heartbeat CPU 0 instructions: 99000003 cycles: 141329932 heartbeat IPC: 0.962877 cumulative IPC: 0.44216 (Simulation time: 0 hr 52 min 16 sec) 
Heartbeat CPU 0 instructions: 100000000 cycles: 142366626 heartbeat IPC: 0.964602 cumulative IPC: 0.447002 (Simulation time: 0 hr 52 min 41 sec) 
Heartbeat CPU 0 instructions: 101000001 cycles: 143408011 heartbeat IPC: 0.960261 cumulative IPC: 0.451737 (Simulation time: 0 hr 53 min 8 sec) 
Heartbeat CPU 0 instructions: 102000001 cycles: 146719355 heartbeat IPC: 0.301992 cumulative IPC: 0.44747 (Simulation time: 0 hr 53 min 39 sec) 
Heartbeat CPU 0 instructions: 103000000 cycles: 148144917 heartbeat IPC: 0.701477 cumulative IPC: 0.450548 (Simulation time: 0 hr 54 min 6 sec) 
Heartbeat CPU 0 instructions: 104000000 cycles: 151145717 heartbeat IPC: 0.333244 cumulative IPC: 0.44763 (Simulation time: 0 hr 54 min 38 sec) 
Heartbeat CPU 0 instructions: 105000000 cycles: 154479520 heartbeat IPC: 0.299958 cumulative IPC: 0.443659 (Simulation time: 0 hr 55 min 10 sec) 
Heartbeat CPU 0 instructions: 106000000 cycles: 157756762 heartbeat IPC: 0.305135 cumulative IPC: 0.440091 (Simulation time: 0 hr 55 min 41 sec) 
Heartbeat CPU 0 instructions: 107000001 cycles: 159342268 heartbeat IPC: 0.630714 cumulative IPC: 0.442437 (Simulation time: 0 hr 56 min 11 sec) 
Heartbeat CPU 0 instructions: 108000000 cycles: 162173170 heartbeat IPC: 0.353244 cumulative IPC: 0.440519 (Simulation time: 0 hr 56 min 45 sec) 
Heartbeat CPU 0 instructions: 109000000 cycles: 165515626 heartbeat IPC: 0.299181 cumulative IPC: 0.43702 (Simulation time: 0 hr 57 min 16 sec) 
Heartbeat CPU 0 instructions: 110000000 cycles: 168830102 heartbeat IPC: 0.301707 cumulative IPC: 0.433778 (Simulation time: 0 hr 57 min 49 sec) 
Heartbeat CPU 0 instructions: 111000000 cycles: 170553721 heartbeat IPC: 0.580175 cumulative IPC: 0.435579 (Simulation time: 0 hr 58 min 17 sec) 
Heartbeat CPU 0 instructions: 112000000 cycles: 173199366 heartbeat IPC: 0.37798 cumulative IPC: 0.434512 (Simulation time: 0 hr 58 min 48 sec) 
Heartbeat CPU 0 instructions: 113000001 cycles: 176547349 heartbeat IPC: 0.298688 cumulative IPC: 0.431398 (Simulation time: 0 hr 59 min 20 sec) 
Heartbeat CPU 0 instructions: 114000001 cycles: 179885278 heartbeat IPC: 0.299587 cumulative IPC: 0.428452 (Simulation time: 0 hr 59 min 53 sec) 
Heartbeat CPU 0 instructions: 115000002 cycles: 181803754 heartbeat IPC: 0.521248 cumulative IPC: 0.429629 (Simulation time: 1 hr 0 min 20 sec) 
Heartbeat CPU 0 instructions: 116000000 cycles: 184261632 heartbeat IPC: 0.406854 cumulative IPC: 0.429265 (Simulation time: 1 hr 0 min 50 sec) 
Heartbeat CPU 0 instructions: 117000000 cycles: 187584818 heartbeat IPC: 0.300916 cumulative IPC: 0.426549 (Simulation time: 1 hr 1 min 22 sec) 
Heartbeat CPU 0 instructions: 118000001 cycles: 190945904 heartbeat IPC: 0.297523 cumulative IPC: 0.423846 (Simulation time: 1 hr 1 min 54 sec) 
Heartbeat CPU 0 instructions: 119000002 cycles: 192754549 heartbeat IPC: 0.552901 cumulative IPC: 0.425285 (Simulation time: 1 hr 2 min 20 sec) 
Heartbeat CPU 0 instructions: 120000000 cycles: 195309635 heartbeat IPC: 0.391375 cumulative IPC: 0.424759 (Simulation time: 1 hr 2 min 49 sec) 
Heartbeat CPU 0 instructions: 121000000 cycles: 198655221 heartbeat IPC: 0.298901 cumulative IPC: 0.422255 (Simulation time: 1 hr 3 min 21 sec) 
Heartbeat CPU 0 instructions: 122000000 cycles: 202009103 heartbeat IPC: 0.298162 cumulative IPC: 0.419828 (Simulation time: 1 hr 3 min 54 sec) 
Heartbeat CPU 0 instructions: 123000002 cycles: 203721539 heartbeat IPC: 0.583965 cumulative IPC: 0.421451 (Simulation time: 1 hr 4 min 23 sec) 
Heartbeat CPU 0 instructions: 124000000 cycles: 206375172 heartbeat IPC: 0.376841 cumulative IPC: 0.420778 (Simulation time: 1 hr 4 min 55 sec) 
Heartbeat CPU 0 instructions: 125000000 cycles: 209872261 heartbeat IPC: 0.285952 cumulative IPC: 0.418149 (Simulation time: 1 hr 5 min 32 sec) 
Heartbeat CPU 0 instructions: 126000001 cycles: 213085874 heartbeat IPC: 0.311177 cumulative IPC: 0.416266 (Simulation time: 1 hr 6 min 4 sec) 
Heartbeat CPU 0 instructions: 127000002 cycles: 214252900 heartbeat IPC: 0.85688 cumulative IPC: 0.419065 (Simulation time: 1 hr 6 min 32 sec) 
Heartbeat CPU 0 instructions: 128000000 cycles: 217614318 heartbeat IPC: 0.297493 cumulative IPC: 0.416881 (Simulation time: 1 hr 7 min 4 sec) 
Heartbeat CPU 0 instructions: 129000000 cycles: 220960951 heartbeat IPC: 0.298808 cumulative IPC: 0.414806 (Simulation time: 1 hr 7 min 36 sec) 
Heartbeat CPU 0 instructions: 130000001 cycles: 224133147 heartbeat IPC: 0.315239 cumulative IPC: 0.413175 (Simulation time: 1 hr 8 min 9 sec) 
Heartbeat CPU 0 instructions: 131000002 cycles: 225338642 heartbeat IPC: 0.829536 cumulative IPC: 0.415751 (Simulation time: 1 hr 8 min 34 sec) 
Heartbeat CPU 0 instructions: 132000000 cycles: 228680181 heartbeat IPC: 0.299263 cumulative IPC: 0.413787 (Simulation time: 1 hr 9 min 7 sec) 
Heartbeat CPU 0 instructions: 133000000 cycles: 232019183 heartbeat IPC: 0.299491 cumulative IPC: 0.411893 (Simulation time: 1 hr 9 min 39 sec) 
Heartbeat CPU 0 instructions: 134000000 cycles: 235066765 heartbeat IPC: 0.328129 cumulative IPC: 0.410645 (Simulation time: 1 hr 10 min 11 sec) 
Heartbeat CPU 0 instructions: 135000001 cycles: 238556539 heartbeat IPC: 0.286552 cumulative IPC: 0.408563 (Simulation time: 1 hr 10 min 47 sec) 
Heartbeat CPU 0 instructions: 136000000 cycles: 239600710 heartbeat IPC: 0.957697 cumulative IPC: 0.411306 (Simulation time: 1 hr 11 min 11 sec) 
Heartbeat CPU 0 instructions: 137000001 cycles: 240645895 heartbeat IPC: 0.956769 cumulative IPC: 0.414019 (Simulation time: 1 hr 11 min 33 sec) 
Heartbeat CPU 0 instructions: 138000001 cycles: 241690599 heartbeat IPC: 0.957209 cumulative IPC: 0.416706 (Simulation time: 1 hr 11 min 54 sec) 
Heartbeat CPU 0 instructions: 139000001 cycles: 242736130 heartbeat IPC: 0.956452 cumulative IPC: 0.419365 (Simulation time: 1 hr 12 min 17 sec) 
Heartbeat CPU 0 instructions: 140000000 cycles: 243782654 heartbeat IPC: 0.955543 cumulative IPC: 0.421996 (Simulation time: 1 hr 12 min 38 sec) 
Heartbeat CPU 0 instructions: 141000001 cycles: 244853089 heartbeat IPC: 0.934201 cumulative IPC: 0.424554 (Simulation time: 1 hr 13 min 1 sec) 
Heartbeat CPU 0 instructions: 142000002 cycles: 245897073 heartbeat IPC: 0.95787 cumulative IPC: 0.427139 (Simulation time: 1 hr 13 min 23 sec) 
Heartbeat CPU 0 instructions: 143000001 cycles: 246942227 heartbeat IPC: 0.956796 cumulative IPC: 0.429697 (Simulation time: 1 hr 13 min 45 sec) 
Heartbeat CPU 0 instructions: 144000000 cycles: 247986029 heartbeat IPC: 0.958035 cumulative IPC: 0.432232 (Simulation time: 1 hr 14 min 8 sec) 
Heartbeat CPU 0 instructions: 145000003 cycles: 249028758 heartbeat IPC: 0.959025 cumulative IPC: 0.434746 (Simulation time: 1 hr 14 min 31 sec) 
Heartbeat CPU 0 instructions: 146000001 cycles: 250070084 heartbeat IPC: 0.960312 cumulative IPC: 0.437239 (Simulation time: 1 hr 14 min 54 sec) 
Heartbeat CPU 0 instructions: 147000000 cycles: 251112231 heartbeat IPC: 0.959557 cumulative IPC: 0.439706 (Simulation time: 1 hr 15 min 17 sec) 
Heartbeat CPU 0 instructions: 148000000 cycles: 254466275 heartbeat IPC: 0.298148 cumulative IPC: 0.437586 (Simulation time: 1 hr 15 min 47 sec) 
Heartbeat CPU 0 instructions: 149000000 cycles: 257147222 heartbeat IPC: 0.373003 cumulative IPC: 0.436822 (Simulation time: 1 hr 16 min 13 sec) 
Heartbeat CPU 0 instructions: 150000000 cycles: 258828135 heartbeat IPC: 0.594915 cumulative IPC: 0.437986 (Simulation time: 1 hr 16 min 35 sec) 
Finished CPU 0 instructions: 100000002 cycles: 228317740 cummulative IPC: 0.437986 (Simulation time: 1 hr 16 min 35 sec) 

ChampSim completed all CPUs

Region of Interest Statistics

CPU 0 cummulative IPC: 0.437986 instructions: 100000002 cycles: 228317740
LLC TOTAL     ACCESS:    3408894  HIT:    1160631  MISS:    2248263
LLC LOAD      ACCESS:    1623002  HIT:    1099773  MISS:     523229
LLC RFO       ACCESS:       5352  HIT:       2356  MISS:       2996
LLC PREFETCH  ACCESS:    1763139  HIT:      47145  MISS:    1715994
LLC WRITEBACK ACCESS:      17401  HIT:      11357  MISS:       6044
OPTgen accesses: 38922
OPTgen hits: 32344
OPTgen hit rate: 83.0995


