
*** ChampSim Multicore Out-of-Order Simulator ***

Warmup Instructions: 50000000
Simulation Instructions: 100000000
Configuration: 2
Number of CPUs: 1
LLC sets: 2048
LLC ways: 16
Off-chip DRAM Channels: 1 Width: 64-bit Data Rate: 1600 MT/s

CPU 0 runs /datasets/cs240c-wi22-a00-public/data/Assignment2-gz/omnetpp_340B.trace.gz
CPU 0 L1D next line prefetcher
CPU 0 L2C IP-based stride prefetcher
Initialize Hawkeye state
Heartbeat CPU 0 instructions: 1000001 cycles: 576945 heartbeat IPC: 1.73327 cumulative IPC: 1.73327 (Simulation time: 0 hr 0 min 45 sec) 
Heartbeat CPU 0 instructions: 2000000 cycles: 1160881 heartbeat IPC: 1.71251 cumulative IPC: 1.72283 (Simulation time: 0 hr 1 min 29 sec) 
Heartbeat CPU 0 instructions: 3000001 cycles: 1758200 heartbeat IPC: 1.67415 cumulative IPC: 1.70629 (Simulation time: 0 hr 2 min 13 sec) 
Heartbeat CPU 0 instructions: 4000000 cycles: 2379255 heartbeat IPC: 1.61016 cumulative IPC: 1.6812 (Simulation time: 0 hr 2 min 59 sec) 
Heartbeat CPU 0 instructions: 5000002 cycles: 2954796 heartbeat IPC: 1.7375 cumulative IPC: 1.69216 (Simulation time: 0 hr 3 min 41 sec) 
Heartbeat CPU 0 instructions: 6000003 cycles: 3556247 heartbeat IPC: 1.66265 cumulative IPC: 1.68717 (Simulation time: 0 hr 4 min 28 sec) 
Heartbeat CPU 0 instructions: 7000003 cycles: 4205658 heartbeat IPC: 1.53986 cumulative IPC: 1.66443 (Simulation time: 0 hr 5 min 13 sec) 
Heartbeat CPU 0 instructions: 8000000 cycles: 4800169 heartbeat IPC: 1.68205 cumulative IPC: 1.66661 (Simulation time: 0 hr 5 min 58 sec) 
Heartbeat CPU 0 instructions: 9000002 cycles: 5433413 heartbeat IPC: 1.57917 cumulative IPC: 1.65642 (Simulation time: 0 hr 6 min 44 sec) 
Heartbeat CPU 0 instructions: 10000002 cycles: 6027986 heartbeat IPC: 1.68188 cumulative IPC: 1.65893 (Simulation time: 0 hr 7 min 28 sec) 
Heartbeat CPU 0 instructions: 11000003 cycles: 6627433 heartbeat IPC: 1.66821 cumulative IPC: 1.65977 (Simulation time: 0 hr 8 min 12 sec) 
Heartbeat CPU 0 instructions: 12000000 cycles: 7229888 heartbeat IPC: 1.65987 cumulative IPC: 1.65978 (Simulation time: 0 hr 8 min 53 sec) 
Heartbeat CPU 0 instructions: 13000002 cycles: 7833518 heartbeat IPC: 1.65665 cumulative IPC: 1.65954 (Simulation time: 0 hr 9 min 39 sec) 
Heartbeat CPU 0 instructions: 14000000 cycles: 8429347 heartbeat IPC: 1.67833 cumulative IPC: 1.66086 (Simulation time: 0 hr 10 min 22 sec) 
Heartbeat CPU 0 instructions: 15000001 cycles: 9021001 heartbeat IPC: 1.69018 cumulative IPC: 1.66279 (Simulation time: 0 hr 11 min 7 sec) 
Heartbeat CPU 0 instructions: 16000000 cycles: 9644182 heartbeat IPC: 1.60467 cumulative IPC: 1.65903 (Simulation time: 0 hr 11 min 52 sec) 
Heartbeat CPU 0 instructions: 17000000 cycles: 10250021 heartbeat IPC: 1.6506 cumulative IPC: 1.65853 (Simulation time: 0 hr 12 min 36 sec) 
Heartbeat CPU 0 instructions: 18000000 cycles: 10870387 heartbeat IPC: 1.61195 cumulative IPC: 1.65587 (Simulation time: 0 hr 13 min 22 sec) 
Heartbeat CPU 0 instructions: 19000000 cycles: 11502140 heartbeat IPC: 1.5829 cumulative IPC: 1.65187 (Simulation time: 0 hr 14 min 6 sec) 
Heartbeat CPU 0 instructions: 20000000 cycles: 12088392 heartbeat IPC: 1.70575 cumulative IPC: 1.65448 (Simulation time: 0 hr 14 min 49 sec) 
Heartbeat CPU 0 instructions: 21000000 cycles: 12685911 heartbeat IPC: 1.67359 cumulative IPC: 1.65538 (Simulation time: 0 hr 15 min 33 sec) 
Heartbeat CPU 0 instructions: 22000001 cycles: 13300444 heartbeat IPC: 1.62725 cumulative IPC: 1.65408 (Simulation time: 0 hr 16 min 17 sec) 
Heartbeat CPU 0 instructions: 23000001 cycles: 13922474 heartbeat IPC: 1.60764 cumulative IPC: 1.65201 (Simulation time: 0 hr 17 min 1 sec) 
Heartbeat CPU 0 instructions: 24000000 cycles: 14545477 heartbeat IPC: 1.60513 cumulative IPC: 1.65 (Simulation time: 0 hr 17 min 46 sec) 
Heartbeat CPU 0 instructions: 25000001 cycles: 15162473 heartbeat IPC: 1.62076 cumulative IPC: 1.64881 (Simulation time: 0 hr 18 min 30 sec) 
Heartbeat CPU 0 instructions: 26000001 cycles: 15753254 heartbeat IPC: 1.69267 cumulative IPC: 1.65045 (Simulation time: 0 hr 19 min 12 sec) 
Heartbeat CPU 0 instructions: 27000000 cycles: 16324019 heartbeat IPC: 1.75203 cumulative IPC: 1.654 (Simulation time: 0 hr 19 min 56 sec) 
Heartbeat CPU 0 instructions: 28000000 cycles: 16919465 heartbeat IPC: 1.67941 cumulative IPC: 1.6549 (Simulation time: 0 hr 20 min 42 sec) 
Heartbeat CPU 0 instructions: 29000003 cycles: 17543217 heartbeat IPC: 1.60321 cumulative IPC: 1.65306 (Simulation time: 0 hr 21 min 28 sec) 
Heartbeat CPU 0 instructions: 30000003 cycles: 18120339 heartbeat IPC: 1.73274 cumulative IPC: 1.6556 (Simulation time: 0 hr 22 min 13 sec) 
Heartbeat CPU 0 instructions: 31000001 cycles: 18729269 heartbeat IPC: 1.64222 cumulative IPC: 1.65516 (Simulation time: 0 hr 22 min 57 sec) 
Heartbeat CPU 0 instructions: 32000000 cycles: 19334645 heartbeat IPC: 1.65186 cumulative IPC: 1.65506 (Simulation time: 0 hr 23 min 41 sec) 
Heartbeat CPU 0 instructions: 33000001 cycles: 19914661 heartbeat IPC: 1.72409 cumulative IPC: 1.65707 (Simulation time: 0 hr 24 min 26 sec) 
Heartbeat CPU 0 instructions: 34000001 cycles: 20565577 heartbeat IPC: 1.5363 cumulative IPC: 1.65325 (Simulation time: 0 hr 25 min 11 sec) 
Heartbeat CPU 0 instructions: 35000002 cycles: 21145966 heartbeat IPC: 1.72298 cumulative IPC: 1.65516 (Simulation time: 0 hr 25 min 54 sec) 
Heartbeat CPU 0 instructions: 36000000 cycles: 21755419 heartbeat IPC: 1.64081 cumulative IPC: 1.65476 (Simulation time: 0 hr 26 min 40 sec) 
Heartbeat CPU 0 instructions: 37000002 cycles: 22394523 heartbeat IPC: 1.56469 cumulative IPC: 1.65219 (Simulation time: 0 hr 27 min 25 sec) 
Heartbeat CPU 0 instructions: 38000000 cycles: 22977177 heartbeat IPC: 1.71628 cumulative IPC: 1.65382 (Simulation time: 0 hr 28 min 8 sec) 
Heartbeat CPU 0 instructions: 39000001 cycles: 23645791 heartbeat IPC: 1.49563 cumulative IPC: 1.64934 (Simulation time: 0 hr 28 min 53 sec) 
Heartbeat CPU 0 instructions: 40000000 cycles: 24235639 heartbeat IPC: 1.69535 cumulative IPC: 1.65046 (Simulation time: 0 hr 29 min 35 sec) 
Heartbeat CPU 0 instructions: 41000000 cycles: 24824010 heartbeat IPC: 1.69961 cumulative IPC: 1.65163 (Simulation time: 0 hr 30 min 21 sec) 
Heartbeat CPU 0 instructions: 42000001 cycles: 25451780 heartbeat IPC: 1.59294 cumulative IPC: 1.65018 (Simulation time: 0 hr 31 min 4 sec) 
Heartbeat CPU 0 instructions: 43000003 cycles: 26057658 heartbeat IPC: 1.6505 cumulative IPC: 1.65019 (Simulation time: 0 hr 31 min 47 sec) 
Heartbeat CPU 0 instructions: 44000000 cycles: 26611227 heartbeat IPC: 1.80645 cumulative IPC: 1.65344 (Simulation time: 0 hr 32 min 33 sec) 
Heartbeat CPU 0 instructions: 45000003 cycles: 27170640 heartbeat IPC: 1.78759 cumulative IPC: 1.6562 (Simulation time: 0 hr 33 min 15 sec) 
Heartbeat CPU 0 instructions: 46000001 cycles: 27785856 heartbeat IPC: 1.62544 cumulative IPC: 1.65552 (Simulation time: 0 hr 33 min 59 sec) 
Heartbeat CPU 0 instructions: 47000000 cycles: 28359317 heartbeat IPC: 1.7438 cumulative IPC: 1.6573 (Simulation time: 0 hr 34 min 41 sec) 
Heartbeat CPU 0 instructions: 48000000 cycles: 28961337 heartbeat IPC: 1.66107 cumulative IPC: 1.65738 (Simulation time: 0 hr 35 min 25 sec) 
Heartbeat CPU 0 instructions: 49000000 cycles: 29540984 heartbeat IPC: 1.72519 cumulative IPC: 1.65871 (Simulation time: 0 hr 36 min 9 sec) 
Heartbeat CPU 0 instructions: 50000000 cycles: 30184315 heartbeat IPC: 1.55441 cumulative IPC: 1.65649 (Simulation time: 0 hr 36 min 52 sec) 

Warmup complete CPU 0 instructions: 50000004 cycles: 30184316 (Simulation time: 0 hr 36 min 52 sec) 

Heartbeat CPU 0 instructions: 51000003 cycles: 33936468 heartbeat IPC: 0.266514 cumulative IPC: 0.266513 (Simulation time: 0 hr 37 min 49 sec) 
Heartbeat CPU 0 instructions: 52000000 cycles: 37935885 heartbeat IPC: 0.250036 cumulative IPC: 0.258012 (Simulation time: 0 hr 38 min 50 sec) 
Heartbeat CPU 0 instructions: 53000000 cycles: 42500012 heartbeat IPC: 0.2191 cumulative IPC: 0.243591 (Simulation time: 0 hr 39 min 51 sec) 
Heartbeat CPU 0 instructions: 54000002 cycles: 46582488 heartbeat IPC: 0.24495 cumulative IPC: 0.24393 (Simulation time: 0 hr 40 min 55 sec) 
Heartbeat CPU 0 instructions: 55000001 cycles: 50415978 heartbeat IPC: 0.260859 cumulative IPC: 0.247137 (Simulation time: 0 hr 41 min 52 sec) 
Heartbeat CPU 0 instructions: 56000000 cycles: 54683550 heartbeat IPC: 0.234325 cumulative IPC: 0.244905 (Simulation time: 0 hr 42 min 38 sec) 
Heartbeat CPU 0 instructions: 57000001 cycles: 58762079 heartbeat IPC: 0.245187 cumulative IPC: 0.244946 (Simulation time: 0 hr 43 min 34 sec) 
Heartbeat CPU 0 instructions: 58000000 cycles: 62005497 heartbeat IPC: 0.308316 cumulative IPC: 0.251405 (Simulation time: 0 hr 44 min 23 sec) 
Heartbeat CPU 0 instructions: 59000003 cycles: 65929396 heartbeat IPC: 0.254849 cumulative IPC: 0.251783 (Simulation time: 0 hr 45 min 12 sec) 
Heartbeat CPU 0 instructions: 60000000 cycles: 70363630 heartbeat IPC: 0.225517 cumulative IPC: 0.248884 (Simulation time: 0 hr 46 min 2 sec) 
Heartbeat CPU 0 instructions: 61000001 cycles: 74754281 heartbeat IPC: 0.227757 cumulative IPC: 0.246803 (Simulation time: 0 hr 46 min 55 sec) 
Heartbeat CPU 0 instructions: 62000000 cycles: 79153889 heartbeat IPC: 0.227293 cumulative IPC: 0.24505 (Simulation time: 0 hr 47 min 41 sec) 
Heartbeat CPU 0 instructions: 63000001 cycles: 82832909 heartbeat IPC: 0.271812 cumulative IPC: 0.24692 (Simulation time: 0 hr 48 min 24 sec) 
Heartbeat CPU 0 instructions: 64000000 cycles: 86630064 heartbeat IPC: 0.263355 cumulative IPC: 0.248026 (Simulation time: 0 hr 49 min 6 sec) 
Heartbeat CPU 0 instructions: 65000001 cycles: 90032621 heartbeat IPC: 0.293897 cumulative IPC: 0.250634 (Simulation time: 0 hr 49 min 50 sec) 
Heartbeat CPU 0 instructions: 66000002 cycles: 94056142 heartbeat IPC: 0.248539 cumulative IPC: 0.250502 (Simulation time: 0 hr 50 min 35 sec) 
Heartbeat CPU 0 instructions: 67000002 cycles: 97779234 heartbeat IPC: 0.268594 cumulative IPC: 0.251498 (Simulation time: 0 hr 51 min 22 sec) 
Heartbeat CPU 0 instructions: 68000000 cycles: 101630780 heartbeat IPC: 0.259635 cumulative IPC: 0.251937 (Simulation time: 0 hr 52 min 7 sec) 
Heartbeat CPU 0 instructions: 69000000 cycles: 105694537 heartbeat IPC: 0.246078 cumulative IPC: 0.251622 (Simulation time: 0 hr 53 min 1 sec) 
Heartbeat CPU 0 instructions: 70000001 cycles: 109434431 heartbeat IPC: 0.267388 cumulative IPC: 0.252366 (Simulation time: 0 hr 53 min 44 sec) 
Heartbeat CPU 0 instructions: 71000003 cycles: 113398791 heartbeat IPC: 0.252248 cumulative IPC: 0.25236 (Simulation time: 0 hr 54 min 33 sec) 
Heartbeat CPU 0 instructions: 72000000 cycles: 117932782 heartbeat IPC: 0.220556 cumulative IPC: 0.250717 (Simulation time: 0 hr 55 min 23 sec) 
Heartbeat CPU 0 instructions: 73000002 cycles: 121972364 heartbeat IPC: 0.247551 cumulative IPC: 0.250577 (Simulation time: 0 hr 56 min 6 sec) 
Heartbeat CPU 0 instructions: 74000000 cycles: 125866797 heartbeat IPC: 0.256776 cumulative IPC: 0.25083 (Simulation time: 0 hr 56 min 54 sec) 
Heartbeat CPU 0 instructions: 75000003 cycles: 129993759 heartbeat IPC: 0.24231 cumulative IPC: 0.250477 (Simulation time: 0 hr 57 min 45 sec) 
Heartbeat CPU 0 instructions: 76000000 cycles: 133918064 heartbeat IPC: 0.254821 cumulative IPC: 0.250642 (Simulation time: 0 hr 58 min 36 sec) 
Heartbeat CPU 0 instructions: 77000002 cycles: 138690791 heartbeat IPC: 0.209524 cumulative IPC: 0.248833 (Simulation time: 0 hr 59 min 26 sec) 
Heartbeat CPU 0 instructions: 78000003 cycles: 142532898 heartbeat IPC: 0.260274 cumulative IPC: 0.249224 (Simulation time: 1 hr 0 min 11 sec) 
Heartbeat CPU 0 instructions: 79000002 cycles: 146399124 heartbeat IPC: 0.25865 cumulative IPC: 0.249538 (Simulation time: 1 hr 0 min 58 sec) 
Heartbeat CPU 0 instructions: 80000000 cycles: 150225546 heartbeat IPC: 0.26134 cumulative IPC: 0.249914 (Simulation time: 1 hr 1 min 41 sec) 
Heartbeat CPU 0 instructions: 81000002 cycles: 154309057 heartbeat IPC: 0.244888 cumulative IPC: 0.249749 (Simulation time: 1 hr 2 min 29 sec) 
Heartbeat CPU 0 instructions: 82000000 cycles: 158849716 heartbeat IPC: 0.220232 cumulative IPC: 0.248707 (Simulation time: 1 hr 3 min 16 sec) 
Heartbeat CPU 0 instructions: 83000002 cycles: 162543889 heartbeat IPC: 0.270697 cumulative IPC: 0.249321 (Simulation time: 1 hr 4 min 3 sec) 
Heartbeat CPU 0 instructions: 84000000 cycles: 166445317 heartbeat IPC: 0.256316 cumulative IPC: 0.249521 (Simulation time: 1 hr 4 min 50 sec) 
Heartbeat CPU 0 instructions: 85000000 cycles: 170281930 heartbeat IPC: 0.260647 cumulative IPC: 0.249826 (Simulation time: 1 hr 5 min 38 sec) 
Heartbeat CPU 0 instructions: 86000000 cycles: 174219009 heartbeat IPC: 0.253995 cumulative IPC: 0.24994 (Simulation time: 1 hr 6 min 22 sec) 
Heartbeat CPU 0 instructions: 87000001 cycles: 177948905 heartbeat IPC: 0.268104 cumulative IPC: 0.250398 (Simulation time: 1 hr 7 min 6 sec) 
Heartbeat CPU 0 instructions: 88000000 cycles: 181801525 heartbeat IPC: 0.259563 cumulative IPC: 0.250631 (Simulation time: 1 hr 7 min 50 sec) 
Heartbeat CPU 0 instructions: 89000003 cycles: 185342606 heartbeat IPC: 0.2824 cumulative IPC: 0.251356 (Simulation time: 1 hr 8 min 32 sec) 
Heartbeat CPU 0 instructions: 90000000 cycles: 189245693 heartbeat IPC: 0.256207 cumulative IPC: 0.251475 (Simulation time: 1 hr 9 min 18 sec) 
Heartbeat CPU 0 instructions: 91000001 cycles: 192971553 heartbeat IPC: 0.268395 cumulative IPC: 0.251862 (Simulation time: 1 hr 10 min 2 sec) 
Heartbeat CPU 0 instructions: 92000000 cycles: 197037378 heartbeat IPC: 0.245952 cumulative IPC: 0.251718 (Simulation time: 1 hr 10 min 49 sec) 
Heartbeat CPU 0 instructions: 93000001 cycles: 201444878 heartbeat IPC: 0.226886 cumulative IPC: 0.251079 (Simulation time: 1 hr 11 min 36 sec) 
Heartbeat CPU 0 instructions: 94000001 cycles: 205320076 heartbeat IPC: 0.258051 cumulative IPC: 0.251234 (Simulation time: 1 hr 12 min 19 sec) 
Heartbeat CPU 0 instructions: 95000000 cycles: 209379777 heartbeat IPC: 0.246323 cumulative IPC: 0.251122 (Simulation time: 1 hr 13 min 2 sec) 
Heartbeat CPU 0 instructions: 96000000 cycles: 213778844 heartbeat IPC: 0.227321 cumulative IPC: 0.250552 (Simulation time: 1 hr 13 min 44 sec) 
Heartbeat CPU 0 instructions: 97000000 cycles: 217444162 heartbeat IPC: 0.272828 cumulative IPC: 0.250988 (Simulation time: 1 hr 14 min 23 sec) 
Heartbeat CPU 0 instructions: 98000000 cycles: 221754970 heartbeat IPC: 0.231975 cumulative IPC: 0.25056 (Simulation time: 1 hr 15 min 5 sec) 
Heartbeat CPU 0 instructions: 99000000 cycles: 226314415 heartbeat IPC: 0.219325 cumulative IPC: 0.249834 (Simulation time: 1 hr 15 min 48 sec) 
Heartbeat CPU 0 instructions: 100000000 cycles: 230366251 heartbeat IPC: 0.246802 cumulative IPC: 0.249773 (Simulation time: 1 hr 16 min 26 sec) 
Heartbeat CPU 0 instructions: 101000000 cycles: 234266192 heartbeat IPC: 0.256414 cumulative IPC: 0.2499 (Simulation time: 1 hr 17 min 8 sec) 
Heartbeat CPU 0 instructions: 102000003 cycles: 238512735 heartbeat IPC: 0.235486 cumulative IPC: 0.249606 (Simulation time: 1 hr 17 min 49 sec) 
Heartbeat CPU 0 instructions: 103000000 cycles: 242306754 heartbeat IPC: 0.263572 cumulative IPC: 0.249856 (Simulation time: 1 hr 18 min 29 sec) 
Heartbeat CPU 0 instructions: 104000000 cycles: 246096970 heartbeat IPC: 0.263837 cumulative IPC: 0.250101 (Simulation time: 1 hr 19 min 7 sec) 
Heartbeat CPU 0 instructions: 105000003 cycles: 250220449 heartbeat IPC: 0.242514 cumulative IPC: 0.249959 (Simulation time: 1 hr 19 min 43 sec) 
Heartbeat CPU 0 instructions: 106000001 cycles: 253875049 heartbeat IPC: 0.273627 cumulative IPC: 0.250346 (Simulation time: 1 hr 20 min 14 sec) 
Heartbeat CPU 0 instructions: 107000000 cycles: 258057078 heartbeat IPC: 0.239118 cumulative IPC: 0.25014 (Simulation time: 1 hr 20 min 48 sec) 
Heartbeat CPU 0 instructions: 108000000 cycles: 262053734 heartbeat IPC: 0.250209 cumulative IPC: 0.250141 (Simulation time: 1 hr 21 min 23 sec) 
Heartbeat CPU 0 instructions: 109000000 cycles: 266508139 heartbeat IPC: 0.224497 cumulative IPC: 0.249657 (Simulation time: 1 hr 21 min 56 sec) 
Heartbeat CPU 0 instructions: 110000000 cycles: 270140799 heartbeat IPC: 0.27528 cumulative IPC: 0.250045 (Simulation time: 1 hr 22 min 33 sec) 
Heartbeat CPU 0 instructions: 111000002 cycles: 274609208 heartbeat IPC: 0.223794 cumulative IPC: 0.249565 (Simulation time: 1 hr 23 min 12 sec) 
Heartbeat CPU 0 instructions: 112000000 cycles: 278523579 heartbeat IPC: 0.255468 cumulative IPC: 0.249658 (Simulation time: 1 hr 23 min 48 sec) 
Heartbeat CPU 0 instructions: 113000002 cycles: 282112147 heartbeat IPC: 0.278663 cumulative IPC: 0.250072 (Simulation time: 1 hr 24 min 25 sec) 
Heartbeat CPU 0 instructions: 114000000 cycles: 285578655 heartbeat IPC: 0.288474 cumulative IPC: 0.250593 (Simulation time: 1 hr 24 min 57 sec) 
Heartbeat CPU 0 instructions: 115000000 cycles: 289310827 heartbeat IPC: 0.26794 cumulative IPC: 0.250843 (Simulation time: 1 hr 25 min 32 sec) 
Heartbeat CPU 0 instructions: 116000000 cycles: 293488331 heartbeat IPC: 0.239377 cumulative IPC: 0.250661 (Simulation time: 1 hr 26 min 6 sec) 
Heartbeat CPU 0 instructions: 117000000 cycles: 297267203 heartbeat IPC: 0.264629 cumulative IPC: 0.250858 (Simulation time: 1 hr 26 min 37 sec) 
Heartbeat CPU 0 instructions: 118000000 cycles: 300968177 heartbeat IPC: 0.270199 cumulative IPC: 0.251123 (Simulation time: 1 hr 27 min 7 sec) 
Heartbeat CPU 0 instructions: 119000001 cycles: 304791159 heartbeat IPC: 0.261576 cumulative IPC: 0.251268 (Simulation time: 1 hr 27 min 37 sec) 
Heartbeat CPU 0 instructions: 120000000 cycles: 308492030 heartbeat IPC: 0.270206 cumulative IPC: 0.25152 (Simulation time: 1 hr 28 min 6 sec) 
Heartbeat CPU 0 instructions: 121000001 cycles: 312025174 heartbeat IPC: 0.283034 cumulative IPC: 0.251915 (Simulation time: 1 hr 28 min 35 sec) 
Heartbeat CPU 0 instructions: 122000001 cycles: 315679165 heartbeat IPC: 0.273673 cumulative IPC: 0.252194 (Simulation time: 1 hr 29 min 3 sec) 
Heartbeat CPU 0 instructions: 123000003 cycles: 319323464 heartbeat IPC: 0.274402 cumulative IPC: 0.252474 (Simulation time: 1 hr 29 min 28 sec) 
Heartbeat CPU 0 instructions: 124000000 cycles: 322995607 heartbeat IPC: 0.27232 cumulative IPC: 0.252722 (Simulation time: 1 hr 29 min 54 sec) 
Heartbeat CPU 0 instructions: 125000001 cycles: 326714381 heartbeat IPC: 0.268906 cumulative IPC: 0.252925 (Simulation time: 1 hr 30 min 18 sec) 
Heartbeat CPU 0 instructions: 126000003 cycles: 330300645 heartbeat IPC: 0.278842 cumulative IPC: 0.253235 (Simulation time: 1 hr 30 min 42 sec) 
Heartbeat CPU 0 instructions: 127000001 cycles: 333810933 heartbeat IPC: 0.284876 cumulative IPC: 0.253601 (Simulation time: 1 hr 31 min 4 sec) 
Heartbeat CPU 0 instructions: 128000000 cycles: 337367475 heartbeat IPC: 0.281172 cumulative IPC: 0.25392 (Simulation time: 1 hr 31 min 24 sec) 
Heartbeat CPU 0 instructions: 129000001 cycles: 340654363 heartbeat IPC: 0.304239 cumulative IPC: 0.254453 (Simulation time: 1 hr 31 min 43 sec) 
Heartbeat CPU 0 instructions: 130000000 cycles: 344277533 heartbeat IPC: 0.276001 cumulative IPC: 0.254701 (Simulation time: 1 hr 32 min 3 sec) 
Heartbeat CPU 0 instructions: 131000000 cycles: 347935608 heartbeat IPC: 0.273368 cumulative IPC: 0.254916 (Simulation time: 1 hr 32 min 21 sec) 
Heartbeat CPU 0 instructions: 132000000 cycles: 351761101 heartbeat IPC: 0.261404 cumulative IPC: 0.254994 (Simulation time: 1 hr 32 min 39 sec) 
Heartbeat CPU 0 instructions: 133000003 cycles: 355619107 heartbeat IPC: 0.259202 cumulative IPC: 0.255043 (Simulation time: 1 hr 32 min 55 sec) 
Heartbeat CPU 0 instructions: 134000000 cycles: 359640395 heartbeat IPC: 0.248676 cumulative IPC: 0.254966 (Simulation time: 1 hr 33 min 11 sec) 
Heartbeat CPU 0 instructions: 135000001 cycles: 363486705 heartbeat IPC: 0.25999 cumulative IPC: 0.255024 (Simulation time: 1 hr 33 min 25 sec) 
Heartbeat CPU 0 instructions: 136000000 cycles: 367304785 heartbeat IPC: 0.261911 cumulative IPC: 0.255102 (Simulation time: 1 hr 33 min 39 sec) 
Heartbeat CPU 0 instructions: 137000000 cycles: 371147382 heartbeat IPC: 0.260241 cumulative IPC: 0.25516 (Simulation time: 1 hr 33 min 51 sec) 
Heartbeat CPU 0 instructions: 138000000 cycles: 374921798 heartbeat IPC: 0.264942 cumulative IPC: 0.255267 (Simulation time: 1 hr 34 min 1 sec) 
Heartbeat CPU 0 instructions: 139000000 cycles: 378974127 heartbeat IPC: 0.246772 cumulative IPC: 0.255168 (Simulation time: 1 hr 34 min 10 sec) 
Heartbeat CPU 0 instructions: 140000000 cycles: 382471938 heartbeat IPC: 0.285893 cumulative IPC: 0.255473 (Simulation time: 1 hr 34 min 19 sec) 
Heartbeat CPU 0 instructions: 141000001 cycles: 386745972 heartbeat IPC: 0.233971 cumulative IPC: 0.255215 (Simulation time: 1 hr 34 min 27 sec) 
Heartbeat CPU 0 instructions: 142000000 cycles: 390742194 heartbeat IPC: 0.250236 cumulative IPC: 0.25516 (Simulation time: 1 hr 34 min 34 sec) 
Heartbeat CPU 0 instructions: 143000000 cycles: 394851753 heartbeat IPC: 0.243335 cumulative IPC: 0.255027 (Simulation time: 1 hr 34 min 42 sec) 
Heartbeat CPU 0 instructions: 144000000 cycles: 398873099 heartbeat IPC: 0.248673 cumulative IPC: 0.254958 (Simulation time: 1 hr 34 min 50 sec) 
Heartbeat CPU 0 instructions: 145000001 cycles: 402230352 heartbeat IPC: 0.297863 cumulative IPC: 0.255345 (Simulation time: 1 hr 34 min 57 sec) 
Heartbeat CPU 0 instructions: 146000001 cycles: 406436940 heartbeat IPC: 0.237722 cumulative IPC: 0.255148 (Simulation time: 1 hr 35 min 4 sec) 
Heartbeat CPU 0 instructions: 147000002 cycles: 410610110 heartbeat IPC: 0.239626 cumulative IPC: 0.254977 (Simulation time: 1 hr 35 min 11 sec) 
Heartbeat CPU 0 instructions: 148000000 cycles: 414378279 heartbeat IPC: 0.26538 cumulative IPC: 0.255079 (Simulation time: 1 hr 35 min 18 sec) 
Heartbeat CPU 0 instructions: 149000000 cycles: 418124870 heartbeat IPC: 0.266909 cumulative IPC: 0.255194 (Simulation time: 1 hr 35 min 25 sec) 
Heartbeat CPU 0 instructions: 150000000 cycles: 421356060 heartbeat IPC: 0.309483 cumulative IPC: 0.255642 (Simulation time: 1 hr 35 min 31 sec) 
Finished CPU 0 instructions: 100000000 cycles: 391171745 cummulative IPC: 0.255642 (Simulation time: 1 hr 35 min 31 sec) 

ChampSim completed all CPUs

Region of Interest Statistics

CPU 0 cummulative IPC: 0.255642 instructions: 100000000 cycles: 391171745
LLC TOTAL     ACCESS:    4288113  HIT:    1584578  MISS:    2703535
LLC LOAD      ACCESS:    1518797  HIT:     446320  MISS:    1072477
LLC RFO       ACCESS:     246722  HIT:     102517  MISS:     144205
LLC PREFETCH  ACCESS:    1525043  HIT:     326203  MISS:    1198840
LLC WRITEBACK ACCESS:     997551  HIT:     709538  MISS:     288013
OPTgen accesses: 39540
OPTgen hits: 22871
OPTgen hit rate: 57.8427


