
*** ChampSim Multicore Out-of-Order Simulator ***

Warmup Instructions: 50000000
Simulation Instructions: 100000000
Configuration: 2
Number of CPUs: 1
LLC sets: 2048
LLC ways: 16
Off-chip DRAM Channels: 1 Width: 64-bit Data Rate: 1600 MT/s

CPU 0 runs /datasets/cs240c-wi22-a00-public/data/Assignment2-gz/astar_313B.trace.gz
CPU 0 L1D next line prefetcher
CPU 0 L2C IP-based stride prefetcher
Initialize Hawkeye state
Heartbeat CPU 0 instructions: 1000001 cycles: 675680 heartbeat IPC: 1.47999 cumulative IPC: 1.47999 (Simulation time: 0 hr 1 min 0 sec) 
Heartbeat CPU 0 instructions: 2000003 cycles: 1263000 heartbeat IPC: 1.70265 cumulative IPC: 1.58353 (Simulation time: 0 hr 2 min 3 sec) 
Heartbeat CPU 0 instructions: 3000003 cycles: 1936882 heartbeat IPC: 1.48394 cumulative IPC: 1.54888 (Simulation time: 0 hr 3 min 6 sec) 
Heartbeat CPU 0 instructions: 4000000 cycles: 2610208 heartbeat IPC: 1.48516 cumulative IPC: 1.53244 (Simulation time: 0 hr 4 min 12 sec) 
Heartbeat CPU 0 instructions: 5000002 cycles: 3284161 heartbeat IPC: 1.48379 cumulative IPC: 1.52246 (Simulation time: 0 hr 5 min 14 sec) 
Heartbeat CPU 0 instructions: 6000001 cycles: 3871486 heartbeat IPC: 1.70263 cumulative IPC: 1.54979 (Simulation time: 0 hr 6 min 14 sec) 
Heartbeat CPU 0 instructions: 7000001 cycles: 4440579 heartbeat IPC: 1.75718 cumulative IPC: 1.57637 (Simulation time: 0 hr 7 min 17 sec) 
Heartbeat CPU 0 instructions: 8000000 cycles: 4992381 heartbeat IPC: 1.81224 cumulative IPC: 1.60244 (Simulation time: 0 hr 8 min 19 sec) 
Heartbeat CPU 0 instructions: 9000001 cycles: 5553826 heartbeat IPC: 1.78112 cumulative IPC: 1.6205 (Simulation time: 0 hr 9 min 22 sec) 
Heartbeat CPU 0 instructions: 10000002 cycles: 6228494 heartbeat IPC: 1.48221 cumulative IPC: 1.60552 (Simulation time: 0 hr 10 min 28 sec) 
Heartbeat CPU 0 instructions: 11000000 cycles: 6903975 heartbeat IPC: 1.48042 cumulative IPC: 1.59329 (Simulation time: 0 hr 11 min 29 sec) 
Heartbeat CPU 0 instructions: 12000000 cycles: 7573493 heartbeat IPC: 1.49361 cumulative IPC: 1.58447 (Simulation time: 0 hr 12 min 31 sec) 
Heartbeat CPU 0 instructions: 13000003 cycles: 8166097 heartbeat IPC: 1.68747 cumulative IPC: 1.59195 (Simulation time: 0 hr 13 min 43 sec) 
Heartbeat CPU 0 instructions: 14000002 cycles: 8838292 heartbeat IPC: 1.48766 cumulative IPC: 1.58402 (Simulation time: 0 hr 14 min 47 sec) 
Heartbeat CPU 0 instructions: 15000000 cycles: 9512099 heartbeat IPC: 1.4841 cumulative IPC: 1.57694 (Simulation time: 0 hr 15 min 49 sec) 
Heartbeat CPU 0 instructions: 16000000 cycles: 10185991 heartbeat IPC: 1.48392 cumulative IPC: 1.57078 (Simulation time: 0 hr 16 min 51 sec) 
Heartbeat CPU 0 instructions: 17000001 cycles: 10859554 heartbeat IPC: 1.48464 cumulative IPC: 1.56544 (Simulation time: 0 hr 17 min 52 sec) 
Heartbeat CPU 0 instructions: 18000000 cycles: 11445107 heartbeat IPC: 1.70779 cumulative IPC: 1.57272 (Simulation time: 0 hr 18 min 53 sec) 
Heartbeat CPU 0 instructions: 19000000 cycles: 12118947 heartbeat IPC: 1.48403 cumulative IPC: 1.56779 (Simulation time: 0 hr 20 min 0 sec) 
Heartbeat CPU 0 instructions: 20000000 cycles: 12792898 heartbeat IPC: 1.48379 cumulative IPC: 1.56337 (Simulation time: 0 hr 21 min 2 sec) 
Heartbeat CPU 0 instructions: 21000001 cycles: 13419743 heartbeat IPC: 1.59529 cumulative IPC: 1.56486 (Simulation time: 0 hr 22 min 6 sec) 
Heartbeat CPU 0 instructions: 22000001 cycles: 14055130 heartbeat IPC: 1.57384 cumulative IPC: 1.56526 (Simulation time: 0 hr 23 min 8 sec) 
Heartbeat CPU 0 instructions: 23000001 cycles: 14728265 heartbeat IPC: 1.48559 cumulative IPC: 1.56162 (Simulation time: 0 hr 24 min 11 sec) 
Heartbeat CPU 0 instructions: 24000000 cycles: 15382861 heartbeat IPC: 1.52766 cumulative IPC: 1.56018 (Simulation time: 0 hr 25 min 15 sec) 
Heartbeat CPU 0 instructions: 25000001 cycles: 15988292 heartbeat IPC: 1.65172 cumulative IPC: 1.56364 (Simulation time: 0 hr 26 min 20 sec) 
Heartbeat CPU 0 instructions: 26000002 cycles: 16664772 heartbeat IPC: 1.47824 cumulative IPC: 1.56018 (Simulation time: 0 hr 27 min 25 sec) 
Heartbeat CPU 0 instructions: 27000002 cycles: 17255586 heartbeat IPC: 1.69258 cumulative IPC: 1.56471 (Simulation time: 0 hr 28 min 27 sec) 
Heartbeat CPU 0 instructions: 28000000 cycles: 17930160 heartbeat IPC: 1.48241 cumulative IPC: 1.56161 (Simulation time: 0 hr 29 min 37 sec) 
Heartbeat CPU 0 instructions: 29000001 cycles: 18518197 heartbeat IPC: 1.70057 cumulative IPC: 1.56603 (Simulation time: 0 hr 30 min 41 sec) 
Heartbeat CPU 0 instructions: 30000002 cycles: 19191684 heartbeat IPC: 1.48481 cumulative IPC: 1.56318 (Simulation time: 0 hr 31 min 44 sec) 
Heartbeat CPU 0 instructions: 31000002 cycles: 19866743 heartbeat IPC: 1.48135 cumulative IPC: 1.5604 (Simulation time: 0 hr 32 min 52 sec) 
Heartbeat CPU 0 instructions: 32000000 cycles: 20541815 heartbeat IPC: 1.48132 cumulative IPC: 1.5578 (Simulation time: 0 hr 33 min 55 sec) 
Heartbeat CPU 0 instructions: 33000003 cycles: 21216790 heartbeat IPC: 1.48154 cumulative IPC: 1.55537 (Simulation time: 0 hr 35 min 1 sec) 
Heartbeat CPU 0 instructions: 34000000 cycles: 21802976 heartbeat IPC: 1.70594 cumulative IPC: 1.55942 (Simulation time: 0 hr 36 min 2 sec) 
Heartbeat CPU 0 instructions: 35000000 cycles: 22477019 heartbeat IPC: 1.48358 cumulative IPC: 1.55715 (Simulation time: 0 hr 36 min 58 sec) 
Heartbeat CPU 0 instructions: 36000000 cycles: 23151014 heartbeat IPC: 1.48369 cumulative IPC: 1.55501 (Simulation time: 0 hr 37 min 53 sec) 
Heartbeat CPU 0 instructions: 37000002 cycles: 23738636 heartbeat IPC: 1.70178 cumulative IPC: 1.55864 (Simulation time: 0 hr 38 min 45 sec) 
Heartbeat CPU 0 instructions: 38000000 cycles: 24411374 heartbeat IPC: 1.48646 cumulative IPC: 1.55665 (Simulation time: 0 hr 39 min 38 sec) 
Heartbeat CPU 0 instructions: 39000003 cycles: 25000004 heartbeat IPC: 1.69887 cumulative IPC: 1.56 (Simulation time: 0 hr 40 min 28 sec) 
Heartbeat CPU 0 instructions: 40000000 cycles: 25588837 heartbeat IPC: 1.69827 cumulative IPC: 1.56318 (Simulation time: 0 hr 41 min 13 sec) 
Heartbeat CPU 0 instructions: 41000001 cycles: 26263515 heartbeat IPC: 1.48219 cumulative IPC: 1.5611 (Simulation time: 0 hr 41 min 59 sec) 
Heartbeat CPU 0 instructions: 42000003 cycles: 26940850 heartbeat IPC: 1.47638 cumulative IPC: 1.55897 (Simulation time: 0 hr 42 min 40 sec) 
Heartbeat CPU 0 instructions: 43000003 cycles: 27533985 heartbeat IPC: 1.68596 cumulative IPC: 1.56171 (Simulation time: 0 hr 43 min 28 sec) 
Heartbeat CPU 0 instructions: 44000000 cycles: 28201959 heartbeat IPC: 1.49706 cumulative IPC: 1.56018 (Simulation time: 0 hr 44 min 7 sec) 
Heartbeat CPU 0 instructions: 45000002 cycles: 28874392 heartbeat IPC: 1.48714 cumulative IPC: 1.55847 (Simulation time: 0 hr 44 min 48 sec) 
Heartbeat CPU 0 instructions: 46000002 cycles: 29547415 heartbeat IPC: 1.48583 cumulative IPC: 1.55682 (Simulation time: 0 hr 45 min 27 sec) 
Heartbeat CPU 0 instructions: 47000002 cycles: 30218900 heartbeat IPC: 1.48924 cumulative IPC: 1.55532 (Simulation time: 0 hr 46 min 12 sec) 
Heartbeat CPU 0 instructions: 48000000 cycles: 30807692 heartbeat IPC: 1.69839 cumulative IPC: 1.55805 (Simulation time: 0 hr 46 min 49 sec) 
Heartbeat CPU 0 instructions: 49000000 cycles: 31480317 heartbeat IPC: 1.48671 cumulative IPC: 1.55653 (Simulation time: 0 hr 47 min 36 sec) 
Heartbeat CPU 0 instructions: 50000000 cycles: 32152752 heartbeat IPC: 1.48713 cumulative IPC: 1.55508 (Simulation time: 0 hr 48 min 17 sec) 

Warmup complete CPU 0 instructions: 50000001 cycles: 32152753 (Simulation time: 0 hr 48 min 17 sec) 

Heartbeat CPU 0 instructions: 51000000 cycles: 38833013 heartbeat IPC: 0.149695 cumulative IPC: 0.149695 (Simulation time: 0 hr 49 min 4 sec) 
Heartbeat CPU 0 instructions: 52000000 cycles: 47184250 heartbeat IPC: 0.119743 cumulative IPC: 0.133054 (Simulation time: 0 hr 49 min 52 sec) 
Heartbeat CPU 0 instructions: 53000000 cycles: 53910832 heartbeat IPC: 0.148664 cumulative IPC: 0.13788 (Simulation time: 0 hr 50 min 35 sec) 
Heartbeat CPU 0 instructions: 54000000 cycles: 61707642 heartbeat IPC: 0.128258 cumulative IPC: 0.135341 (Simulation time: 0 hr 51 min 18 sec) 
Heartbeat CPU 0 instructions: 55000001 cycles: 69956103 heartbeat IPC: 0.121235 cumulative IPC: 0.132263 (Simulation time: 0 hr 52 min 1 sec) 
Heartbeat CPU 0 instructions: 56000000 cycles: 79771581 heartbeat IPC: 0.10188 cumulative IPC: 0.126001 (Simulation time: 0 hr 52 min 54 sec) 
Heartbeat CPU 0 instructions: 57000000 cycles: 85956880 heartbeat IPC: 0.161674 cumulative IPC: 0.130102 (Simulation time: 0 hr 53 min 36 sec) 
Heartbeat CPU 0 instructions: 58000001 cycles: 92428085 heartbeat IPC: 0.154531 cumulative IPC: 0.132724 (Simulation time: 0 hr 54 min 20 sec) 
Heartbeat CPU 0 instructions: 59000002 cycles: 100625506 heartbeat IPC: 0.12199 cumulative IPC: 0.131439 (Simulation time: 0 hr 55 min 5 sec) 
Heartbeat CPU 0 instructions: 60000000 cycles: 108035724 heartbeat IPC: 0.134949 cumulative IPC: 0.131782 (Simulation time: 0 hr 55 min 56 sec) 
Heartbeat CPU 0 instructions: 61000001 cycles: 114573390 heartbeat IPC: 0.15296 cumulative IPC: 0.133462 (Simulation time: 0 hr 56 min 38 sec) 
Heartbeat CPU 0 instructions: 62000001 cycles: 121499269 heartbeat IPC: 0.144386 cumulative IPC: 0.134309 (Simulation time: 0 hr 57 min 19 sec) 
Heartbeat CPU 0 instructions: 63000000 cycles: 128538754 heartbeat IPC: 0.142056 cumulative IPC: 0.134874 (Simulation time: 0 hr 58 min 2 sec) 
Heartbeat CPU 0 instructions: 64000000 cycles: 137567237 heartbeat IPC: 0.110761 cumulative IPC: 0.132809 (Simulation time: 0 hr 58 min 51 sec) 
Heartbeat CPU 0 instructions: 65000000 cycles: 144076573 heartbeat IPC: 0.153626 cumulative IPC: 0.13402 (Simulation time: 0 hr 59 min 36 sec) 
Heartbeat CPU 0 instructions: 66000001 cycles: 150305926 heartbeat IPC: 0.16053 cumulative IPC: 0.135417 (Simulation time: 1 hr 0 min 17 sec) 
Heartbeat CPU 0 instructions: 67000000 cycles: 157050458 heartbeat IPC: 0.148268 cumulative IPC: 0.136111 (Simulation time: 1 hr 1 min 0 sec) 
Heartbeat CPU 0 instructions: 68000000 cycles: 164470322 heartbeat IPC: 0.134773 cumulative IPC: 0.136036 (Simulation time: 1 hr 1 min 43 sec) 
Heartbeat CPU 0 instructions: 69000000 cycles: 176467229 heartbeat IPC: 0.0833548 cumulative IPC: 0.131657 (Simulation time: 1 hr 2 min 39 sec) 
Heartbeat CPU 0 instructions: 70000000 cycles: 183051571 heartbeat IPC: 0.151875 cumulative IPC: 0.132539 (Simulation time: 1 hr 3 min 20 sec) 
Heartbeat CPU 0 instructions: 71000002 cycles: 189614974 heartbeat IPC: 0.15236 cumulative IPC: 0.133365 (Simulation time: 1 hr 4 min 0 sec) 
Heartbeat CPU 0 instructions: 72000000 cycles: 196502782 heartbeat IPC: 0.145184 cumulative IPC: 0.133861 (Simulation time: 1 hr 4 min 40 sec) 
Heartbeat CPU 0 instructions: 73000003 cycles: 203604934 heartbeat IPC: 0.140803 cumulative IPC: 0.134148 (Simulation time: 1 hr 5 min 23 sec) 
Heartbeat CPU 0 instructions: 74000001 cycles: 212519050 heartbeat IPC: 0.112181 cumulative IPC: 0.133063 (Simulation time: 1 hr 6 min 9 sec) 
Heartbeat CPU 0 instructions: 75000000 cycles: 219341892 heartbeat IPC: 0.146566 cumulative IPC: 0.133555 (Simulation time: 1 hr 6 min 57 sec) 
Heartbeat CPU 0 instructions: 76000000 cycles: 225239418 heartbeat IPC: 0.169563 cumulative IPC: 0.134655 (Simulation time: 1 hr 7 min 49 sec) 
Heartbeat CPU 0 instructions: 77000000 cycles: 231278436 heartbeat IPC: 0.16559 cumulative IPC: 0.135593 (Simulation time: 1 hr 8 min 36 sec) 
Heartbeat CPU 0 instructions: 78000001 cycles: 237304540 heartbeat IPC: 0.165945 cumulative IPC: 0.136484 (Simulation time: 1 hr 9 min 18 sec) 
Heartbeat CPU 0 instructions: 79000000 cycles: 246109483 heartbeat IPC: 0.113572 cumulative IPC: 0.135541 (Simulation time: 1 hr 10 min 8 sec) 
Heartbeat CPU 0 instructions: 80000000 cycles: 251994376 heartbeat IPC: 0.169927 cumulative IPC: 0.136462 (Simulation time: 1 hr 10 min 53 sec) 
Heartbeat CPU 0 instructions: 81000001 cycles: 259345805 heartbeat IPC: 0.136028 cumulative IPC: 0.136448 (Simulation time: 1 hr 11 min 33 sec) 
Heartbeat CPU 0 instructions: 82000001 cycles: 267222707 heartbeat IPC: 0.126953 cumulative IPC: 0.13613 (Simulation time: 1 hr 12 min 18 sec) 
Heartbeat CPU 0 instructions: 83000002 cycles: 273676325 heartbeat IPC: 0.154952 cumulative IPC: 0.136633 (Simulation time: 1 hr 12 min 56 sec) 
Heartbeat CPU 0 instructions: 84000000 cycles: 280300209 heartbeat IPC: 0.150969 cumulative IPC: 0.137015 (Simulation time: 1 hr 13 min 34 sec) 
Heartbeat CPU 0 instructions: 85000000 cycles: 287134398 heartbeat IPC: 0.146323 cumulative IPC: 0.137265 (Simulation time: 1 hr 14 min 11 sec) 
Heartbeat CPU 0 instructions: 86000001 cycles: 295664443 heartbeat IPC: 0.117233 cumulative IPC: 0.136616 (Simulation time: 1 hr 14 min 56 sec) 
Heartbeat CPU 0 instructions: 87000000 cycles: 301372956 heartbeat IPC: 0.175177 cumulative IPC: 0.137434 (Simulation time: 1 hr 15 min 33 sec) 
Heartbeat CPU 0 instructions: 88000000 cycles: 307210331 heartbeat IPC: 0.17131 cumulative IPC: 0.138153 (Simulation time: 1 hr 16 min 8 sec) 
Heartbeat CPU 0 instructions: 89000002 cycles: 313257109 heartbeat IPC: 0.165378 cumulative IPC: 0.138739 (Simulation time: 1 hr 16 min 48 sec) 
Heartbeat CPU 0 instructions: 90000002 cycles: 319590904 heartbeat IPC: 0.157883 cumulative IPC: 0.13916 (Simulation time: 1 hr 17 min 24 sec) 
Heartbeat CPU 0 instructions: 91000001 cycles: 328722233 heartbeat IPC: 0.109513 cumulative IPC: 0.138248 (Simulation time: 1 hr 18 min 6 sec) 
Heartbeat CPU 0 instructions: 92000000 cycles: 335766108 heartbeat IPC: 0.141967 cumulative IPC: 0.138334 (Simulation time: 1 hr 18 min 43 sec) 
Heartbeat CPU 0 instructions: 93000003 cycles: 343108267 heartbeat IPC: 0.1362 cumulative IPC: 0.138283 (Simulation time: 1 hr 19 min 23 sec) 
Heartbeat CPU 0 instructions: 94000000 cycles: 350699553 heartbeat IPC: 0.13173 cumulative IPC: 0.138127 (Simulation time: 1 hr 19 min 58 sec) 
Heartbeat CPU 0 instructions: 95000000 cycles: 357117975 heartbeat IPC: 0.155802 cumulative IPC: 0.138476 (Simulation time: 1 hr 20 min 27 sec) 
Heartbeat CPU 0 instructions: 96000000 cycles: 366298894 heartbeat IPC: 0.108922 cumulative IPC: 0.137664 (Simulation time: 1 hr 21 min 2 sec) 
Heartbeat CPU 0 instructions: 97000000 cycles: 373173172 heartbeat IPC: 0.14547 cumulative IPC: 0.137822 (Simulation time: 1 hr 21 min 32 sec) 
Heartbeat CPU 0 instructions: 98000003 cycles: 380748528 heartbeat IPC: 0.132007 cumulative IPC: 0.137695 (Simulation time: 1 hr 22 min 4 sec) 
Heartbeat CPU 0 instructions: 99000001 cycles: 388715460 heartbeat IPC: 0.125519 cumulative IPC: 0.137423 (Simulation time: 1 hr 22 min 38 sec) 
Heartbeat CPU 0 instructions: 100000000 cycles: 396221592 heartbeat IPC: 0.133224 cumulative IPC: 0.137337 (Simulation time: 1 hr 23 min 13 sec) 
Heartbeat CPU 0 instructions: 101000000 cycles: 405442904 heartbeat IPC: 0.108444 cumulative IPC: 0.136623 (Simulation time: 1 hr 23 min 53 sec) 
Heartbeat CPU 0 instructions: 102000001 cycles: 411817852 heartbeat IPC: 0.156864 cumulative IPC: 0.136963 (Simulation time: 1 hr 24 min 26 sec) 
Heartbeat CPU 0 instructions: 103000000 cycles: 418290967 heartbeat IPC: 0.154485 cumulative IPC: 0.137257 (Simulation time: 1 hr 24 min 57 sec) 
Heartbeat CPU 0 instructions: 104000000 cycles: 424742541 heartbeat IPC: 0.155001 cumulative IPC: 0.137548 (Simulation time: 1 hr 25 min 27 sec) 
Heartbeat CPU 0 instructions: 105000000 cycles: 430884821 heartbeat IPC: 0.162806 cumulative IPC: 0.137937 (Simulation time: 1 hr 25 min 57 sec) 
Heartbeat CPU 0 instructions: 106000000 cycles: 439843930 heartbeat IPC: 0.111618 cumulative IPC: 0.137359 (Simulation time: 1 hr 26 min 29 sec) 
Heartbeat CPU 0 instructions: 107000002 cycles: 446134270 heartbeat IPC: 0.158974 cumulative IPC: 0.137687 (Simulation time: 1 hr 26 min 57 sec) 
Heartbeat CPU 0 instructions: 108000000 cycles: 455106633 heartbeat IPC: 0.111453 cumulative IPC: 0.137131 (Simulation time: 1 hr 27 min 28 sec) 
Heartbeat CPU 0 instructions: 109000003 cycles: 461273845 heartbeat IPC: 0.162148 cumulative IPC: 0.13749 (Simulation time: 1 hr 27 min 55 sec) 
Heartbeat CPU 0 instructions: 110000003 cycles: 467132617 heartbeat IPC: 0.170684 cumulative IPC: 0.137937 (Simulation time: 1 hr 28 min 20 sec) 
Heartbeat CPU 0 instructions: 111000001 cycles: 473102632 heartbeat IPC: 0.167503 cumulative IPC: 0.138338 (Simulation time: 1 hr 28 min 45 sec) 
Heartbeat CPU 0 instructions: 112000000 cycles: 481342735 heartbeat IPC: 0.121358 cumulative IPC: 0.138026 (Simulation time: 1 hr 29 min 13 sec) 
Heartbeat CPU 0 instructions: 113000000 cycles: 488593481 heartbeat IPC: 0.137917 cumulative IPC: 0.138024 (Simulation time: 1 hr 29 min 39 sec) 
Heartbeat CPU 0 instructions: 114000003 cycles: 496310949 heartbeat IPC: 0.129577 cumulative IPC: 0.137884 (Simulation time: 1 hr 30 min 1 sec) 
Heartbeat CPU 0 instructions: 115000001 cycles: 504472824 heartbeat IPC: 0.122521 cumulative IPC: 0.137619 (Simulation time: 1 hr 30 min 26 sec) 
Heartbeat CPU 0 instructions: 116000000 cycles: 511181290 heartbeat IPC: 0.149065 cumulative IPC: 0.137779 (Simulation time: 1 hr 30 min 48 sec) 
Heartbeat CPU 0 instructions: 117000001 cycles: 518129554 heartbeat IPC: 0.143921 cumulative IPC: 0.137867 (Simulation time: 1 hr 31 min 9 sec) 
Heartbeat CPU 0 instructions: 118000003 cycles: 527067088 heartbeat IPC: 0.111888 cumulative IPC: 0.137398 (Simulation time: 1 hr 31 min 30 sec) 
Heartbeat CPU 0 instructions: 119000000 cycles: 533451578 heartbeat IPC: 0.156629 cumulative IPC: 0.137642 (Simulation time: 1 hr 31 min 47 sec) 
Heartbeat CPU 0 instructions: 120000000 cycles: 540047504 heartbeat IPC: 0.151609 cumulative IPC: 0.137824 (Simulation time: 1 hr 32 min 5 sec) 
Heartbeat CPU 0 instructions: 121000001 cycles: 546377185 heartbeat IPC: 0.157986 cumulative IPC: 0.138072 (Simulation time: 1 hr 32 min 22 sec) 
Heartbeat CPU 0 instructions: 122000001 cycles: 552834319 heartbeat IPC: 0.154867 cumulative IPC: 0.13828 (Simulation time: 1 hr 32 min 38 sec) 
Heartbeat CPU 0 instructions: 123000001 cycles: 561966336 heartbeat IPC: 0.109505 cumulative IPC: 0.137784 (Simulation time: 1 hr 32 min 57 sec) 
Heartbeat CPU 0 instructions: 124000000 cycles: 568509208 heartbeat IPC: 0.152838 cumulative IPC: 0.137968 (Simulation time: 1 hr 33 min 10 sec) 
Heartbeat CPU 0 instructions: 125000000 cycles: 575121314 heartbeat IPC: 0.151238 cumulative IPC: 0.13813 (Simulation time: 1 hr 33 min 24 sec) 
Heartbeat CPU 0 instructions: 126000003 cycles: 582124239 heartbeat IPC: 0.142798 cumulative IPC: 0.138189 (Simulation time: 1 hr 33 min 36 sec) 
Heartbeat CPU 0 instructions: 127000003 cycles: 591520504 heartbeat IPC: 0.106425 cumulative IPC: 0.137655 (Simulation time: 1 hr 33 min 50 sec) 
Heartbeat CPU 0 instructions: 128000000 cycles: 597733562 heartbeat IPC: 0.160951 cumulative IPC: 0.137911 (Simulation time: 1 hr 33 min 59 sec) 
Heartbeat CPU 0 instructions: 129000001 cycles: 606607161 heartbeat IPC: 0.112694 cumulative IPC: 0.137522 (Simulation time: 1 hr 34 min 8 sec) 
Heartbeat CPU 0 instructions: 130000002 cycles: 612819188 heartbeat IPC: 0.160978 cumulative IPC: 0.137773 (Simulation time: 1 hr 34 min 15 sec) 
Heartbeat CPU 0 instructions: 131000003 cycles: 618785663 heartbeat IPC: 0.167603 cumulative IPC: 0.138076 (Simulation time: 1 hr 34 min 22 sec) 
Heartbeat CPU 0 instructions: 132000000 cycles: 629888304 heartbeat IPC: 0.0900684 cumulative IPC: 0.137184 (Simulation time: 1 hr 34 min 31 sec) 
Heartbeat CPU 0 instructions: 133000002 cycles: 638911875 heartbeat IPC: 0.110821 cumulative IPC: 0.136792 (Simulation time: 1 hr 34 min 39 sec) 
Heartbeat CPU 0 instructions: 134000000 cycles: 644928711 heartbeat IPC: 0.1662 cumulative IPC: 0.137081 (Simulation time: 1 hr 34 min 46 sec) 
Heartbeat CPU 0 instructions: 135000002 cycles: 652366648 heartbeat IPC: 0.134446 cumulative IPC: 0.137049 (Simulation time: 1 hr 34 min 54 sec) 
Heartbeat CPU 0 instructions: 136000000 cycles: 661458390 heartbeat IPC: 0.10999 cumulative IPC: 0.136659 (Simulation time: 1 hr 35 min 0 sec) 
Heartbeat CPU 0 instructions: 137000001 cycles: 669521695 heartbeat IPC: 0.124019 cumulative IPC: 0.136499 (Simulation time: 1 hr 35 min 7 sec) 
Heartbeat CPU 0 instructions: 138000002 cycles: 676201381 heartbeat IPC: 0.149708 cumulative IPC: 0.136636 (Simulation time: 1 hr 35 min 13 sec) 
Heartbeat CPU 0 instructions: 139000001 cycles: 682967354 heartbeat IPC: 0.147798 cumulative IPC: 0.136752 (Simulation time: 1 hr 35 min 19 sec) 
Heartbeat CPU 0 instructions: 140000000 cycles: 692270905 heartbeat IPC: 0.107486 cumulative IPC: 0.136339 (Simulation time: 1 hr 35 min 27 sec) 
Heartbeat CPU 0 instructions: 141000001 cycles: 698941416 heartbeat IPC: 0.149914 cumulative IPC: 0.136475 (Simulation time: 1 hr 35 min 33 sec) 
Heartbeat CPU 0 instructions: 142000000 cycles: 705377235 heartbeat IPC: 0.15538 cumulative IPC: 0.136656 (Simulation time: 1 hr 35 min 39 sec) 
Heartbeat CPU 0 instructions: 143000001 cycles: 711955344 heartbeat IPC: 0.15202 cumulative IPC: 0.136804 (Simulation time: 1 hr 35 min 45 sec) 
Heartbeat CPU 0 instructions: 144000000 cycles: 721284601 heartbeat IPC: 0.10719 cumulative IPC: 0.136404 (Simulation time: 1 hr 35 min 52 sec) 
Heartbeat CPU 0 instructions: 145000000 cycles: 727823113 heartbeat IPC: 0.15294 cumulative IPC: 0.136559 (Simulation time: 1 hr 35 min 58 sec) 
Heartbeat CPU 0 instructions: 146000000 cycles: 734048428 heartbeat IPC: 0.160634 cumulative IPC: 0.136772 (Simulation time: 1 hr 36 min 4 sec) 
Heartbeat CPU 0 instructions: 147000000 cycles: 743093784 heartbeat IPC: 0.110554 cumulative IPC: 0.136439 (Simulation time: 1 hr 36 min 11 sec) 
Heartbeat CPU 0 instructions: 148000000 cycles: 749335300 heartbeat IPC: 0.160217 cumulative IPC: 0.136646 (Simulation time: 1 hr 36 min 17 sec) 
Heartbeat CPU 0 instructions: 149000000 cycles: 758019926 heartbeat IPC: 0.115146 cumulative IPC: 0.136389 (Simulation time: 1 hr 36 min 24 sec) 
Heartbeat CPU 0 instructions: 150000001 cycles: 764480053 heartbeat IPC: 0.154796 cumulative IPC: 0.136551 (Simulation time: 1 hr 36 min 30 sec) 
Finished CPU 0 instructions: 100000000 cycles: 732327300 cummulative IPC: 0.136551 (Simulation time: 1 hr 36 min 30 sec) 

ChampSim completed all CPUs

Region of Interest Statistics

CPU 0 cummulative IPC: 0.136551 instructions: 100000000 cycles: 732327300
LLC TOTAL     ACCESS:    9036831  HIT:    2410508  MISS:    6626323
LLC LOAD      ACCESS:    1899881  HIT:     509008  MISS:    1390873
LLC RFO       ACCESS:    1963569  HIT:     436540  MISS:    1527029
LLC PREFETCH  ACCESS:    2282255  HIT:     350082  MISS:    1932173
LLC WRITEBACK ACCESS:    2891126  HIT:    1114878  MISS:    1776248
OPTgen accesses: 93793
OPTgen hits: 50646
OPTgen hit rate: 53.9976


