
*** ChampSim Multicore Out-of-Order Simulator ***

Warmup Instructions: 50000000
Simulation Instructions: 100000000
Configuration: 2
Number of CPUs: 1
LLC sets: 2048
LLC ways: 16
Off-chip DRAM Channels: 1 Width: 64-bit Data Rate: 1600 MT/s

CPU 0 runs /datasets/cs240c-wi22-a00-public/data/Assignment2-gz/astar_23B.trace.gz
CPU 0 L1D next line prefetcher
CPU 0 L2C IP-based stride prefetcher
Initialize Hawkeye state
Heartbeat CPU 0 instructions: 1000000 cycles: 359869 heartbeat IPC: 2.77879 cumulative IPC: 2.77879 (Simulation time: 0 hr 0 min 40 sec) 
Heartbeat CPU 0 instructions: 2000001 cycles: 720498 heartbeat IPC: 2.77294 cumulative IPC: 2.77586 (Simulation time: 0 hr 1 min 19 sec) 
Heartbeat CPU 0 instructions: 3000000 cycles: 1079245 heartbeat IPC: 2.78748 cumulative IPC: 2.77972 (Simulation time: 0 hr 1 min 56 sec) 
Heartbeat CPU 0 instructions: 4000000 cycles: 1440499 heartbeat IPC: 2.76814 cumulative IPC: 2.77682 (Simulation time: 0 hr 2 min 36 sec) 
Heartbeat CPU 0 instructions: 5000000 cycles: 1802439 heartbeat IPC: 2.76289 cumulative IPC: 2.77402 (Simulation time: 0 hr 3 min 14 sec) 
Heartbeat CPU 0 instructions: 6000002 cycles: 2163910 heartbeat IPC: 2.76648 cumulative IPC: 2.77276 (Simulation time: 0 hr 3 min 53 sec) 
Heartbeat CPU 0 instructions: 7000002 cycles: 2525202 heartbeat IPC: 2.76784 cumulative IPC: 2.77206 (Simulation time: 0 hr 4 min 32 sec) 
Heartbeat CPU 0 instructions: 8000000 cycles: 2887899 heartbeat IPC: 2.75712 cumulative IPC: 2.77018 (Simulation time: 0 hr 5 min 11 sec) 
Heartbeat CPU 0 instructions: 9000000 cycles: 3250621 heartbeat IPC: 2.75693 cumulative IPC: 2.7687 (Simulation time: 0 hr 5 min 48 sec) 
Heartbeat CPU 0 instructions: 10000003 cycles: 3615245 heartbeat IPC: 2.74256 cumulative IPC: 2.76607 (Simulation time: 0 hr 6 min 26 sec) 
Heartbeat CPU 0 instructions: 11000000 cycles: 3979319 heartbeat IPC: 2.74669 cumulative IPC: 2.76429 (Simulation time: 0 hr 7 min 5 sec) 
Heartbeat CPU 0 instructions: 12000000 cycles: 4343809 heartbeat IPC: 2.74356 cumulative IPC: 2.76255 (Simulation time: 0 hr 7 min 45 sec) 
Heartbeat CPU 0 instructions: 13000001 cycles: 4706262 heartbeat IPC: 2.75898 cumulative IPC: 2.76228 (Simulation time: 0 hr 8 min 24 sec) 
Heartbeat CPU 0 instructions: 14000003 cycles: 5069096 heartbeat IPC: 2.75609 cumulative IPC: 2.76183 (Simulation time: 0 hr 9 min 1 sec) 
Heartbeat CPU 0 instructions: 15000003 cycles: 5431707 heartbeat IPC: 2.75778 cumulative IPC: 2.76156 (Simulation time: 0 hr 9 min 40 sec) 
Heartbeat CPU 0 instructions: 16000000 cycles: 5794049 heartbeat IPC: 2.75982 cumulative IPC: 2.76145 (Simulation time: 0 hr 10 min 18 sec) 
Heartbeat CPU 0 instructions: 17000000 cycles: 6155188 heartbeat IPC: 2.76902 cumulative IPC: 2.7619 (Simulation time: 0 hr 10 min 55 sec) 
Heartbeat CPU 0 instructions: 18000001 cycles: 6515371 heartbeat IPC: 2.77637 cumulative IPC: 2.7627 (Simulation time: 0 hr 11 min 33 sec) 
Heartbeat CPU 0 instructions: 19000002 cycles: 6876050 heartbeat IPC: 2.77255 cumulative IPC: 2.76321 (Simulation time: 0 hr 12 min 10 sec) 
Heartbeat CPU 0 instructions: 20000000 cycles: 7236049 heartbeat IPC: 2.77778 cumulative IPC: 2.76394 (Simulation time: 0 hr 12 min 46 sec) 
Heartbeat CPU 0 instructions: 21000001 cycles: 7596965 heartbeat IPC: 2.77073 cumulative IPC: 2.76426 (Simulation time: 0 hr 13 min 23 sec) 
Heartbeat CPU 0 instructions: 22000000 cycles: 7958985 heartbeat IPC: 2.76228 cumulative IPC: 2.76417 (Simulation time: 0 hr 14 min 2 sec) 
Heartbeat CPU 0 instructions: 23000000 cycles: 8320214 heartbeat IPC: 2.76833 cumulative IPC: 2.76435 (Simulation time: 0 hr 14 min 41 sec) 
Heartbeat CPU 0 instructions: 24000000 cycles: 8681015 heartbeat IPC: 2.77161 cumulative IPC: 2.76465 (Simulation time: 0 hr 15 min 20 sec) 
Heartbeat CPU 0 instructions: 25000001 cycles: 9041604 heartbeat IPC: 2.77324 cumulative IPC: 2.765 (Simulation time: 0 hr 15 min 57 sec) 
Heartbeat CPU 0 instructions: 26000002 cycles: 9402713 heartbeat IPC: 2.76925 cumulative IPC: 2.76516 (Simulation time: 0 hr 16 min 36 sec) 
Heartbeat CPU 0 instructions: 27000000 cycles: 9763215 heartbeat IPC: 2.7739 cumulative IPC: 2.76548 (Simulation time: 0 hr 17 min 15 sec) 
Heartbeat CPU 0 instructions: 28000000 cycles: 10124496 heartbeat IPC: 2.76793 cumulative IPC: 2.76557 (Simulation time: 0 hr 17 min 54 sec) 
Heartbeat CPU 0 instructions: 29000000 cycles: 10485988 heartbeat IPC: 2.76631 cumulative IPC: 2.7656 (Simulation time: 0 hr 18 min 32 sec) 
Heartbeat CPU 0 instructions: 30000000 cycles: 10848150 heartbeat IPC: 2.7612 cumulative IPC: 2.76545 (Simulation time: 0 hr 19 min 12 sec) 
Heartbeat CPU 0 instructions: 31000001 cycles: 11209319 heartbeat IPC: 2.76879 cumulative IPC: 2.76556 (Simulation time: 0 hr 19 min 49 sec) 
Heartbeat CPU 0 instructions: 32000000 cycles: 11570039 heartbeat IPC: 2.77223 cumulative IPC: 2.76576 (Simulation time: 0 hr 20 min 27 sec) 
Heartbeat CPU 0 instructions: 33000002 cycles: 11930963 heartbeat IPC: 2.77067 cumulative IPC: 2.76591 (Simulation time: 0 hr 21 min 6 sec) 
Heartbeat CPU 0 instructions: 34000001 cycles: 12292587 heartbeat IPC: 2.7653 cumulative IPC: 2.76589 (Simulation time: 0 hr 21 min 45 sec) 
Heartbeat CPU 0 instructions: 35000000 cycles: 12653294 heartbeat IPC: 2.77233 cumulative IPC: 2.76608 (Simulation time: 0 hr 22 min 23 sec) 
Heartbeat CPU 0 instructions: 36000000 cycles: 13013133 heartbeat IPC: 2.77902 cumulative IPC: 2.76644 (Simulation time: 0 hr 23 min 2 sec) 
Heartbeat CPU 0 instructions: 37000000 cycles: 13372958 heartbeat IPC: 2.77913 cumulative IPC: 2.76678 (Simulation time: 0 hr 23 min 40 sec) 
Heartbeat CPU 0 instructions: 38000003 cycles: 13733011 heartbeat IPC: 2.77738 cumulative IPC: 2.76706 (Simulation time: 0 hr 24 min 20 sec) 
Heartbeat CPU 0 instructions: 39000003 cycles: 14093626 heartbeat IPC: 2.77304 cumulative IPC: 2.76721 (Simulation time: 0 hr 25 min 4 sec) 
Heartbeat CPU 0 instructions: 40000000 cycles: 14453877 heartbeat IPC: 2.77583 cumulative IPC: 2.76742 (Simulation time: 0 hr 25 min 41 sec) 
Heartbeat CPU 0 instructions: 41000002 cycles: 14813998 heartbeat IPC: 2.77685 cumulative IPC: 2.76765 (Simulation time: 0 hr 26 min 20 sec) 
Heartbeat CPU 0 instructions: 42000003 cycles: 15175810 heartbeat IPC: 2.76387 cumulative IPC: 2.76756 (Simulation time: 0 hr 26 min 59 sec) 
Heartbeat CPU 0 instructions: 43000003 cycles: 15537000 heartbeat IPC: 2.76863 cumulative IPC: 2.76759 (Simulation time: 0 hr 27 min 36 sec) 
Heartbeat CPU 0 instructions: 44000000 cycles: 15899924 heartbeat IPC: 2.75539 cumulative IPC: 2.76731 (Simulation time: 0 hr 28 min 17 sec) 
Heartbeat CPU 0 instructions: 45000002 cycles: 16264041 heartbeat IPC: 2.74638 cumulative IPC: 2.76684 (Simulation time: 0 hr 28 min 56 sec) 
Heartbeat CPU 0 instructions: 46000001 cycles: 16628067 heartbeat IPC: 2.74705 cumulative IPC: 2.76641 (Simulation time: 0 hr 29 min 34 sec) 
Heartbeat CPU 0 instructions: 47000002 cycles: 16991880 heartbeat IPC: 2.74867 cumulative IPC: 2.76603 (Simulation time: 0 hr 30 min 10 sec) 
Heartbeat CPU 0 instructions: 48000000 cycles: 17354259 heartbeat IPC: 2.75954 cumulative IPC: 2.76589 (Simulation time: 0 hr 30 min 50 sec) 
Heartbeat CPU 0 instructions: 49000000 cycles: 17716466 heartbeat IPC: 2.76085 cumulative IPC: 2.76579 (Simulation time: 0 hr 31 min 27 sec) 
Heartbeat CPU 0 instructions: 50000000 cycles: 18078275 heartbeat IPC: 2.76389 cumulative IPC: 2.76575 (Simulation time: 0 hr 32 min 7 sec) 

Warmup complete CPU 0 instructions: 50000004 cycles: 18078276 (Simulation time: 0 hr 32 min 7 sec) 

Heartbeat CPU 0 instructions: 51000001 cycles: 21806694 heartbeat IPC: 0.26821 cumulative IPC: 0.268209 (Simulation time: 0 hr 32 min 47 sec) 
Heartbeat CPU 0 instructions: 52000000 cycles: 25780257 heartbeat IPC: 0.251663 cumulative IPC: 0.259673 (Simulation time: 0 hr 33 min 25 sec) 
Heartbeat CPU 0 instructions: 53000000 cycles: 28588838 heartbeat IPC: 0.356052 cumulative IPC: 0.285427 (Simulation time: 0 hr 34 min 5 sec) 
Heartbeat CPU 0 instructions: 54000002 cycles: 31446832 heartbeat IPC: 0.349896 cumulative IPC: 0.299209 (Simulation time: 0 hr 34 min 43 sec) 
Heartbeat CPU 0 instructions: 55000002 cycles: 34260505 heartbeat IPC: 0.355407 cumulative IPC: 0.308981 (Simulation time: 0 hr 35 min 19 sec) 
Heartbeat CPU 0 instructions: 56000000 cycles: 37021780 heartbeat IPC: 0.362151 cumulative IPC: 0.316731 (Simulation time: 0 hr 35 min 58 sec) 
Heartbeat CPU 0 instructions: 57000000 cycles: 39612492 heartbeat IPC: 0.385994 cumulative IPC: 0.325064 (Simulation time: 0 hr 36 min 32 sec) 
Heartbeat CPU 0 instructions: 58000001 cycles: 42180583 heartbeat IPC: 0.389395 cumulative IPC: 0.331918 (Simulation time: 0 hr 37 min 8 sec) 
Heartbeat CPU 0 instructions: 59000000 cycles: 44950348 heartbeat IPC: 0.361041 cumulative IPC: 0.33492 (Simulation time: 0 hr 37 min 48 sec) 
Heartbeat CPU 0 instructions: 60000000 cycles: 47524578 heartbeat IPC: 0.388466 cumulative IPC: 0.339601 (Simulation time: 0 hr 38 min 20 sec) 
Heartbeat CPU 0 instructions: 61000000 cycles: 50017358 heartbeat IPC: 0.401159 cumulative IPC: 0.344406 (Simulation time: 0 hr 38 min 59 sec) 
Heartbeat CPU 0 instructions: 62000003 cycles: 52487000 heartbeat IPC: 0.404918 cumulative IPC: 0.348749 (Simulation time: 0 hr 39 min 30 sec) 
Heartbeat CPU 0 instructions: 63000000 cycles: 55105426 heartbeat IPC: 0.381908 cumulative IPC: 0.351094 (Simulation time: 0 hr 40 min 3 sec) 
Heartbeat CPU 0 instructions: 64000000 cycles: 57630334 heartbeat IPC: 0.396054 cumulative IPC: 0.353964 (Simulation time: 0 hr 40 min 34 sec) 
Heartbeat CPU 0 instructions: 65000000 cycles: 60074797 heartbeat IPC: 0.409088 cumulative IPC: 0.357172 (Simulation time: 0 hr 41 min 5 sec) 
Heartbeat CPU 0 instructions: 66000000 cycles: 62539470 heartbeat IPC: 0.405733 cumulative IPC: 0.359864 (Simulation time: 0 hr 41 min 33 sec) 
Heartbeat CPU 0 instructions: 67000000 cycles: 65013137 heartbeat IPC: 0.404258 cumulative IPC: 0.362204 (Simulation time: 0 hr 41 min 59 sec) 
Heartbeat CPU 0 instructions: 68000000 cycles: 67404474 heartbeat IPC: 0.418176 cumulative IPC: 0.364918 (Simulation time: 0 hr 42 min 26 sec) 
Heartbeat CPU 0 instructions: 69000000 cycles: 69985812 heartbeat IPC: 0.387396 cumulative IPC: 0.366035 (Simulation time: 0 hr 42 min 53 sec) 
Heartbeat CPU 0 instructions: 70000000 cycles: 72522227 heartbeat IPC: 0.394257 cumulative IPC: 0.36735 (Simulation time: 0 hr 43 min 22 sec) 
Heartbeat CPU 0 instructions: 71000001 cycles: 75119785 heartbeat IPC: 0.384977 cumulative IPC: 0.368153 (Simulation time: 0 hr 43 min 51 sec) 
Heartbeat CPU 0 instructions: 72000000 cycles: 77745428 heartbeat IPC: 0.380859 cumulative IPC: 0.368712 (Simulation time: 0 hr 44 min 20 sec) 
Heartbeat CPU 0 instructions: 73000001 cycles: 80248211 heartbeat IPC: 0.399556 cumulative IPC: 0.369954 (Simulation time: 0 hr 44 min 48 sec) 
Heartbeat CPU 0 instructions: 74000002 cycles: 82496071 heartbeat IPC: 0.444868 cumulative IPC: 0.372568 (Simulation time: 0 hr 45 min 14 sec) 
Heartbeat CPU 0 instructions: 75000002 cycles: 84984278 heartbeat IPC: 0.401896 cumulative IPC: 0.373659 (Simulation time: 0 hr 45 min 41 sec) 
Heartbeat CPU 0 instructions: 76000000 cycles: 87477376 heartbeat IPC: 0.401107 cumulative IPC: 0.374645 (Simulation time: 0 hr 46 min 10 sec) 
Heartbeat CPU 0 instructions: 77000000 cycles: 90537470 heartbeat IPC: 0.326787 cumulative IPC: 0.372623 (Simulation time: 0 hr 46 min 41 sec) 
Heartbeat CPU 0 instructions: 78000003 cycles: 93552868 heartbeat IPC: 0.331632 cumulative IPC: 0.370986 (Simulation time: 0 hr 47 min 12 sec) 
Heartbeat CPU 0 instructions: 79000001 cycles: 96001397 heartbeat IPC: 0.408408 cumulative IPC: 0.372162 (Simulation time: 0 hr 47 min 42 sec) 
Heartbeat CPU 0 instructions: 80000000 cycles: 98571212 heartbeat IPC: 0.389133 cumulative IPC: 0.372703 (Simulation time: 0 hr 48 min 13 sec) 
Heartbeat CPU 0 instructions: 81000001 cycles: 101170053 heartbeat IPC: 0.384787 cumulative IPC: 0.373081 (Simulation time: 0 hr 48 min 42 sec) 
Heartbeat CPU 0 instructions: 82000002 cycles: 103713347 heartbeat IPC: 0.393191 cumulative IPC: 0.373679 (Simulation time: 0 hr 49 min 15 sec) 
Heartbeat CPU 0 instructions: 83000002 cycles: 106149128 heartbeat IPC: 0.410546 cumulative IPC: 0.374698 (Simulation time: 0 hr 49 min 46 sec) 
Heartbeat CPU 0 instructions: 84000000 cycles: 108624942 heartbeat IPC: 0.403907 cumulative IPC: 0.375497 (Simulation time: 0 hr 50 min 14 sec) 
Heartbeat CPU 0 instructions: 85000000 cycles: 111124459 heartbeat IPC: 0.400077 cumulative IPC: 0.376157 (Simulation time: 0 hr 50 min 43 sec) 
Heartbeat CPU 0 instructions: 86000001 cycles: 113529617 heartbeat IPC: 0.415774 cumulative IPC: 0.377155 (Simulation time: 0 hr 51 min 13 sec) 
Heartbeat CPU 0 instructions: 87000000 cycles: 115899176 heartbeat IPC: 0.422019 cumulative IPC: 0.378242 (Simulation time: 0 hr 51 min 41 sec) 
Heartbeat CPU 0 instructions: 88000000 cycles: 118417051 heartbeat IPC: 0.39716 cumulative IPC: 0.378717 (Simulation time: 0 hr 52 min 9 sec) 
Heartbeat CPU 0 instructions: 89000000 cycles: 120960609 heartbeat IPC: 0.39315 cumulative IPC: 0.379074 (Simulation time: 0 hr 52 min 41 sec) 
Heartbeat CPU 0 instructions: 90000001 cycles: 123443365 heartbeat IPC: 0.402779 cumulative IPC: 0.379632 (Simulation time: 0 hr 53 min 14 sec) 
Heartbeat CPU 0 instructions: 91000000 cycles: 125885156 heartbeat IPC: 0.409535 cumulative IPC: 0.38031 (Simulation time: 0 hr 53 min 44 sec) 
Heartbeat CPU 0 instructions: 92000000 cycles: 128821843 heartbeat IPC: 0.34052 cumulative IPC: 0.379254 (Simulation time: 0 hr 54 min 14 sec) 
Heartbeat CPU 0 instructions: 93000000 cycles: 131353705 heartbeat IPC: 0.394966 cumulative IPC: 0.379606 (Simulation time: 0 hr 54 min 43 sec) 
Heartbeat CPU 0 instructions: 94000003 cycles: 133892802 heartbeat IPC: 0.393842 cumulative IPC: 0.379918 (Simulation time: 0 hr 55 min 13 sec) 
Heartbeat CPU 0 instructions: 95000000 cycles: 136319970 heartbeat IPC: 0.412002 cumulative IPC: 0.380576 (Simulation time: 0 hr 55 min 42 sec) 
Heartbeat CPU 0 instructions: 96000000 cycles: 138833421 heartbeat IPC: 0.397859 cumulative IPC: 0.380936 (Simulation time: 0 hr 56 min 9 sec) 
Heartbeat CPU 0 instructions: 97000000 cycles: 141261994 heartbeat IPC: 0.411764 cumulative IPC: 0.381544 (Simulation time: 0 hr 56 min 39 sec) 
Heartbeat CPU 0 instructions: 98000000 cycles: 143782741 heartbeat IPC: 0.396708 cumulative IPC: 0.381848 (Simulation time: 0 hr 57 min 8 sec) 
Heartbeat CPU 0 instructions: 99000002 cycles: 146738684 heartbeat IPC: 0.338302 cumulative IPC: 0.380848 (Simulation time: 0 hr 57 min 36 sec) 
Heartbeat CPU 0 instructions: 100000000 cycles: 149488811 heartbeat IPC: 0.363619 cumulative IPC: 0.380487 (Simulation time: 0 hr 58 min 7 sec) 
Heartbeat CPU 0 instructions: 101000000 cycles: 152420393 heartbeat IPC: 0.341113 cumulative IPC: 0.379628 (Simulation time: 0 hr 58 min 37 sec) 
Heartbeat CPU 0 instructions: 102000001 cycles: 155884669 heartbeat IPC: 0.288661 cumulative IPC: 0.377341 (Simulation time: 0 hr 59 min 8 sec) 
Heartbeat CPU 0 instructions: 103000002 cycles: 159357636 heartbeat IPC: 0.287939 cumulative IPC: 0.375143 (Simulation time: 0 hr 59 min 37 sec) 
Heartbeat CPU 0 instructions: 104000000 cycles: 162461061 heartbeat IPC: 0.322224 cumulative IPC: 0.374006 (Simulation time: 1 hr 0 min 7 sec) 
Heartbeat CPU 0 instructions: 105000001 cycles: 165264947 heartbeat IPC: 0.356648 cumulative IPC: 0.373675 (Simulation time: 1 hr 0 min 37 sec) 
Heartbeat CPU 0 instructions: 106000001 cycles: 167877264 heartbeat IPC: 0.382802 cumulative IPC: 0.373834 (Simulation time: 1 hr 1 min 11 sec) 
Heartbeat CPU 0 instructions: 107000002 cycles: 170647977 heartbeat IPC: 0.360918 cumulative IPC: 0.3736 (Simulation time: 1 hr 1 min 45 sec) 
Heartbeat CPU 0 instructions: 108000000 cycles: 173568899 heartbeat IPC: 0.342357 cumulative IPC: 0.373013 (Simulation time: 1 hr 2 min 16 sec) 
Heartbeat CPU 0 instructions: 109000003 cycles: 176622320 heartbeat IPC: 0.327502 cumulative IPC: 0.372136 (Simulation time: 1 hr 2 min 46 sec) 
Heartbeat CPU 0 instructions: 110000003 cycles: 179614059 heartbeat IPC: 0.334254 cumulative IPC: 0.371435 (Simulation time: 1 hr 3 min 20 sec) 
Heartbeat CPU 0 instructions: 111000001 cycles: 182753502 heartbeat IPC: 0.318527 cumulative IPC: 0.370426 (Simulation time: 1 hr 3 min 51 sec) 
Heartbeat CPU 0 instructions: 112000000 cycles: 185935916 heartbeat IPC: 0.314227 cumulative IPC: 0.369361 (Simulation time: 1 hr 4 min 20 sec) 
Heartbeat CPU 0 instructions: 113000001 cycles: 188817787 heartbeat IPC: 0.346997 cumulative IPC: 0.368983 (Simulation time: 1 hr 4 min 51 sec) 
Heartbeat CPU 0 instructions: 114000000 cycles: 191553937 heartbeat IPC: 0.365477 cumulative IPC: 0.368928 (Simulation time: 1 hr 5 min 21 sec) 
Heartbeat CPU 0 instructions: 115000000 cycles: 194293037 heartbeat IPC: 0.365083 cumulative IPC: 0.368868 (Simulation time: 1 hr 5 min 51 sec) 
Heartbeat CPU 0 instructions: 116000000 cycles: 196995240 heartbeat IPC: 0.370068 cumulative IPC: 0.368886 (Simulation time: 1 hr 6 min 21 sec) 
Heartbeat CPU 0 instructions: 117000001 cycles: 199343832 heartbeat IPC: 0.425787 cumulative IPC: 0.369623 (Simulation time: 1 hr 6 min 49 sec) 
Heartbeat CPU 0 instructions: 118000002 cycles: 201629442 heartbeat IPC: 0.43752 cumulative IPC: 0.370469 (Simulation time: 1 hr 7 min 16 sec) 
Heartbeat CPU 0 instructions: 119000002 cycles: 204149639 heartbeat IPC: 0.396794 cumulative IPC: 0.370825 (Simulation time: 1 hr 7 min 45 sec) 
Heartbeat CPU 0 instructions: 120000000 cycles: 206903095 heartbeat IPC: 0.363179 cumulative IPC: 0.370714 (Simulation time: 1 hr 8 min 17 sec) 
Heartbeat CPU 0 instructions: 121000002 cycles: 209609870 heartbeat IPC: 0.369444 cumulative IPC: 0.370696 (Simulation time: 1 hr 8 min 48 sec) 
Heartbeat CPU 0 instructions: 122000001 cycles: 212547689 heartbeat IPC: 0.340388 cumulative IPC: 0.370238 (Simulation time: 1 hr 9 min 16 sec) 
Heartbeat CPU 0 instructions: 123000000 cycles: 215813870 heartbeat IPC: 0.306168 cumulative IPC: 0.36918 (Simulation time: 1 hr 9 min 46 sec) 
Heartbeat CPU 0 instructions: 124000000 cycles: 219356076 heartbeat IPC: 0.28231 cumulative IPC: 0.367651 (Simulation time: 1 hr 10 min 19 sec) 
Heartbeat CPU 0 instructions: 125000002 cycles: 222903955 heartbeat IPC: 0.281859 cumulative IPC: 0.366165 (Simulation time: 1 hr 10 min 51 sec) 
Heartbeat CPU 0 instructions: 126000000 cycles: 226828178 heartbeat IPC: 0.254827 cumulative IPC: 0.364072 (Simulation time: 1 hr 11 min 23 sec) 
Heartbeat CPU 0 instructions: 127000002 cycles: 231018075 heartbeat IPC: 0.23867 cumulative IPC: 0.361605 (Simulation time: 1 hr 11 min 55 sec) 
Heartbeat CPU 0 instructions: 128000000 cycles: 235150262 heartbeat IPC: 0.242002 cumulative IPC: 0.359328 (Simulation time: 1 hr 12 min 25 sec) 
Heartbeat CPU 0 instructions: 129000003 cycles: 239343392 heartbeat IPC: 0.238486 cumulative IPC: 0.357038 (Simulation time: 1 hr 12 min 51 sec) 
Heartbeat CPU 0 instructions: 130000003 cycles: 243468800 heartbeat IPC: 0.2424 cumulative IPC: 0.354939 (Simulation time: 1 hr 13 min 20 sec) 
Heartbeat CPU 0 instructions: 131000000 cycles: 247374345 heartbeat IPC: 0.256045 cumulative IPC: 0.353255 (Simulation time: 1 hr 13 min 47 sec) 
Heartbeat CPU 0 instructions: 132000000 cycles: 251470327 heartbeat IPC: 0.244142 cumulative IPC: 0.35134 (Simulation time: 1 hr 14 min 14 sec) 
Heartbeat CPU 0 instructions: 133000002 cycles: 255453942 heartbeat IPC: 0.251029 cumulative IPC: 0.349657 (Simulation time: 1 hr 14 min 40 sec) 
Heartbeat CPU 0 instructions: 134000000 cycles: 259449916 heartbeat IPC: 0.250251 cumulative IPC: 0.348011 (Simulation time: 1 hr 15 min 7 sec) 
Heartbeat CPU 0 instructions: 135000001 cycles: 263651372 heartbeat IPC: 0.238013 cumulative IPC: 0.346129 (Simulation time: 1 hr 15 min 35 sec) 
Heartbeat CPU 0 instructions: 136000000 cycles: 268127295 heartbeat IPC: 0.223417 cumulative IPC: 0.343933 (Simulation time: 1 hr 16 min 2 sec) 
Heartbeat CPU 0 instructions: 137000000 cycles: 272756744 heartbeat IPC: 0.216008 cumulative IPC: 0.341607 (Simulation time: 1 hr 16 min 29 sec) 
Heartbeat CPU 0 instructions: 138000000 cycles: 276603548 heartbeat IPC: 0.259956 cumulative IPC: 0.340392 (Simulation time: 1 hr 16 min 54 sec) 
Heartbeat CPU 0 instructions: 139000001 cycles: 278887235 heartbeat IPC: 0.437889 cumulative IPC: 0.341246 (Simulation time: 1 hr 17 min 19 sec) 
Heartbeat CPU 0 instructions: 140000000 cycles: 281463986 heartbeat IPC: 0.388085 cumulative IPC: 0.341704 (Simulation time: 1 hr 17 min 46 sec) 
Heartbeat CPU 0 instructions: 141000000 cycles: 283612791 heartbeat IPC: 0.465375 cumulative IPC: 0.342705 (Simulation time: 1 hr 18 min 10 sec) 
Heartbeat CPU 0 instructions: 142000000 cycles: 285973786 heartbeat IPC: 0.42355 cumulative IPC: 0.343417 (Simulation time: 1 hr 18 min 33 sec) 
Heartbeat CPU 0 instructions: 143000000 cycles: 288538308 heartbeat IPC: 0.389936 cumulative IPC: 0.343859 (Simulation time: 1 hr 18 min 54 sec) 
Heartbeat CPU 0 instructions: 144000000 cycles: 291069525 heartbeat IPC: 0.395067 cumulative IPC: 0.344333 (Simulation time: 1 hr 19 min 16 sec) 
Heartbeat CPU 0 instructions: 145000000 cycles: 293480849 heartbeat IPC: 0.41471 cumulative IPC: 0.34495 (Simulation time: 1 hr 19 min 37 sec) 
Heartbeat CPU 0 instructions: 146000001 cycles: 296269840 heartbeat IPC: 0.358553 cumulative IPC: 0.345086 (Simulation time: 1 hr 19 min 58 sec) 
Heartbeat CPU 0 instructions: 147000001 cycles: 298932942 heartbeat IPC: 0.375502 cumulative IPC: 0.345374 (Simulation time: 1 hr 20 min 19 sec) 
Heartbeat CPU 0 instructions: 148000000 cycles: 301615346 heartbeat IPC: 0.3728 cumulative IPC: 0.345634 (Simulation time: 1 hr 20 min 40 sec) 
Heartbeat CPU 0 instructions: 149000002 cycles: 304203357 heartbeat IPC: 0.386398 cumulative IPC: 0.346003 (Simulation time: 1 hr 21 min 1 sec) 
Heartbeat CPU 0 instructions: 150000001 cycles: 307370413 heartbeat IPC: 0.31575 cumulative IPC: 0.345671 (Simulation time: 1 hr 21 min 23 sec) 
Finished CPU 0 instructions: 100000000 cycles: 289292155 cummulative IPC: 0.345671 (Simulation time: 1 hr 21 min 23 sec) 

ChampSim completed all CPUs

Region of Interest Statistics

CPU 0 cummulative IPC: 0.345671 instructions: 100000000 cycles: 289292155
LLC TOTAL     ACCESS:    5177838  HIT:    4881145  MISS:     296693
LLC LOAD      ACCESS:    2110912  HIT:    2001107  MISS:     109805
LLC RFO       ACCESS:      25553  HIT:      25054  MISS:        499
LLC PREFETCH  ACCESS:    2248614  HIT:    2064238  MISS:     184376
LLC WRITEBACK ACCESS:     792759  HIT:     790746  MISS:       2013
OPTgen accesses: 51963
OPTgen hits: 65976
OPTgen hit rate: 126.967


