
*** ChampSim Multicore Out-of-Order Simulator ***

Warmup Instructions: 50000000
Simulation Instructions: 100000000
Configuration: 2
Number of CPUs: 1
LLC sets: 2048
LLC ways: 16
Off-chip DRAM Channels: 1 Width: 64-bit Data Rate: 1600 MT/s

CPU 0 runs /datasets/cs240c-wi22-a00-public/data/Assignment2-gz/cactusADM_734B.trace.gz
CPU 0 L1D next line prefetcher
CPU 0 L2C IP-based stride prefetcher
Initialize Hawkeye state
Heartbeat CPU 0 instructions: 1000003 cycles: 592726 heartbeat IPC: 1.68713 cumulative IPC: 1.68713 (Simulation time: 0 hr 0 min 46 sec) 
Heartbeat CPU 0 instructions: 2000001 cycles: 1185927 heartbeat IPC: 1.68577 cumulative IPC: 1.68645 (Simulation time: 0 hr 1 min 32 sec) 
Heartbeat CPU 0 instructions: 3000003 cycles: 1778979 heartbeat IPC: 1.6862 cumulative IPC: 1.68636 (Simulation time: 0 hr 2 min 17 sec) 
Heartbeat CPU 0 instructions: 4000000 cycles: 2371929 heartbeat IPC: 1.68648 cumulative IPC: 1.68639 (Simulation time: 0 hr 3 min 3 sec) 
Heartbeat CPU 0 instructions: 5000000 cycles: 2965279 heartbeat IPC: 1.68535 cumulative IPC: 1.68618 (Simulation time: 0 hr 3 min 50 sec) 
Heartbeat CPU 0 instructions: 6000002 cycles: 3558551 heartbeat IPC: 1.68557 cumulative IPC: 1.68608 (Simulation time: 0 hr 4 min 33 sec) 
Heartbeat CPU 0 instructions: 7000000 cycles: 4151394 heartbeat IPC: 1.68678 cumulative IPC: 1.68618 (Simulation time: 0 hr 5 min 19 sec) 
Heartbeat CPU 0 instructions: 8000000 cycles: 4744343 heartbeat IPC: 1.68649 cumulative IPC: 1.68622 (Simulation time: 0 hr 6 min 5 sec) 
Heartbeat CPU 0 instructions: 9000001 cycles: 5337493 heartbeat IPC: 1.68592 cumulative IPC: 1.68619 (Simulation time: 0 hr 6 min 51 sec) 
Heartbeat CPU 0 instructions: 10000003 cycles: 5958967 heartbeat IPC: 1.60908 cumulative IPC: 1.67814 (Simulation time: 0 hr 7 min 40 sec) 
Heartbeat CPU 0 instructions: 11000003 cycles: 6686336 heartbeat IPC: 1.37482 cumulative IPC: 1.64515 (Simulation time: 0 hr 8 min 33 sec) 
Heartbeat CPU 0 instructions: 12000000 cycles: 7279034 heartbeat IPC: 1.68719 cumulative IPC: 1.64857 (Simulation time: 0 hr 9 min 19 sec) 
Heartbeat CPU 0 instructions: 13000002 cycles: 7872643 heartbeat IPC: 1.68461 cumulative IPC: 1.65129 (Simulation time: 0 hr 10 min 6 sec) 
Heartbeat CPU 0 instructions: 14000000 cycles: 8465789 heartbeat IPC: 1.68592 cumulative IPC: 1.65371 (Simulation time: 0 hr 10 min 51 sec) 
Heartbeat CPU 0 instructions: 15000000 cycles: 9058690 heartbeat IPC: 1.68662 cumulative IPC: 1.65587 (Simulation time: 0 hr 11 min 38 sec) 
Heartbeat CPU 0 instructions: 16000000 cycles: 9651934 heartbeat IPC: 1.68565 cumulative IPC: 1.6577 (Simulation time: 0 hr 12 min 24 sec) 
Heartbeat CPU 0 instructions: 17000002 cycles: 10245052 heartbeat IPC: 1.68601 cumulative IPC: 1.65934 (Simulation time: 0 hr 13 min 8 sec) 
Heartbeat CPU 0 instructions: 18000001 cycles: 10838494 heartbeat IPC: 1.68508 cumulative IPC: 1.66075 (Simulation time: 0 hr 13 min 54 sec) 
Heartbeat CPU 0 instructions: 19000001 cycles: 11431295 heartbeat IPC: 1.68691 cumulative IPC: 1.6621 (Simulation time: 0 hr 14 min 38 sec) 
Heartbeat CPU 0 instructions: 20000000 cycles: 12024523 heartbeat IPC: 1.68569 cumulative IPC: 1.66327 (Simulation time: 0 hr 15 min 24 sec) 
Heartbeat CPU 0 instructions: 21000002 cycles: 12617792 heartbeat IPC: 1.68558 cumulative IPC: 1.66432 (Simulation time: 0 hr 16 min 9 sec) 
Heartbeat CPU 0 instructions: 22000000 cycles: 13210834 heartbeat IPC: 1.68622 cumulative IPC: 1.6653 (Simulation time: 0 hr 16 min 54 sec) 
Heartbeat CPU 0 instructions: 23000001 cycles: 13804229 heartbeat IPC: 1.68522 cumulative IPC: 1.66616 (Simulation time: 0 hr 17 min 44 sec) 
Heartbeat CPU 0 instructions: 24000000 cycles: 14558145 heartbeat IPC: 1.32641 cumulative IPC: 1.64856 (Simulation time: 0 hr 18 min 39 sec) 
Heartbeat CPU 0 instructions: 25000000 cycles: 15151144 heartbeat IPC: 1.68634 cumulative IPC: 1.65004 (Simulation time: 0 hr 19 min 24 sec) 
Heartbeat CPU 0 instructions: 26000001 cycles: 15743819 heartbeat IPC: 1.68727 cumulative IPC: 1.65144 (Simulation time: 0 hr 20 min 9 sec) 
Heartbeat CPU 0 instructions: 27000003 cycles: 16337211 heartbeat IPC: 1.68523 cumulative IPC: 1.65267 (Simulation time: 0 hr 20 min 54 sec) 
Heartbeat CPU 0 instructions: 28000000 cycles: 16930187 heartbeat IPC: 1.6864 cumulative IPC: 1.65385 (Simulation time: 0 hr 21 min 41 sec) 
Heartbeat CPU 0 instructions: 29000001 cycles: 17523460 heartbeat IPC: 1.68557 cumulative IPC: 1.65492 (Simulation time: 0 hr 22 min 27 sec) 
Heartbeat CPU 0 instructions: 30000001 cycles: 18116079 heartbeat IPC: 1.68742 cumulative IPC: 1.65599 (Simulation time: 0 hr 23 min 11 sec) 
Heartbeat CPU 0 instructions: 31000000 cycles: 18709216 heartbeat IPC: 1.68595 cumulative IPC: 1.65694 (Simulation time: 0 hr 23 min 57 sec) 
Heartbeat CPU 0 instructions: 32000000 cycles: 19302314 heartbeat IPC: 1.68606 cumulative IPC: 1.65783 (Simulation time: 0 hr 24 min 43 sec) 
Heartbeat CPU 0 instructions: 33000000 cycles: 19895072 heartbeat IPC: 1.68703 cumulative IPC: 1.6587 (Simulation time: 0 hr 25 min 30 sec) 
Heartbeat CPU 0 instructions: 34000002 cycles: 20488330 heartbeat IPC: 1.68561 cumulative IPC: 1.65948 (Simulation time: 0 hr 26 min 18 sec) 
Heartbeat CPU 0 instructions: 35000001 cycles: 21081360 heartbeat IPC: 1.68625 cumulative IPC: 1.66023 (Simulation time: 0 hr 27 min 3 sec) 
Heartbeat CPU 0 instructions: 36000000 cycles: 21674470 heartbeat IPC: 1.68603 cumulative IPC: 1.66094 (Simulation time: 0 hr 27 min 49 sec) 
Heartbeat CPU 0 instructions: 37000003 cycles: 22428144 heartbeat IPC: 1.32684 cumulative IPC: 1.64971 (Simulation time: 0 hr 28 min 42 sec) 
Heartbeat CPU 0 instructions: 38000001 cycles: 23021229 heartbeat IPC: 1.6861 cumulative IPC: 1.65065 (Simulation time: 0 hr 29 min 30 sec) 
Heartbeat CPU 0 instructions: 39000003 cycles: 23614211 heartbeat IPC: 1.6864 cumulative IPC: 1.65155 (Simulation time: 0 hr 30 min 18 sec) 
Heartbeat CPU 0 instructions: 40000000 cycles: 24207017 heartbeat IPC: 1.68689 cumulative IPC: 1.65241 (Simulation time: 0 hr 31 min 6 sec) 
Heartbeat CPU 0 instructions: 41000001 cycles: 24800241 heartbeat IPC: 1.68571 cumulative IPC: 1.65321 (Simulation time: 0 hr 31 min 51 sec) 
Heartbeat CPU 0 instructions: 42000002 cycles: 25393317 heartbeat IPC: 1.68613 cumulative IPC: 1.65398 (Simulation time: 0 hr 32 min 37 sec) 
Heartbeat CPU 0 instructions: 43000000 cycles: 25986379 heartbeat IPC: 1.68616 cumulative IPC: 1.65471 (Simulation time: 0 hr 33 min 23 sec) 
Heartbeat CPU 0 instructions: 44000000 cycles: 26579231 heartbeat IPC: 1.68676 cumulative IPC: 1.65543 (Simulation time: 0 hr 34 min 11 sec) 
Heartbeat CPU 0 instructions: 45000003 cycles: 27172203 heartbeat IPC: 1.68643 cumulative IPC: 1.6561 (Simulation time: 0 hr 35 min 0 sec) 
Heartbeat CPU 0 instructions: 46000003 cycles: 27765457 heartbeat IPC: 1.68562 cumulative IPC: 1.65673 (Simulation time: 0 hr 35 min 51 sec) 
Heartbeat CPU 0 instructions: 47000001 cycles: 28358068 heartbeat IPC: 1.68744 cumulative IPC: 1.65738 (Simulation time: 0 hr 36 min 39 sec) 
Heartbeat CPU 0 instructions: 48000000 cycles: 28951032 heartbeat IPC: 1.68644 cumulative IPC: 1.65797 (Simulation time: 0 hr 37 min 26 sec) 
Heartbeat CPU 0 instructions: 49000000 cycles: 29544027 heartbeat IPC: 1.68635 cumulative IPC: 1.65854 (Simulation time: 0 hr 38 min 13 sec) 
Heartbeat CPU 0 instructions: 50000000 cycles: 30298294 heartbeat IPC: 1.32579 cumulative IPC: 1.65026 (Simulation time: 0 hr 39 min 3 sec) 

Warmup complete CPU 0 instructions: 50000004 cycles: 30298295 (Simulation time: 0 hr 39 min 3 sec) 

Heartbeat CPU 0 instructions: 51000000 cycles: 32025818 heartbeat IPC: 0.578863 cumulative IPC: 0.578861 (Simulation time: 0 hr 39 min 47 sec) 
Heartbeat CPU 0 instructions: 52000000 cycles: 33763336 heartbeat IPC: 0.575534 cumulative IPC: 0.577193 (Simulation time: 0 hr 40 min 34 sec) 
Heartbeat CPU 0 instructions: 53000003 cycles: 35500196 heartbeat IPC: 0.575753 cumulative IPC: 0.576712 (Simulation time: 0 hr 41 min 17 sec) 
Heartbeat CPU 0 instructions: 54000000 cycles: 37186513 heartbeat IPC: 0.593007 cumulative IPC: 0.580701 (Simulation time: 0 hr 41 min 58 sec) 
Heartbeat CPU 0 instructions: 55000001 cycles: 38860935 heartbeat IPC: 0.597222 cumulative IPC: 0.583932 (Simulation time: 0 hr 42 min 39 sec) 
Heartbeat CPU 0 instructions: 56000000 cycles: 40611681 heartbeat IPC: 0.571185 cumulative IPC: 0.581768 (Simulation time: 0 hr 43 min 21 sec) 
Heartbeat CPU 0 instructions: 57000000 cycles: 42359644 heartbeat IPC: 0.572095 cumulative IPC: 0.580366 (Simulation time: 0 hr 44 min 5 sec) 
Heartbeat CPU 0 instructions: 58000001 cycles: 44092297 heartbeat IPC: 0.57715 cumulative IPC: 0.579962 (Simulation time: 0 hr 44 min 45 sec) 
Heartbeat CPU 0 instructions: 59000000 cycles: 45750107 heartbeat IPC: 0.603205 cumulative IPC: 0.582456 (Simulation time: 0 hr 45 min 26 sec) 
Heartbeat CPU 0 instructions: 60000000 cycles: 47456164 heartbeat IPC: 0.586147 cumulative IPC: 0.582823 (Simulation time: 0 hr 46 min 8 sec) 
Heartbeat CPU 0 instructions: 61000002 cycles: 49195873 heartbeat IPC: 0.57481 cumulative IPC: 0.582085 (Simulation time: 0 hr 46 min 49 sec) 
Heartbeat CPU 0 instructions: 62000002 cycles: 50936698 heartbeat IPC: 0.57444 cumulative IPC: 0.58144 (Simulation time: 0 hr 47 min 28 sec) 
Heartbeat CPU 0 instructions: 63000002 cycles: 58292622 heartbeat IPC: 0.135945 cumulative IPC: 0.46438 (Simulation time: 0 hr 48 min 14 sec) 
Heartbeat CPU 0 instructions: 64000000 cycles: 60240239 heartbeat IPC: 0.513447 cumulative IPC: 0.467571 (Simulation time: 0 hr 48 min 56 sec) 
Heartbeat CPU 0 instructions: 65000003 cycles: 61976526 heartbeat IPC: 0.575943 cumulative IPC: 0.473511 (Simulation time: 0 hr 49 min 37 sec) 
Heartbeat CPU 0 instructions: 66000001 cycles: 63715770 heartbeat IPC: 0.574961 cumulative IPC: 0.478791 (Simulation time: 0 hr 50 min 17 sec) 
Heartbeat CPU 0 instructions: 67000000 cycles: 65449513 heartbeat IPC: 0.576786 cumulative IPC: 0.483625 (Simulation time: 0 hr 50 min 59 sec) 
Heartbeat CPU 0 instructions: 68000000 cycles: 67112058 heartbeat IPC: 0.601487 cumulative IPC: 0.488947 (Simulation time: 0 hr 51 min 40 sec) 
Heartbeat CPU 0 instructions: 69000000 cycles: 68811827 heartbeat IPC: 0.588315 cumulative IPC: 0.493333 (Simulation time: 0 hr 52 min 23 sec) 
Heartbeat CPU 0 instructions: 70000001 cycles: 70551675 heartbeat IPC: 0.574763 cumulative IPC: 0.496853 (Simulation time: 0 hr 53 min 4 sec) 
Heartbeat CPU 0 instructions: 71000001 cycles: 72292685 heartbeat IPC: 0.574379 cumulative IPC: 0.500067 (Simulation time: 0 hr 53 min 44 sec) 
Heartbeat CPU 0 instructions: 72000000 cycles: 74013526 heartbeat IPC: 0.581111 cumulative IPC: 0.503257 (Simulation time: 0 hr 54 min 25 sec) 
Heartbeat CPU 0 instructions: 73000003 cycles: 75662683 heartbeat IPC: 0.606372 cumulative IPC: 0.507006 (Simulation time: 0 hr 55 min 6 sec) 
Heartbeat CPU 0 instructions: 74000002 cycles: 77394490 heartbeat IPC: 0.577431 cumulative IPC: 0.509595 (Simulation time: 0 hr 55 min 47 sec) 
Heartbeat CPU 0 instructions: 75000002 cycles: 79135219 heartbeat IPC: 0.574472 cumulative IPC: 0.511908 (Simulation time: 0 hr 56 min 29 sec) 
Heartbeat CPU 0 instructions: 76000000 cycles: 85297549 heartbeat IPC: 0.162276 cumulative IPC: 0.472734 (Simulation time: 0 hr 57 min 13 sec) 
Heartbeat CPU 0 instructions: 77000000 cycles: 88474628 heartbeat IPC: 0.314755 cumulative IPC: 0.464106 (Simulation time: 0 hr 57 min 54 sec) 
Heartbeat CPU 0 instructions: 78000002 cycles: 90169725 heartbeat IPC: 0.589938 cumulative IPC: 0.467669 (Simulation time: 0 hr 58 min 35 sec) 
Heartbeat CPU 0 instructions: 79000002 cycles: 91909678 heartbeat IPC: 0.574728 cumulative IPC: 0.470692 (Simulation time: 0 hr 59 min 15 sec) 
Heartbeat CPU 0 instructions: 80000000 cycles: 93645560 heartbeat IPC: 0.576075 cumulative IPC: 0.47358 (Simulation time: 0 hr 59 min 59 sec) 
Heartbeat CPU 0 instructions: 81000000 cycles: 95371075 heartbeat IPC: 0.579537 cumulative IPC: 0.47639 (Simulation time: 1 hr 0 min 40 sec) 
Heartbeat CPU 0 instructions: 82000003 cycles: 97014960 heartbeat IPC: 0.608317 cumulative IPC: 0.47964 (Simulation time: 1 hr 1 min 22 sec) 
Heartbeat CPU 0 instructions: 83000003 cycles: 98743322 heartbeat IPC: 0.578583 cumulative IPC: 0.482139 (Simulation time: 1 hr 2 min 1 sec) 
Heartbeat CPU 0 instructions: 84000000 cycles: 100481953 heartbeat IPC: 0.575163 cumulative IPC: 0.484443 (Simulation time: 1 hr 2 min 41 sec) 
Heartbeat CPU 0 instructions: 85000003 cycles: 102220947 heartbeat IPC: 0.575047 cumulative IPC: 0.486634 (Simulation time: 1 hr 3 min 25 sec) 
Heartbeat CPU 0 instructions: 86000000 cycles: 103915006 heartbeat IPC: 0.590296 cumulative IPC: 0.489019 (Simulation time: 1 hr 4 min 4 sec) 
Heartbeat CPU 0 instructions: 87000000 cycles: 105587690 heartbeat IPC: 0.597842 cumulative IPC: 0.491437 (Simulation time: 1 hr 4 min 44 sec) 
Heartbeat CPU 0 instructions: 88000000 cycles: 107355205 heartbeat IPC: 0.565766 cumulative IPC: 0.493142 (Simulation time: 1 hr 5 min 25 sec) 
Heartbeat CPU 0 instructions: 89000002 cycles: 112447142 heartbeat IPC: 0.196389 cumulative IPC: 0.474748 (Simulation time: 1 hr 6 min 9 sec) 
Heartbeat CPU 0 instructions: 90000002 cycles: 116698261 heartbeat IPC: 0.235232 cumulative IPC: 0.462963 (Simulation time: 1 hr 6 min 53 sec) 
Heartbeat CPU 0 instructions: 91000003 cycles: 118344354 heartbeat IPC: 0.6075 cumulative IPC: 0.465665 (Simulation time: 1 hr 7 min 31 sec) 
Heartbeat CPU 0 instructions: 92000000 cycles: 120071930 heartbeat IPC: 0.578844 cumulative IPC: 0.467843 (Simulation time: 1 hr 8 min 12 sec) 
Heartbeat CPU 0 instructions: 93000000 cycles: 121810384 heartbeat IPC: 0.575224 cumulative IPC: 0.469883 (Simulation time: 1 hr 8 min 50 sec) 
Heartbeat CPU 0 instructions: 94000003 cycles: 123550810 heartbeat IPC: 0.574574 cumulative IPC: 0.471837 (Simulation time: 1 hr 9 min 33 sec) 
Heartbeat CPU 0 instructions: 95000000 cycles: 125249047 heartbeat IPC: 0.588844 cumulative IPC: 0.47393 (Simulation time: 1 hr 10 min 16 sec) 
Heartbeat CPU 0 instructions: 96000000 cycles: 126918868 heartbeat IPC: 0.598867 cumulative IPC: 0.476089 (Simulation time: 1 hr 10 min 57 sec) 
Heartbeat CPU 0 instructions: 97000001 cycles: 128654171 heartbeat IPC: 0.576269 cumulative IPC: 0.477857 (Simulation time: 1 hr 11 min 36 sec) 
Heartbeat CPU 0 instructions: 98000000 cycles: 130394177 heartbeat IPC: 0.57471 cumulative IPC: 0.47954 (Simulation time: 1 hr 12 min 14 sec) 
Heartbeat CPU 0 instructions: 99000001 cycles: 132132544 heartbeat IPC: 0.575253 cumulative IPC: 0.481174 (Simulation time: 1 hr 12 min 49 sec) 
Heartbeat CPU 0 instructions: 100000000 cycles: 133800851 heartbeat IPC: 0.599409 cumulative IPC: 0.48308 (Simulation time: 1 hr 13 min 26 sec) 
Heartbeat CPU 0 instructions: 101000000 cycles: 135502808 heartbeat IPC: 0.587559 cumulative IPC: 0.48477 (Simulation time: 1 hr 14 min 3 sec) 
Heartbeat CPU 0 instructions: 102000002 cycles: 139516460 heartbeat IPC: 0.24915 cumulative IPC: 0.476111 (Simulation time: 1 hr 14 min 42 sec) 
Heartbeat CPU 0 instructions: 103000000 cycles: 144850238 heartbeat IPC: 0.187484 cumulative IPC: 0.462672 (Simulation time: 1 hr 15 min 22 sec) 
Heartbeat CPU 0 instructions: 104000000 cycles: 146552597 heartbeat IPC: 0.58742 cumulative IPC: 0.464499 (Simulation time: 1 hr 15 min 58 sec) 
Heartbeat CPU 0 instructions: 105000000 cycles: 148215271 heartbeat IPC: 0.601441 cumulative IPC: 0.46643 (Simulation time: 1 hr 16 min 32 sec) 
Heartbeat CPU 0 instructions: 106000002 cycles: 149947156 heartbeat IPC: 0.577407 cumulative IPC: 0.468036 (Simulation time: 1 hr 17 min 6 sec) 
Heartbeat CPU 0 instructions: 107000001 cycles: 151687564 heartbeat IPC: 0.574577 cumulative IPC: 0.469564 (Simulation time: 1 hr 17 min 40 sec) 
Heartbeat CPU 0 instructions: 108000000 cycles: 153422141 heartbeat IPC: 0.576509 cumulative IPC: 0.47107 (Simulation time: 1 hr 18 min 13 sec) 
Heartbeat CPU 0 instructions: 109000001 cycles: 155095395 heartbeat IPC: 0.597638 cumulative IPC: 0.472767 (Simulation time: 1 hr 18 min 43 sec) 
Heartbeat CPU 0 instructions: 110000003 cycles: 156788391 heartbeat IPC: 0.59067 cumulative IPC: 0.474345 (Simulation time: 1 hr 19 min 12 sec) 
Heartbeat CPU 0 instructions: 111000002 cycles: 158527133 heartbeat IPC: 0.575128 cumulative IPC: 0.475712 (Simulation time: 1 hr 19 min 42 sec) 
Heartbeat CPU 0 instructions: 112000000 cycles: 160266985 heartbeat IPC: 0.57476 cumulative IPC: 0.477038 (Simulation time: 1 hr 20 min 12 sec) 
Heartbeat CPU 0 instructions: 113000002 cycles: 161993987 heartbeat IPC: 0.579039 cumulative IPC: 0.478376 (Simulation time: 1 hr 20 min 41 sec) 
Heartbeat CPU 0 instructions: 114000000 cycles: 163641343 heartbeat IPC: 0.607032 cumulative IPC: 0.479965 (Simulation time: 1 hr 21 min 10 sec) 
Heartbeat CPU 0 instructions: 115000002 cycles: 166446800 heartbeat IPC: 0.356449 cumulative IPC: 0.47742 (Simulation time: 1 hr 21 min 40 sec) 
Heartbeat CPU 0 instructions: 116000000 cycles: 172966290 heartbeat IPC: 0.153386 cumulative IPC: 0.462612 (Simulation time: 1 hr 22 min 13 sec) 
Heartbeat CPU 0 instructions: 117000000 cycles: 174715691 heartbeat IPC: 0.571624 cumulative IPC: 0.463933 (Simulation time: 1 hr 22 min 44 sec) 
Heartbeat CPU 0 instructions: 118000002 cycles: 176394327 heartbeat IPC: 0.595723 cumulative IPC: 0.465447 (Simulation time: 1 hr 23 min 15 sec) 
Heartbeat CPU 0 instructions: 119000003 cycles: 178084100 heartbeat IPC: 0.591796 cumulative IPC: 0.466892 (Simulation time: 1 hr 23 min 46 sec) 
Heartbeat CPU 0 instructions: 120000000 cycles: 179824817 heartbeat IPC: 0.574474 cumulative IPC: 0.468144 (Simulation time: 1 hr 24 min 17 sec) 
Heartbeat CPU 0 instructions: 121000001 cycles: 181566766 heartbeat IPC: 0.57407 cumulative IPC: 0.469364 (Simulation time: 1 hr 24 min 47 sec) 
Heartbeat CPU 0 instructions: 122000003 cycles: 183297621 heartbeat IPC: 0.57775 cumulative IPC: 0.47059 (Simulation time: 1 hr 25 min 17 sec) 
Heartbeat CPU 0 instructions: 123000000 cycles: 184951149 heartbeat IPC: 0.604766 cumulative IPC: 0.472025 (Simulation time: 1 hr 25 min 45 sec) 
Heartbeat CPU 0 instructions: 124000000 cycles: 186676429 heartbeat IPC: 0.579616 cumulative IPC: 0.473212 (Simulation time: 1 hr 26 min 13 sec) 
Heartbeat CPU 0 instructions: 125000002 cycles: 188419525 heartbeat IPC: 0.573693 cumulative IPC: 0.47432 (Simulation time: 1 hr 26 min 39 sec) 
Heartbeat CPU 0 instructions: 126000000 cycles: 190159885 heartbeat IPC: 0.574593 cumulative IPC: 0.475411 (Simulation time: 1 hr 27 min 8 sec) 
Heartbeat CPU 0 instructions: 127000001 cycles: 191865727 heartbeat IPC: 0.586221 cumulative IPC: 0.476581 (Simulation time: 1 hr 27 min 36 sec) 
Heartbeat CPU 0 instructions: 128000000 cycles: 193537672 heartbeat IPC: 0.598105 cumulative IPC: 0.477826 (Simulation time: 1 hr 28 min 1 sec) 
Heartbeat CPU 0 instructions: 129000002 cycles: 201162431 heartbeat IPC: 0.131152 cumulative IPC: 0.462356 (Simulation time: 1 hr 28 min 31 sec) 
Heartbeat CPU 0 instructions: 130000001 cycles: 202901579 heartbeat IPC: 0.574994 cumulative IPC: 0.463491 (Simulation time: 1 hr 28 min 55 sec) 
Heartbeat CPU 0 instructions: 131000002 cycles: 204634493 heartbeat IPC: 0.577063 cumulative IPC: 0.46462 (Simulation time: 1 hr 29 min 18 sec) 
Heartbeat CPU 0 instructions: 132000000 cycles: 206290444 heartbeat IPC: 0.603881 cumulative IPC: 0.46593 (Simulation time: 1 hr 29 min 40 sec) 
Heartbeat CPU 0 instructions: 133000000 cycles: 208009217 heartbeat IPC: 0.58181 cumulative IPC: 0.467051 (Simulation time: 1 hr 30 min 1 sec) 
Heartbeat CPU 0 instructions: 134000000 cycles: 209750118 heartbeat IPC: 0.574415 cumulative IPC: 0.468092 (Simulation time: 1 hr 30 min 22 sec) 
Heartbeat CPU 0 instructions: 135000003 cycles: 211491994 heartbeat IPC: 0.574095 cumulative IPC: 0.469111 (Simulation time: 1 hr 30 min 42 sec) 
Heartbeat CPU 0 instructions: 136000000 cycles: 213199635 heartbeat IPC: 0.585601 cumulative IPC: 0.470199 (Simulation time: 1 hr 31 min 3 sec) 
Heartbeat CPU 0 instructions: 137000001 cycles: 214864229 heartbeat IPC: 0.600748 cumulative IPC: 0.471376 (Simulation time: 1 hr 31 min 20 sec) 
Heartbeat CPU 0 instructions: 138000003 cycles: 216599536 heartbeat IPC: 0.576268 cumulative IPC: 0.472353 (Simulation time: 1 hr 31 min 37 sec) 
Heartbeat CPU 0 instructions: 139000000 cycles: 218341644 heartbeat IPC: 0.574015 cumulative IPC: 0.473295 (Simulation time: 1 hr 31 min 54 sec) 
Heartbeat CPU 0 instructions: 140000000 cycles: 220080849 heartbeat IPC: 0.574975 cumulative IPC: 0.474227 (Simulation time: 1 hr 32 min 10 sec) 
Heartbeat CPU 0 instructions: 141000002 cycles: 221758262 heartbeat IPC: 0.596157 cumulative IPC: 0.475295 (Simulation time: 1 hr 32 min 26 sec) 
Heartbeat CPU 0 instructions: 142000000 cycles: 228889438 heartbeat IPC: 0.140229 cumulative IPC: 0.463263 (Simulation time: 1 hr 32 min 44 sec) 
Heartbeat CPU 0 instructions: 143000000 cycles: 230630430 heartbeat IPC: 0.574385 cumulative IPC: 0.464229 (Simulation time: 1 hr 32 min 58 sec) 
Heartbeat CPU 0 instructions: 144000000 cycles: 232373691 heartbeat IPC: 0.573638 cumulative IPC: 0.465173 (Simulation time: 1 hr 33 min 11 sec) 
Heartbeat CPU 0 instructions: 145000002 cycles: 234086469 heartbeat IPC: 0.583848 cumulative IPC: 0.46617 (Simulation time: 1 hr 33 min 24 sec) 
Heartbeat CPU 0 instructions: 146000003 cycles: 235748908 heartbeat IPC: 0.601526 cumulative IPC: 0.467266 (Simulation time: 1 hr 33 min 36 sec) 
Heartbeat CPU 0 instructions: 147000001 cycles: 237484081 heartbeat IPC: 0.57631 cumulative IPC: 0.468179 (Simulation time: 1 hr 33 min 47 sec) 
Heartbeat CPU 0 instructions: 148000000 cycles: 239266359 heartbeat IPC: 0.561079 cumulative IPC: 0.468971 (Simulation time: 1 hr 33 min 55 sec) 
Heartbeat CPU 0 instructions: 149000001 cycles: 241008098 heartbeat IPC: 0.574139 cumulative IPC: 0.46984 (Simulation time: 1 hr 34 min 3 sec) 
Heartbeat CPU 0 instructions: 150000000 cycles: 242687005 heartbeat IPC: 0.595625 cumulative IPC: 0.470835 (Simulation time: 1 hr 34 min 10 sec) 
Finished CPU 0 instructions: 100000000 cycles: 212388715 cummulative IPC: 0.470835 (Simulation time: 1 hr 34 min 10 sec) 

ChampSim completed all CPUs

Region of Interest Statistics

CPU 0 cummulative IPC: 0.470835 instructions: 100000000 cycles: 212388715
LLC TOTAL     ACCESS:    1107850  HIT:     292757  MISS:     815093
LLC LOAD      ACCESS:      19292  HIT:       2798  MISS:      16494
LLC RFO       ACCESS:     245174  HIT:      87693  MISS:     157481
LLC PREFETCH  ACCESS:     596821  HIT:      95647  MISS:     501174
LLC WRITEBACK ACCESS:     246563  HIT:     106619  MISS:     139944
OPTgen accesses: 6503
OPTgen hits: 2307
OPTgen hit rate: 35.4759


