
*** ChampSim Multicore Out-of-Order Simulator ***

Warmup Instructions: 50000000
Simulation Instructions: 100000000
Configuration: 2
Number of CPUs: 1
LLC sets: 2048
LLC ways: 16
Off-chip DRAM Channels: 1 Width: 64-bit Data Rate: 1600 MT/s

CPU 0 runs /datasets/cs240c-wi22-a00-public/data/Assignment2-gz/soplex_66B.trace.gz
CPU 0 L1D next line prefetcher
CPU 0 L2C IP-based stride prefetcher
Initialize Hawkeye state
Heartbeat CPU 0 instructions: 1000003 cycles: 415067 heartbeat IPC: 2.40926 cumulative IPC: 2.40926 (Simulation time: 0 hr 0 min 37 sec) 
Heartbeat CPU 0 instructions: 2000003 cycles: 837403 heartbeat IPC: 2.36778 cumulative IPC: 2.38834 (Simulation time: 0 hr 1 min 16 sec) 
Heartbeat CPU 0 instructions: 3000003 cycles: 1242517 heartbeat IPC: 2.46844 cumulative IPC: 2.41446 (Simulation time: 0 hr 1 min 55 sec) 
Heartbeat CPU 0 instructions: 4000000 cycles: 1626629 heartbeat IPC: 2.6034 cumulative IPC: 2.45907 (Simulation time: 0 hr 2 min 30 sec) 
Heartbeat CPU 0 instructions: 5000000 cycles: 2037657 heartbeat IPC: 2.43292 cumulative IPC: 2.4538 (Simulation time: 0 hr 3 min 8 sec) 
Heartbeat CPU 0 instructions: 6000000 cycles: 2509816 heartbeat IPC: 2.11793 cumulative IPC: 2.39061 (Simulation time: 0 hr 3 min 46 sec) 
Heartbeat CPU 0 instructions: 7000002 cycles: 2882008 heartbeat IPC: 2.68679 cumulative IPC: 2.42886 (Simulation time: 0 hr 4 min 25 sec) 
Heartbeat CPU 0 instructions: 8000000 cycles: 3307390 heartbeat IPC: 2.35082 cumulative IPC: 2.41883 (Simulation time: 0 hr 5 min 8 sec) 
Heartbeat CPU 0 instructions: 9000001 cycles: 3745909 heartbeat IPC: 2.28041 cumulative IPC: 2.40262 (Simulation time: 0 hr 5 min 47 sec) 
Heartbeat CPU 0 instructions: 10000002 cycles: 4158007 heartbeat IPC: 2.42661 cumulative IPC: 2.405 (Simulation time: 0 hr 6 min 26 sec) 
Heartbeat CPU 0 instructions: 11000001 cycles: 4569026 heartbeat IPC: 2.43298 cumulative IPC: 2.40752 (Simulation time: 0 hr 7 min 4 sec) 
Heartbeat CPU 0 instructions: 12000000 cycles: 4952961 heartbeat IPC: 2.6046 cumulative IPC: 2.42279 (Simulation time: 0 hr 7 min 37 sec) 
Heartbeat CPU 0 instructions: 13000003 cycles: 5352044 heartbeat IPC: 2.50575 cumulative IPC: 2.42898 (Simulation time: 0 hr 8 min 13 sec) 
Heartbeat CPU 0 instructions: 14000002 cycles: 5839864 heartbeat IPC: 2.04993 cumulative IPC: 2.39732 (Simulation time: 0 hr 8 min 51 sec) 
Heartbeat CPU 0 instructions: 15000003 cycles: 6214348 heartbeat IPC: 2.67034 cumulative IPC: 2.41377 (Simulation time: 0 hr 9 min 28 sec) 
Heartbeat CPU 0 instructions: 16000000 cycles: 6622380 heartbeat IPC: 2.45078 cumulative IPC: 2.41605 (Simulation time: 0 hr 10 min 6 sec) 
Heartbeat CPU 0 instructions: 17000001 cycles: 7076464 heartbeat IPC: 2.20224 cumulative IPC: 2.40233 (Simulation time: 0 hr 10 min 42 sec) 
Heartbeat CPU 0 instructions: 18000003 cycles: 7485516 heartbeat IPC: 2.44468 cumulative IPC: 2.40464 (Simulation time: 0 hr 11 min 19 sec) 
Heartbeat CPU 0 instructions: 19000002 cycles: 7903546 heartbeat IPC: 2.39217 cumulative IPC: 2.40398 (Simulation time: 0 hr 11 min 58 sec) 
Heartbeat CPU 0 instructions: 20000000 cycles: 8287516 heartbeat IPC: 2.60436 cumulative IPC: 2.41327 (Simulation time: 0 hr 12 min 32 sec) 
Heartbeat CPU 0 instructions: 21000000 cycles: 8682035 heartbeat IPC: 2.53473 cumulative IPC: 2.41879 (Simulation time: 0 hr 13 min 5 sec) 
Heartbeat CPU 0 instructions: 22000000 cycles: 9175904 heartbeat IPC: 2.02483 cumulative IPC: 2.39758 (Simulation time: 0 hr 13 min 42 sec) 
Heartbeat CPU 0 instructions: 23000002 cycles: 9549233 heartbeat IPC: 2.67861 cumulative IPC: 2.40857 (Simulation time: 0 hr 14 min 19 sec) 
Heartbeat CPU 0 instructions: 24000000 cycles: 9940751 heartbeat IPC: 2.55416 cumulative IPC: 2.4143 (Simulation time: 0 hr 14 min 56 sec) 
Heartbeat CPU 0 instructions: 25000003 cycles: 10418916 heartbeat IPC: 2.09133 cumulative IPC: 2.39948 (Simulation time: 0 hr 15 min 34 sec) 
Heartbeat CPU 0 instructions: 26000001 cycles: 10817784 heartbeat IPC: 2.50709 cumulative IPC: 2.40345 (Simulation time: 0 hr 16 min 10 sec) 
Heartbeat CPU 0 instructions: 27000002 cycles: 11235964 heartbeat IPC: 2.39132 cumulative IPC: 2.403 (Simulation time: 0 hr 16 min 51 sec) 
Heartbeat CPU 0 instructions: 28000000 cycles: 11620153 heartbeat IPC: 2.60288 cumulative IPC: 2.40961 (Simulation time: 0 hr 17 min 26 sec) 
Heartbeat CPU 0 instructions: 29000000 cycles: 12009893 heartbeat IPC: 2.56581 cumulative IPC: 2.41468 (Simulation time: 0 hr 18 min 3 sec) 
Heartbeat CPU 0 instructions: 30000003 cycles: 12508556 heartbeat IPC: 2.00537 cumulative IPC: 2.39836 (Simulation time: 0 hr 18 min 42 sec) 
Heartbeat CPU 0 instructions: 31000001 cycles: 12880747 heartbeat IPC: 2.68679 cumulative IPC: 2.40669 (Simulation time: 0 hr 19 min 20 sec) 
Heartbeat CPU 0 instructions: 32000000 cycles: 13260822 heartbeat IPC: 2.63106 cumulative IPC: 2.41312 (Simulation time: 0 hr 19 min 56 sec) 
Heartbeat CPU 0 instructions: 33000002 cycles: 13683681 heartbeat IPC: 2.36486 cumulative IPC: 2.41163 (Simulation time: 0 hr 20 min 36 sec) 
Heartbeat CPU 0 instructions: 34000003 cycles: 14095265 heartbeat IPC: 2.42964 cumulative IPC: 2.41216 (Simulation time: 0 hr 21 min 13 sec) 
Heartbeat CPU 0 instructions: 35000003 cycles: 14506023 heartbeat IPC: 2.43452 cumulative IPC: 2.41279 (Simulation time: 0 hr 21 min 54 sec) 
Heartbeat CPU 0 instructions: 36000000 cycles: 14889776 heartbeat IPC: 2.60583 cumulative IPC: 2.41777 (Simulation time: 0 hr 22 min 29 sec) 
Heartbeat CPU 0 instructions: 37000000 cycles: 15288022 heartbeat IPC: 2.51101 cumulative IPC: 2.4202 (Simulation time: 0 hr 23 min 4 sec) 
Heartbeat CPU 0 instructions: 38000000 cycles: 15774504 heartbeat IPC: 2.05557 cumulative IPC: 2.40895 (Simulation time: 0 hr 23 min 41 sec) 
Heartbeat CPU 0 instructions: 39000002 cycles: 16146082 heartbeat IPC: 2.69123 cumulative IPC: 2.41545 (Simulation time: 0 hr 24 min 15 sec) 
Heartbeat CPU 0 instructions: 40000000 cycles: 16555444 heartbeat IPC: 2.44282 cumulative IPC: 2.41612 (Simulation time: 0 hr 24 min 54 sec) 
Heartbeat CPU 0 instructions: 41000001 cycles: 17010126 heartbeat IPC: 2.19934 cumulative IPC: 2.41033 (Simulation time: 0 hr 25 min 30 sec) 
Heartbeat CPU 0 instructions: 42000003 cycles: 17419179 heartbeat IPC: 2.44468 cumulative IPC: 2.41114 (Simulation time: 0 hr 26 min 9 sec) 
Heartbeat CPU 0 instructions: 43000000 cycles: 17837617 heartbeat IPC: 2.38983 cumulative IPC: 2.41064 (Simulation time: 0 hr 26 min 50 sec) 
Heartbeat CPU 0 instructions: 44000000 cycles: 18221332 heartbeat IPC: 2.6061 cumulative IPC: 2.41475 (Simulation time: 0 hr 27 min 24 sec) 
Heartbeat CPU 0 instructions: 45000003 cycles: 18615115 heartbeat IPC: 2.53948 cumulative IPC: 2.41739 (Simulation time: 0 hr 27 min 57 sec) 
Heartbeat CPU 0 instructions: 46000001 cycles: 19110614 heartbeat IPC: 2.01816 cumulative IPC: 2.40704 (Simulation time: 0 hr 28 min 31 sec) 
Heartbeat CPU 0 instructions: 47000001 cycles: 19484956 heartbeat IPC: 2.67135 cumulative IPC: 2.41212 (Simulation time: 0 hr 29 min 10 sec) 
Heartbeat CPU 0 instructions: 48000000 cycles: 19875076 heartbeat IPC: 2.56331 cumulative IPC: 2.41509 (Simulation time: 0 hr 29 min 45 sec) 
Heartbeat CPU 0 instructions: 49000001 cycles: 20531170 heartbeat IPC: 1.52417 cumulative IPC: 2.38662 (Simulation time: 0 hr 30 min 29 sec) 
Heartbeat CPU 0 instructions: 50000003 cycles: 21056128 heartbeat IPC: 1.90492 cumulative IPC: 2.37461 (Simulation time: 0 hr 31 min 12 sec) 

Warmup complete CPU 0 instructions: 50000003 cycles: 21056128 (Simulation time: 0 hr 31 min 12 sec) 

Heartbeat CPU 0 instructions: 51000002 cycles: 23544489 heartbeat IPC: 0.401871 cumulative IPC: 0.401871 (Simulation time: 0 hr 32 min 12 sec) 
Heartbeat CPU 0 instructions: 52000000 cycles: 27289339 heartbeat IPC: 0.267033 cumulative IPC: 0.320861 (Simulation time: 0 hr 33 min 11 sec) 
Heartbeat CPU 0 instructions: 53000003 cycles: 29951296 heartbeat IPC: 0.375665 cumulative IPC: 0.337262 (Simulation time: 0 hr 34 min 2 sec) 
Heartbeat CPU 0 instructions: 54000000 cycles: 32449844 heartbeat IPC: 0.400231 cumulative IPC: 0.35107 (Simulation time: 0 hr 34 min 52 sec) 
Heartbeat CPU 0 instructions: 55000002 cycles: 35933628 heartbeat IPC: 0.287045 cumulative IPC: 0.336078 (Simulation time: 0 hr 35 min 39 sec) 
Heartbeat CPU 0 instructions: 56000000 cycles: 39181006 heartbeat IPC: 0.30794 cumulative IPC: 0.331037 (Simulation time: 0 hr 36 min 27 sec) 
Heartbeat CPU 0 instructions: 57000003 cycles: 41738514 heartbeat IPC: 0.391007 cumulative IPC: 0.338452 (Simulation time: 0 hr 37 min 13 sec) 
Heartbeat CPU 0 instructions: 58000002 cycles: 43934246 heartbeat IPC: 0.455429 cumulative IPC: 0.349679 (Simulation time: 0 hr 38 min 2 sec) 
Heartbeat CPU 0 instructions: 59000002 cycles: 45464188 heartbeat IPC: 0.65362 cumulative IPC: 0.368731 (Simulation time: 0 hr 38 min 47 sec) 
Heartbeat CPU 0 instructions: 60000000 cycles: 46876761 heartbeat IPC: 0.707927 cumulative IPC: 0.387287 (Simulation time: 0 hr 39 min 26 sec) 
Heartbeat CPU 0 instructions: 61000002 cycles: 49591204 heartbeat IPC: 0.3684 cumulative IPC: 0.38549 (Simulation time: 0 hr 40 min 19 sec) 
Heartbeat CPU 0 instructions: 62000000 cycles: 52018417 heartbeat IPC: 0.411994 cumulative IPC: 0.387568 (Simulation time: 0 hr 41 min 9 sec) 
Heartbeat CPU 0 instructions: 63000002 cycles: 53948164 heartbeat IPC: 0.518204 cumulative IPC: 0.395232 (Simulation time: 0 hr 41 min 57 sec) 
Heartbeat CPU 0 instructions: 64000000 cycles: 56383920 heartbeat IPC: 0.410549 cumulative IPC: 0.396288 (Simulation time: 0 hr 42 min 39 sec) 
Heartbeat CPU 0 instructions: 65000000 cycles: 59693889 heartbeat IPC: 0.302118 cumulative IPC: 0.388221 (Simulation time: 0 hr 43 min 32 sec) 
Heartbeat CPU 0 instructions: 66000001 cycles: 60918497 heartbeat IPC: 0.816589 cumulative IPC: 0.401381 (Simulation time: 0 hr 44 min 1 sec) 
Heartbeat CPU 0 instructions: 67000000 cycles: 62225373 heartbeat IPC: 0.765183 cumulative IPC: 0.41293 (Simulation time: 0 hr 44 min 32 sec) 
Heartbeat CPU 0 instructions: 68000000 cycles: 65756074 heartbeat IPC: 0.28323 cumulative IPC: 0.402685 (Simulation time: 0 hr 45 min 24 sec) 
Heartbeat CPU 0 instructions: 69000000 cycles: 68354066 heartbeat IPC: 0.384913 cumulative IPC: 0.401709 (Simulation time: 0 hr 46 min 1 sec) 
Heartbeat CPU 0 instructions: 70000003 cycles: 70908191 heartbeat IPC: 0.391525 cumulative IPC: 0.401187 (Simulation time: 0 hr 46 min 38 sec) 
Heartbeat CPU 0 instructions: 71000000 cycles: 73259143 heartbeat IPC: 0.425358 cumulative IPC: 0.402276 (Simulation time: 0 hr 47 min 27 sec) 
Heartbeat CPU 0 instructions: 72000000 cycles: 76074821 heartbeat IPC: 0.355154 cumulative IPC: 0.399864 (Simulation time: 0 hr 48 min 12 sec) 
Heartbeat CPU 0 instructions: 73000001 cycles: 78763951 heartbeat IPC: 0.371868 cumulative IPC: 0.398559 (Simulation time: 0 hr 49 min 3 sec) 
Heartbeat CPU 0 instructions: 74000000 cycles: 80624399 heartbeat IPC: 0.537504 cumulative IPC: 0.402899 (Simulation time: 0 hr 49 min 37 sec) 
Heartbeat CPU 0 instructions: 75000002 cycles: 81876209 heartbeat IPC: 0.798845 cumulative IPC: 0.411048 (Simulation time: 0 hr 50 min 8 sec) 
Heartbeat CPU 0 instructions: 76000000 cycles: 85325752 heartbeat IPC: 0.289893 cumulative IPC: 0.404546 (Simulation time: 0 hr 50 min 59 sec) 
Heartbeat CPU 0 instructions: 77000000 cycles: 87768250 heartbeat IPC: 0.409417 cumulative IPC: 0.404724 (Simulation time: 0 hr 51 min 39 sec) 
Heartbeat CPU 0 instructions: 78000003 cycles: 90305234 heartbeat IPC: 0.39417 cumulative IPC: 0.404337 (Simulation time: 0 hr 52 min 17 sec) 
Heartbeat CPU 0 instructions: 79000001 cycles: 93689492 heartbeat IPC: 0.295485 cumulative IPC: 0.399266 (Simulation time: 0 hr 53 min 12 sec) 
Heartbeat CPU 0 instructions: 80000000 cycles: 96152050 heartbeat IPC: 0.406081 cumulative IPC: 0.399489 (Simulation time: 0 hr 53 min 58 sec) 
Heartbeat CPU 0 instructions: 81000003 cycles: 99091900 heartbeat IPC: 0.340154 cumulative IPC: 0.397254 (Simulation time: 0 hr 54 min 54 sec) 
Heartbeat CPU 0 instructions: 82000000 cycles: 100702708 heartbeat IPC: 0.620805 cumulative IPC: 0.401775 (Simulation time: 0 hr 55 min 27 sec) 
Heartbeat CPU 0 instructions: 83000001 cycles: 101910374 heartbeat IPC: 0.828044 cumulative IPC: 0.408142 (Simulation time: 0 hr 55 min 56 sec) 
Heartbeat CPU 0 instructions: 84000000 cycles: 105205805 heartbeat IPC: 0.30345 cumulative IPC: 0.404042 (Simulation time: 0 hr 56 min 45 sec) 
Heartbeat CPU 0 instructions: 85000002 cycles: 107630051 heartbeat IPC: 0.4125 cumulative IPC: 0.404279 (Simulation time: 0 hr 57 min 22 sec) 
Heartbeat CPU 0 instructions: 86000000 cycles: 110227514 heartbeat IPC: 0.38499 cumulative IPC: 0.403717 (Simulation time: 0 hr 58 min 1 sec) 
Heartbeat CPU 0 instructions: 87000000 cycles: 113412692 heartbeat IPC: 0.313954 cumulative IPC: 0.400621 (Simulation time: 0 hr 58 min 57 sec) 
Heartbeat CPU 0 instructions: 88000000 cycles: 115559589 heartbeat IPC: 0.465789 cumulative IPC: 0.402102 (Simulation time: 0 hr 59 min 40 sec) 
Heartbeat CPU 0 instructions: 89000001 cycles: 118762379 heartbeat IPC: 0.312228 cumulative IPC: 0.399156 (Simulation time: 1 hr 0 min 33 sec) 
Heartbeat CPU 0 instructions: 90000002 cycles: 119986378 heartbeat IPC: 0.816995 cumulative IPC: 0.404325 (Simulation time: 1 hr 1 min 4 sec) 
Heartbeat CPU 0 instructions: 91000000 cycles: 121396113 heartbeat IPC: 0.709352 cumulative IPC: 0.408611 (Simulation time: 1 hr 1 min 38 sec) 
Heartbeat CPU 0 instructions: 92000000 cycles: 124812887 heartbeat IPC: 0.292674 cumulative IPC: 0.404793 (Simulation time: 1 hr 2 min 29 sec) 
Heartbeat CPU 0 instructions: 93000000 cycles: 127423693 heartbeat IPC: 0.383023 cumulative IPC: 0.404259 (Simulation time: 1 hr 3 min 7 sec) 
Heartbeat CPU 0 instructions: 94000001 cycles: 129929636 heartbeat IPC: 0.399052 cumulative IPC: 0.404139 (Simulation time: 1 hr 3 min 45 sec) 
Heartbeat CPU 0 instructions: 95000003 cycles: 133212741 heartbeat IPC: 0.30459 cumulative IPC: 0.401225 (Simulation time: 1 hr 4 min 43 sec) 
Heartbeat CPU 0 instructions: 96000000 cycles: 135061912 heartbeat IPC: 0.540781 cumulative IPC: 0.403488 (Simulation time: 1 hr 5 min 25 sec) 
Heartbeat CPU 0 instructions: 97000003 cycles: 138159323 heartbeat IPC: 0.322851 cumulative IPC: 0.401355 (Simulation time: 1 hr 6 min 12 sec) 
Heartbeat CPU 0 instructions: 98000003 cycles: 139372897 heartbeat IPC: 0.824012 cumulative IPC: 0.405691 (Simulation time: 1 hr 6 min 43 sec) 
Heartbeat CPU 0 instructions: 99000000 cycles: 141736791 heartbeat IPC: 0.42303 cumulative IPC: 0.40603 (Simulation time: 1 hr 7 min 24 sec) 
Heartbeat CPU 0 instructions: 100000000 cycles: 144527925 heartbeat IPC: 0.358277 cumulative IPC: 0.404951 (Simulation time: 1 hr 8 min 11 sec) 
Heartbeat CPU 0 instructions: 101000001 cycles: 147018158 heartbeat IPC: 0.401569 cumulative IPC: 0.404884 (Simulation time: 1 hr 8 min 48 sec) 
Heartbeat CPU 0 instructions: 102000002 cycles: 149780510 heartbeat IPC: 0.362011 cumulative IPC: 0.403964 (Simulation time: 1 hr 9 min 30 sec) 
Heartbeat CPU 0 instructions: 103000002 cycles: 152924314 heartbeat IPC: 0.318086 cumulative IPC: 0.401917 (Simulation time: 1 hr 10 min 27 sec) 
Heartbeat CPU 0 instructions: 104000000 cycles: 155009634 heartbeat IPC: 0.479542 cumulative IPC: 0.403125 (Simulation time: 1 hr 11 min 20 sec) 
Heartbeat CPU 0 instructions: 105000000 cycles: 157314698 heartbeat IPC: 0.433827 cumulative IPC: 0.403644 (Simulation time: 1 hr 12 min 0 sec) 
Heartbeat CPU 0 instructions: 106000001 cycles: 158567000 heartbeat IPC: 0.79853 cumulative IPC: 0.407241 (Simulation time: 1 hr 12 min 32 sec) 
Heartbeat CPU 0 instructions: 107000001 cycles: 161867533 heartbeat IPC: 0.302981 cumulative IPC: 0.404797 (Simulation time: 1 hr 13 min 20 sec) 
Heartbeat CPU 0 instructions: 108000000 cycles: 164224619 heartbeat IPC: 0.424252 cumulative IPC: 0.405117 (Simulation time: 1 hr 13 min 59 sec) 
Heartbeat CPU 0 instructions: 109000003 cycles: 166785323 heartbeat IPC: 0.390519 cumulative IPC: 0.404861 (Simulation time: 1 hr 14 min 38 sec) 
Heartbeat CPU 0 instructions: 110000001 cycles: 170030353 heartbeat IPC: 0.308163 cumulative IPC: 0.402754 (Simulation time: 1 hr 15 min 30 sec) 
Heartbeat CPU 0 instructions: 111000001 cycles: 171987547 heartbeat IPC: 0.510936 cumulative IPC: 0.404157 (Simulation time: 1 hr 16 min 11 sec) 
Heartbeat CPU 0 instructions: 112000000 cycles: 173982295 heartbeat IPC: 0.501316 cumulative IPC: 0.405424 (Simulation time: 1 hr 17 min 1 sec) 
Heartbeat CPU 0 instructions: 113000000 cycles: 176605565 heartbeat IPC: 0.381204 cumulative IPC: 0.405016 (Simulation time: 1 hr 17 min 46 sec) 
Heartbeat CPU 0 instructions: 114000000 cycles: 177850388 heartbeat IPC: 0.803327 cumulative IPC: 0.408178 (Simulation time: 1 hr 18 min 25 sec) 
Heartbeat CPU 0 instructions: 115000003 cycles: 180878830 heartbeat IPC: 0.330204 cumulative IPC: 0.406701 (Simulation time: 1 hr 19 min 12 sec) 
Heartbeat CPU 0 instructions: 116000000 cycles: 183292669 heartbeat IPC: 0.414277 cumulative IPC: 0.406813 (Simulation time: 1 hr 19 min 54 sec) 
Heartbeat CPU 0 instructions: 117000000 cycles: 185887664 heartbeat IPC: 0.385357 cumulative IPC: 0.406476 (Simulation time: 1 hr 20 min 31 sec) 
Heartbeat CPU 0 instructions: 118000003 cycles: 189227963 heartbeat IPC: 0.299375 cumulative IPC: 0.404348 (Simulation time: 1 hr 21 min 22 sec) 
Heartbeat CPU 0 instructions: 119000002 cycles: 191088293 heartbeat IPC: 0.537539 cumulative IPC: 0.405806 (Simulation time: 1 hr 22 min 1 sec) 
Heartbeat CPU 0 instructions: 120000000 cycles: 192985822 heartbeat IPC: 0.527 cumulative IPC: 0.407143 (Simulation time: 1 hr 22 min 43 sec) 
Heartbeat CPU 0 instructions: 121000000 cycles: 195748725 heartbeat IPC: 0.361938 cumulative IPC: 0.406428 (Simulation time: 1 hr 23 min 27 sec) 
Heartbeat CPU 0 instructions: 122000000 cycles: 196948611 heartbeat IPC: 0.833413 cumulative IPC: 0.409341 (Simulation time: 1 hr 23 min 57 sec) 
Heartbeat CPU 0 instructions: 123000000 cycles: 199699288 heartbeat IPC: 0.363547 cumulative IPC: 0.408636 (Simulation time: 1 hr 24 min 41 sec) 
Heartbeat CPU 0 instructions: 124000000 cycles: 202274544 heartbeat IPC: 0.388311 cumulative IPC: 0.408347 (Simulation time: 1 hr 25 min 22 sec) 
Heartbeat CPU 0 instructions: 125000001 cycles: 204745149 heartbeat IPC: 0.40476 cumulative IPC: 0.408299 (Simulation time: 1 hr 25 min 56 sec) 
Heartbeat CPU 0 instructions: 126000000 cycles: 207610699 heartbeat IPC: 0.348973 cumulative IPC: 0.407387 (Simulation time: 1 hr 26 min 36 sec) 
Heartbeat CPU 0 instructions: 127000002 cycles: 210530723 heartbeat IPC: 0.342464 cumulative IPC: 0.406387 (Simulation time: 1 hr 27 min 24 sec) 
Heartbeat CPU 0 instructions: 128000000 cycles: 212868049 heartbeat IPC: 0.427838 cumulative IPC: 0.406648 (Simulation time: 1 hr 28 min 6 sec) 
Heartbeat CPU 0 instructions: 129000000 cycles: 214989630 heartbeat IPC: 0.471347 cumulative IPC: 0.407356 (Simulation time: 1 hr 28 min 36 sec) 
Heartbeat CPU 0 instructions: 130000000 cycles: 216261423 heartbeat IPC: 0.786291 cumulative IPC: 0.409825 (Simulation time: 1 hr 29 min 3 sec) 
Heartbeat CPU 0 instructions: 131000003 cycles: 219593621 heartbeat IPC: 0.300103 cumulative IPC: 0.407983 (Simulation time: 1 hr 29 min 45 sec) 
Heartbeat CPU 0 instructions: 132000000 cycles: 222042827 heartbeat IPC: 0.408294 cumulative IPC: 0.407987 (Simulation time: 1 hr 30 min 18 sec) 
Heartbeat CPU 0 instructions: 133000000 cycles: 224592310 heartbeat IPC: 0.392236 cumulative IPC: 0.40779 (Simulation time: 1 hr 30 min 48 sec) 
Heartbeat CPU 0 instructions: 134000001 cycles: 228005535 heartbeat IPC: 0.292978 cumulative IPC: 0.405896 (Simulation time: 1 hr 31 min 33 sec) 
Heartbeat CPU 0 instructions: 135000003 cycles: 230021853 heartbeat IPC: 0.495955 cumulative IPC: 0.406765 (Simulation time: 1 hr 32 min 7 sec) 
Heartbeat CPU 0 instructions: 136000000 cycles: 232010071 heartbeat IPC: 0.502961 cumulative IPC: 0.407672 (Simulation time: 1 hr 32 min 47 sec) 
Heartbeat CPU 0 instructions: 137000000 cycles: 234652478 heartbeat IPC: 0.378443 cumulative IPC: 0.40731 (Simulation time: 1 hr 33 min 23 sec) 
Heartbeat CPU 0 instructions: 138000000 cycles: 235853086 heartbeat IPC: 0.832911 cumulative IPC: 0.409689 (Simulation time: 1 hr 33 min 49 sec) 
Heartbeat CPU 0 instructions: 139000001 cycles: 238667469 heartbeat IPC: 0.355318 cumulative IPC: 0.408986 (Simulation time: 1 hr 34 min 23 sec) 
Heartbeat CPU 0 instructions: 140000000 cycles: 241115602 heartbeat IPC: 0.408474 cumulative IPC: 0.40898 (Simulation time: 1 hr 34 min 53 sec) 
Heartbeat CPU 0 instructions: 141000003 cycles: 243659737 heartbeat IPC: 0.393062 cumulative IPC: 0.408798 (Simulation time: 1 hr 35 min 18 sec) 
Heartbeat CPU 0 instructions: 142000001 cycles: 246882587 heartbeat IPC: 0.310284 cumulative IPC: 0.407392 (Simulation time: 1 hr 35 min 53 sec) 
Heartbeat CPU 0 instructions: 143000001 cycles: 251474996 heartbeat IPC: 0.217751 cumulative IPC: 0.403613 (Simulation time: 1 hr 36 min 33 sec) 
Heartbeat CPU 0 instructions: 144000000 cycles: 255068097 heartbeat IPC: 0.278311 cumulative IPC: 0.401689 (Simulation time: 1 hr 37 min 11 sec) 
Heartbeat CPU 0 instructions: 145000001 cycles: 257975386 heartbeat IPC: 0.343963 cumulative IPC: 0.40098 (Simulation time: 1 hr 37 min 51 sec) 
Heartbeat CPU 0 instructions: 146000000 cycles: 261834195 heartbeat IPC: 0.259147 cumulative IPC: 0.398707 (Simulation time: 1 hr 38 min 23 sec) 
Heartbeat CPU 0 instructions: 147000000 cycles: 264393809 heartbeat IPC: 0.390684 cumulative IPC: 0.398623 (Simulation time: 1 hr 38 min 54 sec) 
Heartbeat CPU 0 instructions: 148000000 cycles: 267540632 heartbeat IPC: 0.317781 cumulative IPC: 0.397591 (Simulation time: 1 hr 39 min 24 sec) 
Heartbeat CPU 0 instructions: 149000000 cycles: 270588611 heartbeat IPC: 0.328086 cumulative IPC: 0.396742 (Simulation time: 1 hr 39 min 49 sec) 
Heartbeat CPU 0 instructions: 150000001 cycles: 273433890 heartbeat IPC: 0.35146 cumulative IPC: 0.396231 (Simulation time: 1 hr 40 min 15 sec) 
Finished CPU 0 instructions: 100000001 cycles: 252377766 cummulative IPC: 0.396231 (Simulation time: 1 hr 40 min 15 sec) 

ChampSim completed all CPUs

Region of Interest Statistics

CPU 0 cummulative IPC: 0.396231 instructions: 100000001 cycles: 252377766
LLC TOTAL     ACCESS:    6714294  HIT:    3368765  MISS:    3345529
LLC LOAD      ACCESS:    1680486  HIT:     726920  MISS:     953566
LLC RFO       ACCESS:     736904  HIT:     263617  MISS:     473287
LLC PREFETCH  ACCESS:    2656745  HIT:    1157887  MISS:    1498858
LLC WRITEBACK ACCESS:    1640159  HIT:    1220341  MISS:     419818
OPTgen accesses: 26480
OPTgen hits: 19051
OPTgen hit rate: 71.9449


