
*** ChampSim Multicore Out-of-Order Simulator ***

Warmup Instructions: 50000000
Simulation Instructions: 100000000
Configuration: 2
Number of CPUs: 1
LLC sets: 2048
LLC ways: 16
Off-chip DRAM Channels: 1 Width: 64-bit Data Rate: 1600 MT/s

CPU 0 runs /datasets/cs240c-wi22-a00-public/data/Assignment2-gz/libquantum_1735B.trace.gz
CPU 0 L1D next line prefetcher
CPU 0 L2C IP-based stride prefetcher
Initialize Hawkeye state
Heartbeat CPU 0 instructions: 1000001 cycles: 333341 heartbeat IPC: 2.99993 cumulative IPC: 2.99993 (Simulation time: 0 hr 0 min 21 sec) 
Heartbeat CPU 0 instructions: 2000000 cycles: 666674 heartbeat IPC: 3 cumulative IPC: 2.99997 (Simulation time: 0 hr 0 min 45 sec) 
Heartbeat CPU 0 instructions: 3000000 cycles: 989045 heartbeat IPC: 3.10202 cumulative IPC: 3.03323 (Simulation time: 0 hr 1 min 6 sec) 
Heartbeat CPU 0 instructions: 4000000 cycles: 1290770 heartbeat IPC: 3.31428 cumulative IPC: 3.09893 (Simulation time: 0 hr 1 min 28 sec) 
Heartbeat CPU 0 instructions: 5000001 cycles: 1592495 heartbeat IPC: 3.31428 cumulative IPC: 3.13973 (Simulation time: 0 hr 1 min 50 sec) 
Heartbeat CPU 0 instructions: 6000001 cycles: 1894219 heartbeat IPC: 3.31429 cumulative IPC: 3.16753 (Simulation time: 0 hr 2 min 12 sec) 
Heartbeat CPU 0 instructions: 7000002 cycles: 2195942 heartbeat IPC: 3.3143 cumulative IPC: 3.1877 (Simulation time: 0 hr 2 min 34 sec) 
Heartbeat CPU 0 instructions: 8000000 cycles: 2501897 heartbeat IPC: 3.26845 cumulative IPC: 3.19757 (Simulation time: 0 hr 2 min 55 sec) 
Heartbeat CPU 0 instructions: 9000000 cycles: 2835230 heartbeat IPC: 3 cumulative IPC: 3.17435 (Simulation time: 0 hr 3 min 16 sec) 
Heartbeat CPU 0 instructions: 10000002 cycles: 3168564 heartbeat IPC: 3 cumulative IPC: 3.156 (Simulation time: 0 hr 3 min 36 sec) 
Heartbeat CPU 0 instructions: 11000001 cycles: 3501897 heartbeat IPC: 3 cumulative IPC: 3.14116 (Simulation time: 0 hr 3 min 56 sec) 
Heartbeat CPU 0 instructions: 12000000 cycles: 3835230 heartbeat IPC: 3 cumulative IPC: 3.12889 (Simulation time: 0 hr 4 min 16 sec) 
Heartbeat CPU 0 instructions: 13000000 cycles: 4159530 heartbeat IPC: 3.08356 cumulative IPC: 3.12535 (Simulation time: 0 hr 4 min 38 sec) 
Heartbeat CPU 0 instructions: 14000002 cycles: 4471102 heartbeat IPC: 3.20954 cumulative IPC: 3.13122 (Simulation time: 0 hr 5 min 2 sec) 
Heartbeat CPU 0 instructions: 15000000 cycles: 4782674 heartbeat IPC: 3.20952 cumulative IPC: 3.13632 (Simulation time: 0 hr 5 min 24 sec) 
Heartbeat CPU 0 instructions: 16000000 cycles: 5094247 heartbeat IPC: 3.20952 cumulative IPC: 3.1408 (Simulation time: 0 hr 5 min 47 sec) 
Heartbeat CPU 0 instructions: 17000000 cycles: 5405820 heartbeat IPC: 3.20952 cumulative IPC: 3.14476 (Simulation time: 0 hr 6 min 10 sec) 
Heartbeat CPU 0 instructions: 18000001 cycles: 5725379 heartbeat IPC: 3.12932 cumulative IPC: 3.1439 (Simulation time: 0 hr 6 min 30 sec) 
Heartbeat CPU 0 instructions: 19000000 cycles: 6058712 heartbeat IPC: 3 cumulative IPC: 3.13598 (Simulation time: 0 hr 6 min 50 sec) 
Heartbeat CPU 0 instructions: 20000000 cycles: 6392046 heartbeat IPC: 2.99999 cumulative IPC: 3.12889 (Simulation time: 0 hr 7 min 9 sec) 
Heartbeat CPU 0 instructions: 21000001 cycles: 6725379 heartbeat IPC: 3.00001 cumulative IPC: 3.1225 (Simulation time: 0 hr 7 min 30 sec) 
Heartbeat CPU 0 instructions: 22000000 cycles: 7058712 heartbeat IPC: 3 cumulative IPC: 3.11672 (Simulation time: 0 hr 7 min 51 sec) 
Heartbeat CPU 0 instructions: 23000001 cycles: 7377935 heartbeat IPC: 3.13261 cumulative IPC: 3.1174 (Simulation time: 0 hr 8 min 11 sec) 
Heartbeat CPU 0 instructions: 24000000 cycles: 7689508 heartbeat IPC: 3.20952 cumulative IPC: 3.12114 (Simulation time: 0 hr 8 min 31 sec) 
Heartbeat CPU 0 instructions: 25000002 cycles: 8001081 heartbeat IPC: 3.20953 cumulative IPC: 3.12458 (Simulation time: 0 hr 8 min 52 sec) 
Heartbeat CPU 0 instructions: 26000000 cycles: 8312653 heartbeat IPC: 3.20952 cumulative IPC: 3.12776 (Simulation time: 0 hr 9 min 13 sec) 
Heartbeat CPU 0 instructions: 27000003 cycles: 8624226 heartbeat IPC: 3.20953 cumulative IPC: 3.13072 (Simulation time: 0 hr 9 min 34 sec) 
Heartbeat CPU 0 instructions: 28000000 cycles: 8948866 heartbeat IPC: 3.08033 cumulative IPC: 3.12889 (Simulation time: 0 hr 9 min 57 sec) 
Heartbeat CPU 0 instructions: 29000000 cycles: 9282199 heartbeat IPC: 3 cumulative IPC: 3.12426 (Simulation time: 0 hr 10 min 17 sec) 
Heartbeat CPU 0 instructions: 30000001 cycles: 9615533 heartbeat IPC: 3 cumulative IPC: 3.11995 (Simulation time: 0 hr 10 min 38 sec) 
Heartbeat CPU 0 instructions: 31000000 cycles: 9948866 heartbeat IPC: 3 cumulative IPC: 3.11593 (Simulation time: 0 hr 10 min 58 sec) 
Heartbeat CPU 0 instructions: 32000000 cycles: 10282200 heartbeat IPC: 2.99999 cumulative IPC: 3.11217 (Simulation time: 0 hr 11 min 20 sec) 
Heartbeat CPU 0 instructions: 33000003 cycles: 10587669 heartbeat IPC: 3.27366 cumulative IPC: 3.11683 (Simulation time: 0 hr 11 min 41 sec) 
Heartbeat CPU 0 instructions: 34000002 cycles: 10889391 heartbeat IPC: 3.31431 cumulative IPC: 3.12231 (Simulation time: 0 hr 12 min 3 sec) 
Heartbeat CPU 0 instructions: 35000002 cycles: 11191114 heartbeat IPC: 3.3143 cumulative IPC: 3.12748 (Simulation time: 0 hr 12 min 25 sec) 
Heartbeat CPU 0 instructions: 36000000 cycles: 11492840 heartbeat IPC: 3.31426 cumulative IPC: 3.13239 (Simulation time: 0 hr 12 min 48 sec) 
Heartbeat CPU 0 instructions: 37000002 cycles: 11794564 heartbeat IPC: 3.31429 cumulative IPC: 3.13704 (Simulation time: 0 hr 13 min 8 sec) 
Heartbeat CPU 0 instructions: 38000003 cycles: 12117424 heartbeat IPC: 3.09732 cumulative IPC: 3.13598 (Simulation time: 0 hr 13 min 30 sec) 
Heartbeat CPU 0 instructions: 39000002 cycles: 12450757 heartbeat IPC: 3 cumulative IPC: 3.13234 (Simulation time: 0 hr 13 min 52 sec) 
Heartbeat CPU 0 instructions: 40000000 cycles: 12784090 heartbeat IPC: 3 cumulative IPC: 3.12889 (Simulation time: 0 hr 14 min 12 sec) 
Heartbeat CPU 0 instructions: 41000000 cycles: 13117423 heartbeat IPC: 3 cumulative IPC: 3.12561 (Simulation time: 0 hr 14 min 32 sec) 
Heartbeat CPU 0 instructions: 42000001 cycles: 13450757 heartbeat IPC: 3 cumulative IPC: 3.1225 (Simulation time: 0 hr 14 min 53 sec) 
Heartbeat CPU 0 instructions: 43000003 cycles: 13754059 heartbeat IPC: 3.29705 cumulative IPC: 3.12635 (Simulation time: 0 hr 15 min 13 sec) 
Heartbeat CPU 0 instructions: 44000000 cycles: 14055784 heartbeat IPC: 3.31427 cumulative IPC: 3.13038 (Simulation time: 0 hr 15 min 37 sec) 
Heartbeat CPU 0 instructions: 45000000 cycles: 14357508 heartbeat IPC: 3.31429 cumulative IPC: 3.13425 (Simulation time: 0 hr 16 min 1 sec) 
Heartbeat CPU 0 instructions: 46000002 cycles: 14659231 heartbeat IPC: 3.3143 cumulative IPC: 3.13795 (Simulation time: 0 hr 16 min 23 sec) 
Heartbeat CPU 0 instructions: 47000002 cycles: 14960955 heartbeat IPC: 3.31429 cumulative IPC: 3.14151 (Simulation time: 0 hr 16 min 49 sec) 
Heartbeat CPU 0 instructions: 48000000 cycles: 15285989 heartbeat IPC: 3.0766 cumulative IPC: 3.14013 (Simulation time: 0 hr 17 min 15 sec) 
Heartbeat CPU 0 instructions: 49000002 cycles: 15619323 heartbeat IPC: 3 cumulative IPC: 3.13714 (Simulation time: 0 hr 17 min 40 sec) 
Heartbeat CPU 0 instructions: 50000001 cycles: 15952656 heartbeat IPC: 3 cumulative IPC: 3.13427 (Simulation time: 0 hr 18 min 1 sec) 

Warmup complete CPU 0 instructions: 50000001 cycles: 15952656 (Simulation time: 0 hr 18 min 1 sec) 

Heartbeat CPU 0 instructions: 51000000 cycles: 17472253 heartbeat IPC: 0.658069 cumulative IPC: 0.658069 (Simulation time: 0 hr 18 min 39 sec) 
Heartbeat CPU 0 instructions: 52000000 cycles: 18991927 heartbeat IPC: 0.658036 cumulative IPC: 0.658052 (Simulation time: 0 hr 19 min 17 sec) 
Heartbeat CPU 0 instructions: 53000002 cycles: 20511631 heartbeat IPC: 0.658024 cumulative IPC: 0.658043 (Simulation time: 0 hr 19 min 54 sec) 
Heartbeat CPU 0 instructions: 54000001 cycles: 22030771 heartbeat IPC: 0.658267 cumulative IPC: 0.658099 (Simulation time: 0 hr 20 min 31 sec) 
Heartbeat CPU 0 instructions: 55000000 cycles: 23546621 heartbeat IPC: 0.659695 cumulative IPC: 0.658417 (Simulation time: 0 hr 21 min 8 sec) 
Heartbeat CPU 0 instructions: 56000000 cycles: 25066090 heartbeat IPC: 0.658125 cumulative IPC: 0.658369 (Simulation time: 0 hr 21 min 46 sec) 
Heartbeat CPU 0 instructions: 57000000 cycles: 26585683 heartbeat IPC: 0.658071 cumulative IPC: 0.658326 (Simulation time: 0 hr 22 min 23 sec) 
Heartbeat CPU 0 instructions: 58000002 cycles: 28105154 heartbeat IPC: 0.658125 cumulative IPC: 0.658301 (Simulation time: 0 hr 23 min 0 sec) 
Heartbeat CPU 0 instructions: 59000001 cycles: 29593947 heartbeat IPC: 0.671684 cumulative IPC: 0.659762 (Simulation time: 0 hr 23 min 37 sec) 
Heartbeat CPU 0 instructions: 60000000 cycles: 30548306 heartbeat IPC: 1.04782 cumulative IPC: 0.685136 (Simulation time: 0 hr 24 min 11 sec) 
Heartbeat CPU 0 instructions: 61000003 cycles: 32032221 heartbeat IPC: 0.673895 cumulative IPC: 0.684098 (Simulation time: 0 hr 24 min 50 sec) 
Heartbeat CPU 0 instructions: 62000002 cycles: 33548089 heartbeat IPC: 0.659687 cumulative IPC: 0.681995 (Simulation time: 0 hr 25 min 27 sec) 
Heartbeat CPU 0 instructions: 63000001 cycles: 35067633 heartbeat IPC: 0.658091 cumulative IPC: 0.680095 (Simulation time: 0 hr 26 min 5 sec) 
Heartbeat CPU 0 instructions: 64000000 cycles: 36587097 heartbeat IPC: 0.658126 cumulative IPC: 0.678477 (Simulation time: 0 hr 26 min 43 sec) 
Heartbeat CPU 0 instructions: 65000001 cycles: 38106585 heartbeat IPC: 0.658117 cumulative IPC: 0.677081 (Simulation time: 0 hr 27 min 21 sec) 
Heartbeat CPU 0 instructions: 66000000 cycles: 39583422 heartbeat IPC: 0.677122 cumulative IPC: 0.677083 (Simulation time: 0 hr 27 min 58 sec) 
Heartbeat CPU 0 instructions: 67000001 cycles: 41080486 heartbeat IPC: 0.667975 cumulative IPC: 0.676541 (Simulation time: 0 hr 28 min 38 sec) 
Heartbeat CPU 0 instructions: 68000000 cycles: 42572609 heartbeat IPC: 0.670185 cumulative IPC: 0.676184 (Simulation time: 0 hr 29 min 16 sec) 
Heartbeat CPU 0 instructions: 69000002 cycles: 44064756 heartbeat IPC: 0.670177 cumulative IPC: 0.675866 (Simulation time: 0 hr 29 min 55 sec) 
Heartbeat CPU 0 instructions: 70000001 cycles: 45556977 heartbeat IPC: 0.670141 cumulative IPC: 0.675577 (Simulation time: 0 hr 30 min 32 sec) 
Heartbeat CPU 0 instructions: 71000003 cycles: 47107610 heartbeat IPC: 0.644899 cumulative IPC: 0.67405 (Simulation time: 0 hr 31 min 9 sec) 
Heartbeat CPU 0 instructions: 72000000 cycles: 49386061 heartbeat IPC: 0.438893 cumulative IPC: 0.658024 (Simulation time: 0 hr 31 min 42 sec) 
Heartbeat CPU 0 instructions: 73000000 cycles: 51686135 heartbeat IPC: 0.434769 cumulative IPC: 0.643654 (Simulation time: 0 hr 32 min 16 sec) 
Heartbeat CPU 0 instructions: 74000000 cycles: 53972888 heartbeat IPC: 0.437301 cumulative IPC: 0.631243 (Simulation time: 0 hr 32 min 51 sec) 
Heartbeat CPU 0 instructions: 75000000 cycles: 56259586 heartbeat IPC: 0.437312 cumulative IPC: 0.620241 (Simulation time: 0 hr 33 min 25 sec) 
Heartbeat CPU 0 instructions: 76000000 cycles: 58569673 heartbeat IPC: 0.432884 cumulative IPC: 0.610085 (Simulation time: 0 hr 33 min 59 sec) 
Heartbeat CPU 0 instructions: 77000001 cycles: 60202386 heartbeat IPC: 0.612478 cumulative IPC: 0.610173 (Simulation time: 0 hr 34 min 37 sec) 
Heartbeat CPU 0 instructions: 78000000 cycles: 61706987 heartbeat IPC: 0.664627 cumulative IPC: 0.611964 (Simulation time: 0 hr 35 min 16 sec) 
Heartbeat CPU 0 instructions: 79000001 cycles: 62807026 heartbeat IPC: 0.90906 cumulative IPC: 0.618939 (Simulation time: 0 hr 35 min 54 sec) 
Heartbeat CPU 0 instructions: 80000000 cycles: 64086997 heartbeat IPC: 0.781267 cumulative IPC: 0.623256 (Simulation time: 0 hr 36 min 32 sec) 
Heartbeat CPU 0 instructions: 81000002 cycles: 65679986 heartbeat IPC: 0.627752 cumulative IPC: 0.6234 (Simulation time: 0 hr 37 min 7 sec) 
Heartbeat CPU 0 instructions: 82000003 cycles: 67933503 heartbeat IPC: 0.443751 cumulative IPC: 0.615611 (Simulation time: 0 hr 37 min 39 sec) 
Heartbeat CPU 0 instructions: 83000000 cycles: 70222641 heartbeat IPC: 0.436844 cumulative IPC: 0.608071 (Simulation time: 0 hr 38 min 12 sec) 
Heartbeat CPU 0 instructions: 84000000 cycles: 72506076 heartbeat IPC: 0.437937 cumulative IPC: 0.601201 (Simulation time: 0 hr 38 min 47 sec) 
Heartbeat CPU 0 instructions: 85000002 cycles: 74807947 heartbeat IPC: 0.43443 cumulative IPC: 0.594679 (Simulation time: 0 hr 39 min 22 sec) 
Heartbeat CPU 0 instructions: 86000002 cycles: 77007230 heartbeat IPC: 0.454694 cumulative IPC: 0.589636 (Simulation time: 0 hr 39 min 54 sec) 
Heartbeat CPU 0 instructions: 87000002 cycles: 78683131 heartbeat IPC: 0.596694 cumulative IPC: 0.589825 (Simulation time: 0 hr 40 min 37 sec) 
Heartbeat CPU 0 instructions: 88000000 cycles: 80256225 heartbeat IPC: 0.635689 cumulative IPC: 0.590947 (Simulation time: 0 hr 41 min 18 sec) 
Heartbeat CPU 0 instructions: 89000000 cycles: 81829393 heartbeat IPC: 0.63566 cumulative IPC: 0.592015 (Simulation time: 0 hr 41 min 58 sec) 
Heartbeat CPU 0 instructions: 90000000 cycles: 83767725 heartbeat IPC: 0.515907 cumulative IPC: 0.589839 (Simulation time: 0 hr 42 min 37 sec) 
Heartbeat CPU 0 instructions: 91000001 cycles: 86706420 heartbeat IPC: 0.340287 cumulative IPC: 0.579474 (Simulation time: 0 hr 43 min 12 sec) 
Heartbeat CPU 0 instructions: 92000000 cycles: 89621683 heartbeat IPC: 0.343022 cumulative IPC: 0.570117 (Simulation time: 0 hr 43 min 47 sec) 
Heartbeat CPU 0 instructions: 93000001 cycles: 92553744 heartbeat IPC: 0.341057 cumulative IPC: 0.56135 (Simulation time: 0 hr 44 min 20 sec) 
Heartbeat CPU 0 instructions: 94000001 cycles: 95269227 heartbeat IPC: 0.368259 cumulative IPC: 0.554739 (Simulation time: 0 hr 44 min 55 sec) 
Heartbeat CPU 0 instructions: 95000000 cycles: 96845913 heartbeat IPC: 0.634241 cumulative IPC: 0.556289 (Simulation time: 0 hr 45 min 35 sec) 
Heartbeat CPU 0 instructions: 96000000 cycles: 98386096 heartbeat IPC: 0.649274 cumulative IPC: 0.558026 (Simulation time: 0 hr 46 min 17 sec) 
Heartbeat CPU 0 instructions: 97000002 cycles: 99939914 heartbeat IPC: 0.643577 cumulative IPC: 0.559609 (Simulation time: 0 hr 47 min 1 sec) 
Heartbeat CPU 0 instructions: 98000001 cycles: 102125333 heartbeat IPC: 0.457578 cumulative IPC: 0.557021 (Simulation time: 0 hr 47 min 38 sec) 
Heartbeat CPU 0 instructions: 99000003 cycles: 105023531 heartbeat IPC: 0.345043 cumulative IPC: 0.550124 (Simulation time: 0 hr 48 min 13 sec) 
Heartbeat CPU 0 instructions: 100000000 cycles: 107909042 heartbeat IPC: 0.346558 cumulative IPC: 0.543736 (Simulation time: 0 hr 48 min 49 sec) 
Heartbeat CPU 0 instructions: 101000000 cycles: 110795444 heartbeat IPC: 0.346452 cumulative IPC: 0.537732 (Simulation time: 0 hr 49 min 25 sec) 
Heartbeat CPU 0 instructions: 102000000 cycles: 112841794 heartbeat IPC: 0.488675 cumulative IPC: 0.536696 (Simulation time: 0 hr 50 min 1 sec) 
Heartbeat CPU 0 instructions: 103000002 cycles: 114039718 heartbeat IPC: 0.834779 cumulative IPC: 0.540336 (Simulation time: 0 hr 50 min 38 sec) 
Heartbeat CPU 0 instructions: 104000000 cycles: 115510654 heartbeat IPC: 0.679838 cumulative IPC: 0.542397 (Simulation time: 0 hr 51 min 16 sec) 
Heartbeat CPU 0 instructions: 105000000 cycles: 116981535 heartbeat IPC: 0.679865 cumulative IPC: 0.544399 (Simulation time: 0 hr 51 min 52 sec) 
Heartbeat CPU 0 instructions: 106000003 cycles: 118452494 heartbeat IPC: 0.679831 cumulative IPC: 0.546342 (Simulation time: 0 hr 52 min 28 sec) 
Heartbeat CPU 0 instructions: 107000000 cycles: 120638604 heartbeat IPC: 0.457432 cumulative IPC: 0.544486 (Simulation time: 0 hr 53 min 3 sec) 
Heartbeat CPU 0 instructions: 108000000 cycles: 123216148 heartbeat IPC: 0.387966 cumulative IPC: 0.540725 (Simulation time: 0 hr 53 min 36 sec) 
Heartbeat CPU 0 instructions: 109000002 cycles: 125799390 heartbeat IPC: 0.387111 cumulative IPC: 0.537112 (Simulation time: 0 hr 54 min 7 sec) 
Heartbeat CPU 0 instructions: 110000002 cycles: 128378600 heartbeat IPC: 0.387716 cumulative IPC: 0.533685 (Simulation time: 0 hr 54 min 38 sec) 
Heartbeat CPU 0 instructions: 111000001 cycles: 130977559 heartbeat IPC: 0.384769 cumulative IPC: 0.53032 (Simulation time: 0 hr 55 min 9 sec) 
Heartbeat CPU 0 instructions: 112000000 cycles: 132910967 heartbeat IPC: 0.517221 cumulative IPC: 0.530103 (Simulation time: 0 hr 55 min 45 sec) 
Heartbeat CPU 0 instructions: 113000002 cycles: 134411794 heartbeat IPC: 0.666301 cumulative IPC: 0.531829 (Simulation time: 0 hr 56 min 26 sec) 
Heartbeat CPU 0 instructions: 114000001 cycles: 135873322 heartbeat IPC: 0.684215 cumulative IPC: 0.533686 (Simulation time: 0 hr 57 min 4 sec) 
Heartbeat CPU 0 instructions: 115000000 cycles: 137328524 heartbeat IPC: 0.687189 cumulative IPC: 0.535527 (Simulation time: 0 hr 57 min 39 sec) 
Heartbeat CPU 0 instructions: 116000000 cycles: 138826058 heartbeat IPC: 0.667764 cumulative IPC: 0.537138 (Simulation time: 0 hr 58 min 16 sec) 
Heartbeat CPU 0 instructions: 117000000 cycles: 141428644 heartbeat IPC: 0.384233 cumulative IPC: 0.533967 (Simulation time: 0 hr 58 min 47 sec) 
Heartbeat CPU 0 instructions: 118000001 cycles: 144197259 heartbeat IPC: 0.361192 cumulative IPC: 0.530237 (Simulation time: 0 hr 59 min 17 sec) 
Heartbeat CPU 0 instructions: 119000001 cycles: 146968609 heartbeat IPC: 0.360835 cumulative IPC: 0.526653 (Simulation time: 0 hr 59 min 48 sec) 
Heartbeat CPU 0 instructions: 120000000 cycles: 149744905 heartbeat IPC: 0.360192 cumulative IPC: 0.523199 (Simulation time: 1 hr 0 min 20 sec) 
Heartbeat CPU 0 instructions: 121000000 cycles: 152452413 heartbeat IPC: 0.369343 cumulative IPC: 0.520147 (Simulation time: 1 hr 0 min 52 sec) 
Heartbeat CPU 0 instructions: 122000000 cycles: 153554863 heartbeat IPC: 0.907071 cumulative IPC: 0.523247 (Simulation time: 1 hr 1 min 27 sec) 
Heartbeat CPU 0 instructions: 123000001 cycles: 155034559 heartbeat IPC: 0.675815 cumulative IPC: 0.524871 (Simulation time: 1 hr 2 min 3 sec) 
Heartbeat CPU 0 instructions: 124000000 cycles: 156500642 heartbeat IPC: 0.682089 cumulative IPC: 0.526511 (Simulation time: 1 hr 2 min 40 sec) 
Heartbeat CPU 0 instructions: 125000002 cycles: 157967075 heartbeat IPC: 0.681928 cumulative IPC: 0.528115 (Simulation time: 1 hr 3 min 17 sec) 
Heartbeat CPU 0 instructions: 126000001 cycles: 159507363 heartbeat IPC: 0.649229 cumulative IPC: 0.529415 (Simulation time: 1 hr 3 min 53 sec) 
Heartbeat CPU 0 instructions: 127000000 cycles: 161789121 heartbeat IPC: 0.438258 cumulative IPC: 0.527989 (Simulation time: 1 hr 4 min 27 sec) 
Heartbeat CPU 0 instructions: 128000000 cycles: 164087499 heartbeat IPC: 0.435089 cumulative IPC: 0.526547 (Simulation time: 1 hr 5 min 0 sec) 
Heartbeat CPU 0 instructions: 129000002 cycles: 166379570 heartbeat IPC: 0.436288 cumulative IPC: 0.525172 (Simulation time: 1 hr 5 min 33 sec) 
Heartbeat CPU 0 instructions: 130000003 cycles: 168677246 heartbeat IPC: 0.435223 cumulative IPC: 0.523819 (Simulation time: 1 hr 6 min 6 sec) 
Heartbeat CPU 0 instructions: 131000001 cycles: 170983169 heartbeat IPC: 0.433665 cumulative IPC: 0.522478 (Simulation time: 1 hr 6 min 39 sec) 
Heartbeat CPU 0 instructions: 132000000 cycles: 172557910 heartbeat IPC: 0.635024 cumulative IPC: 0.52361 (Simulation time: 1 hr 7 min 17 sec) 
Heartbeat CPU 0 instructions: 133000001 cycles: 174019790 heartbeat IPC: 0.684051 cumulative IPC: 0.525093 (Simulation time: 1 hr 7 min 56 sec) 
Heartbeat CPU 0 instructions: 134000000 cycles: 175437241 heartbeat IPC: 0.705491 cumulative IPC: 0.526697 (Simulation time: 1 hr 8 min 33 sec) 
Heartbeat CPU 0 instructions: 135000001 cycles: 176882501 heartbeat IPC: 0.691918 cumulative IPC: 0.52818 (Simulation time: 1 hr 9 min 9 sec) 
Heartbeat CPU 0 instructions: 136000000 cycles: 178462352 heartbeat IPC: 0.63297 cumulative IPC: 0.529199 (Simulation time: 1 hr 9 min 43 sec) 
Heartbeat CPU 0 instructions: 137000001 cycles: 180747004 heartbeat IPC: 0.437704 cumulative IPC: 0.527931 (Simulation time: 1 hr 10 min 16 sec) 
Heartbeat CPU 0 instructions: 138000001 cycles: 183055727 heartbeat IPC: 0.43314 cumulative IPC: 0.526621 (Simulation time: 1 hr 10 min 48 sec) 
Heartbeat CPU 0 instructions: 139000000 cycles: 185353397 heartbeat IPC: 0.435223 cumulative IPC: 0.525381 (Simulation time: 1 hr 11 min 21 sec) 
Heartbeat CPU 0 instructions: 140000000 cycles: 187665854 heartbeat IPC: 0.43244 cumulative IPC: 0.52413 (Simulation time: 1 hr 11 min 55 sec) 
Heartbeat CPU 0 instructions: 141000000 cycles: 189873684 heartbeat IPC: 0.452933 cumulative IPC: 0.523226 (Simulation time: 1 hr 12 min 30 sec) 
Heartbeat CPU 0 instructions: 142000002 cycles: 190867595 heartbeat IPC: 1.00613 cumulative IPC: 0.52597 (Simulation time: 1 hr 13 min 5 sec) 
Heartbeat CPU 0 instructions: 143000001 cycles: 192298448 heartbeat IPC: 0.698883 cumulative IPC: 0.527373 (Simulation time: 1 hr 13 min 44 sec) 
Heartbeat CPU 0 instructions: 144000000 cycles: 193726772 heartbeat IPC: 0.700121 cumulative IPC: 0.528761 (Simulation time: 1 hr 14 min 22 sec) 
Heartbeat CPU 0 instructions: 145000003 cycles: 195155252 heartbeat IPC: 0.700047 cumulative IPC: 0.530126 (Simulation time: 1 hr 14 min 59 sec) 
Heartbeat CPU 0 instructions: 146000002 cycles: 196583584 heartbeat IPC: 0.700117 cumulative IPC: 0.53147 (Simulation time: 1 hr 15 min 38 sec) 
Heartbeat CPU 0 instructions: 147000001 cycles: 198011988 heartbeat IPC: 0.700081 cumulative IPC: 0.532793 (Simulation time: 1 hr 16 min 15 sec) 
Heartbeat CPU 0 instructions: 148000000 cycles: 199440092 heartbeat IPC: 0.700228 cumulative IPC: 0.534096 (Simulation time: 1 hr 16 min 53 sec) 
Heartbeat CPU 0 instructions: 149000001 cycles: 200867350 heartbeat IPC: 0.700645 cumulative IPC: 0.535382 (Simulation time: 1 hr 17 min 31 sec) 
Heartbeat CPU 0 instructions: 150000000 cycles: 202295773 heartbeat IPC: 0.700072 cumulative IPC: 0.536644 (Simulation time: 1 hr 18 min 11 sec) 
Finished CPU 0 instructions: 100000002 cycles: 186343118 cummulative IPC: 0.536644 (Simulation time: 1 hr 18 min 11 sec) 

ChampSim completed all CPUs

Region of Interest Statistics

CPU 0 cummulative IPC: 0.536644 instructions: 100000002 cycles: 186343118
LLC TOTAL     ACCESS:    3739906  HIT:     157340  MISS:    3582566
LLC LOAD      ACCESS:     680455  HIT:      38002  MISS:     642453
LLC RFO       ACCESS:         20  HIT:         20  MISS:          0
LLC PREFETCH  ACCESS:    2115684  HIT:      96821  MISS:    2018863
LLC WRITEBACK ACCESS:     943747  HIT:      22497  MISS:     921250
OPTgen accesses: 6883
OPTgen hits: 37
OPTgen hit rate: 0.537556


