
*** ChampSim Multicore Out-of-Order Simulator ***

Warmup Instructions: 50000000
Simulation Instructions: 100000000
Configuration: 2
Number of CPUs: 1
LLC sets: 2048
LLC ways: 16
Off-chip DRAM Channels: 1 Width: 64-bit Data Rate: 1600 MT/s

CPU 0 runs /datasets/cs240c-wi22-a00-public/data/Assignment2-gz/soplex_217B.trace.gz
CPU 0 L1D next line prefetcher
CPU 0 L2C IP-based stride prefetcher
Initialize Hawkeye state
Heartbeat CPU 0 instructions: 1000002 cycles: 441280 heartbeat IPC: 2.26614 cumulative IPC: 2.26614 (Simulation time: 0 hr 0 min 45 sec) 
Heartbeat CPU 0 instructions: 2000003 cycles: 800391 heartbeat IPC: 2.78466 cumulative IPC: 2.49878 (Simulation time: 0 hr 1 min 21 sec) 
Heartbeat CPU 0 instructions: 3000002 cycles: 1245353 heartbeat IPC: 2.24738 cumulative IPC: 2.40896 (Simulation time: 0 hr 1 min 58 sec) 
Heartbeat CPU 0 instructions: 4000000 cycles: 1673050 heartbeat IPC: 2.3381 cumulative IPC: 2.39084 (Simulation time: 0 hr 2 min 39 sec) 
Heartbeat CPU 0 instructions: 5000001 cycles: 2057099 heartbeat IPC: 2.60384 cumulative IPC: 2.43061 (Simulation time: 0 hr 3 min 9 sec) 
Heartbeat CPU 0 instructions: 6000000 cycles: 2431235 heartbeat IPC: 2.67282 cumulative IPC: 2.46788 (Simulation time: 0 hr 3 min 39 sec) 
Heartbeat CPU 0 instructions: 7000003 cycles: 2955599 heartbeat IPC: 1.90708 cumulative IPC: 2.36839 (Simulation time: 0 hr 4 min 10 sec) 
Heartbeat CPU 0 instructions: 8000000 cycles: 3402057 heartbeat IPC: 2.23985 cumulative IPC: 2.35152 (Simulation time: 0 hr 4 min 53 sec) 
Heartbeat CPU 0 instructions: 9000001 cycles: 3826481 heartbeat IPC: 2.35614 cumulative IPC: 2.35203 (Simulation time: 0 hr 5 min 32 sec) 
Heartbeat CPU 0 instructions: 10000000 cycles: 4238847 heartbeat IPC: 2.42503 cumulative IPC: 2.35913 (Simulation time: 0 hr 6 min 5 sec) 
Heartbeat CPU 0 instructions: 11000002 cycles: 4667343 heartbeat IPC: 2.33375 cumulative IPC: 2.3568 (Simulation time: 0 hr 6 min 44 sec) 
Heartbeat CPU 0 instructions: 12000000 cycles: 5071582 heartbeat IPC: 2.47378 cumulative IPC: 2.36613 (Simulation time: 0 hr 7 min 19 sec) 
Heartbeat CPU 0 instructions: 13000000 cycles: 5455827 heartbeat IPC: 2.60251 cumulative IPC: 2.38277 (Simulation time: 0 hr 7 min 49 sec) 
Heartbeat CPU 0 instructions: 14000000 cycles: 5904855 heartbeat IPC: 2.22703 cumulative IPC: 2.37093 (Simulation time: 0 hr 8 min 19 sec) 
Heartbeat CPU 0 instructions: 15000001 cycles: 6425702 heartbeat IPC: 1.91995 cumulative IPC: 2.33438 (Simulation time: 0 hr 8 min 55 sec) 
Heartbeat CPU 0 instructions: 16000000 cycles: 6884201 heartbeat IPC: 2.18103 cumulative IPC: 2.32416 (Simulation time: 0 hr 9 min 39 sec) 
Heartbeat CPU 0 instructions: 17000002 cycles: 7264066 heartbeat IPC: 2.63252 cumulative IPC: 2.34029 (Simulation time: 0 hr 10 min 14 sec) 
Heartbeat CPU 0 instructions: 18000003 cycles: 7693792 heartbeat IPC: 2.32707 cumulative IPC: 2.33955 (Simulation time: 0 hr 10 min 52 sec) 
Heartbeat CPU 0 instructions: 19000001 cycles: 8117790 heartbeat IPC: 2.3585 cumulative IPC: 2.34054 (Simulation time: 0 hr 11 min 33 sec) 
Heartbeat CPU 0 instructions: 20000000 cycles: 8502138 heartbeat IPC: 2.60181 cumulative IPC: 2.35235 (Simulation time: 0 hr 12 min 4 sec) 
Heartbeat CPU 0 instructions: 21000000 cycles: 8879662 heartbeat IPC: 2.64884 cumulative IPC: 2.36495 (Simulation time: 0 hr 12 min 34 sec) 
Heartbeat CPU 0 instructions: 22000001 cycles: 9410557 heartbeat IPC: 1.88361 cumulative IPC: 2.3378 (Simulation time: 0 hr 13 min 8 sec) 
Heartbeat CPU 0 instructions: 23000001 cycles: 9858613 heartbeat IPC: 2.23186 cumulative IPC: 2.33299 (Simulation time: 0 hr 13 min 50 sec) 
Heartbeat CPU 0 instructions: 24000000 cycles: 10275801 heartbeat IPC: 2.397 cumulative IPC: 2.33558 (Simulation time: 0 hr 14 min 30 sec) 
Heartbeat CPU 0 instructions: 25000001 cycles: 10688396 heartbeat IPC: 2.42369 cumulative IPC: 2.33899 (Simulation time: 0 hr 15 min 4 sec) 
Heartbeat CPU 0 instructions: 26000001 cycles: 11120255 heartbeat IPC: 2.31557 cumulative IPC: 2.33808 (Simulation time: 0 hr 15 min 46 sec) 
Heartbeat CPU 0 instructions: 27000002 cycles: 11522367 heartbeat IPC: 2.48687 cumulative IPC: 2.34327 (Simulation time: 0 hr 16 min 21 sec) 
Heartbeat CPU 0 instructions: 28000000 cycles: 11906679 heartbeat IPC: 2.60205 cumulative IPC: 2.35162 (Simulation time: 0 hr 16 min 52 sec) 
Heartbeat CPU 0 instructions: 29000002 cycles: 12360454 heartbeat IPC: 2.20374 cumulative IPC: 2.34619 (Simulation time: 0 hr 17 min 26 sec) 
Heartbeat CPU 0 instructions: 30000002 cycles: 12883302 heartbeat IPC: 1.9126 cumulative IPC: 2.3286 (Simulation time: 0 hr 18 min 0 sec) 
Heartbeat CPU 0 instructions: 31000000 cycles: 13288905 heartbeat IPC: 2.46546 cumulative IPC: 2.33277 (Simulation time: 0 hr 18 min 41 sec) 
Heartbeat CPU 0 instructions: 32000000 cycles: 13697180 heartbeat IPC: 2.44933 cumulative IPC: 2.33625 (Simulation time: 0 hr 19 min 13 sec) 
Heartbeat CPU 0 instructions: 33000001 cycles: 14122026 heartbeat IPC: 2.3538 cumulative IPC: 2.33678 (Simulation time: 0 hr 19 min 50 sec) 
Heartbeat CPU 0 instructions: 34000000 cycles: 14530360 heartbeat IPC: 2.44897 cumulative IPC: 2.33993 (Simulation time: 0 hr 20 min 26 sec) 
Heartbeat CPU 0 instructions: 35000002 cycles: 14915056 heartbeat IPC: 2.59946 cumulative IPC: 2.34662 (Simulation time: 0 hr 20 min 56 sec) 
Heartbeat CPU 0 instructions: 36000000 cycles: 15351627 heartbeat IPC: 2.29057 cumulative IPC: 2.34503 (Simulation time: 0 hr 21 min 27 sec) 
Heartbeat CPU 0 instructions: 37000001 cycles: 15876372 heartbeat IPC: 1.90569 cumulative IPC: 2.33051 (Simulation time: 0 hr 22 min 0 sec) 
Heartbeat CPU 0 instructions: 38000000 cycles: 16304774 heartbeat IPC: 2.33425 cumulative IPC: 2.33061 (Simulation time: 0 hr 22 min 41 sec) 
Heartbeat CPU 0 instructions: 39000001 cycles: 16701214 heartbeat IPC: 2.52245 cumulative IPC: 2.33516 (Simulation time: 0 hr 23 min 15 sec) 
Heartbeat CPU 0 instructions: 40000000 cycles: 17125981 heartbeat IPC: 2.35423 cumulative IPC: 2.33563 (Simulation time: 0 hr 23 min 55 sec) 
Heartbeat CPU 0 instructions: 41000000 cycles: 17541080 heartbeat IPC: 2.40906 cumulative IPC: 2.33737 (Simulation time: 0 hr 24 min 32 sec) 
Heartbeat CPU 0 instructions: 42000002 cycles: 17925006 heartbeat IPC: 2.60467 cumulative IPC: 2.3431 (Simulation time: 0 hr 25 min 2 sec) 
Heartbeat CPU 0 instructions: 43000000 cycles: 18345653 heartbeat IPC: 2.37729 cumulative IPC: 2.34388 (Simulation time: 0 hr 25 min 35 sec) 
Heartbeat CPU 0 instructions: 44000000 cycles: 18876894 heartbeat IPC: 1.88238 cumulative IPC: 2.33089 (Simulation time: 0 hr 26 min 10 sec) 
Heartbeat CPU 0 instructions: 45000003 cycles: 19336101 heartbeat IPC: 2.17767 cumulative IPC: 2.32725 (Simulation time: 0 hr 26 min 53 sec) 
Heartbeat CPU 0 instructions: 46000000 cycles: 19767926 heartbeat IPC: 2.31575 cumulative IPC: 2.327 (Simulation time: 0 hr 27 min 29 sec) 
Heartbeat CPU 0 instructions: 47000001 cycles: 20178822 heartbeat IPC: 2.43371 cumulative IPC: 2.32917 (Simulation time: 0 hr 28 min 0 sec) 
Heartbeat CPU 0 instructions: 48000000 cycles: 20607366 heartbeat IPC: 2.33348 cumulative IPC: 2.32926 (Simulation time: 0 hr 28 min 37 sec) 
Heartbeat CPU 0 instructions: 49000000 cycles: 21012676 heartbeat IPC: 2.46725 cumulative IPC: 2.33193 (Simulation time: 0 hr 29 min 10 sec) 
Heartbeat CPU 0 instructions: 50000002 cycles: 21397180 heartbeat IPC: 2.60076 cumulative IPC: 2.33676 (Simulation time: 0 hr 29 min 41 sec) 

Warmup complete CPU 0 instructions: 50000002 cycles: 21397180 (Simulation time: 0 hr 29 min 41 sec) 

Heartbeat CPU 0 instructions: 51000000 cycles: 23963854 heartbeat IPC: 0.389609 cumulative IPC: 0.389609 (Simulation time: 0 hr 30 min 20 sec) 
Heartbeat CPU 0 instructions: 52000000 cycles: 26738314 heartbeat IPC: 0.360431 cumulative IPC: 0.374452 (Simulation time: 0 hr 31 min 11 sec) 
Heartbeat CPU 0 instructions: 53000000 cycles: 30187142 heartbeat IPC: 0.289954 cumulative IPC: 0.341298 (Simulation time: 0 hr 32 min 8 sec) 
Heartbeat CPU 0 instructions: 54000000 cycles: 32055624 heartbeat IPC: 0.535194 cumulative IPC: 0.375289 (Simulation time: 0 hr 32 min 53 sec) 
Heartbeat CPU 0 instructions: 55000000 cycles: 35367652 heartbeat IPC: 0.30193 cumulative IPC: 0.357898 (Simulation time: 0 hr 33 min 48 sec) 
Heartbeat CPU 0 instructions: 56000000 cycles: 38123411 heartbeat IPC: 0.362876 cumulative IPC: 0.358718 (Simulation time: 0 hr 34 min 33 sec) 
Heartbeat CPU 0 instructions: 57000003 cycles: 39352731 heartbeat IPC: 0.81346 cumulative IPC: 0.389852 (Simulation time: 0 hr 35 min 2 sec) 
Heartbeat CPU 0 instructions: 58000000 cycles: 41523311 heartbeat IPC: 0.460705 cumulative IPC: 0.397493 (Simulation time: 0 hr 35 min 40 sec) 
Heartbeat CPU 0 instructions: 59000000 cycles: 44297064 heartbeat IPC: 0.360522 cumulative IPC: 0.393015 (Simulation time: 0 hr 36 min 30 sec) 
Heartbeat CPU 0 instructions: 60000000 cycles: 47699936 heartbeat IPC: 0.293869 cumulative IPC: 0.380188 (Simulation time: 0 hr 37 min 28 sec) 
Heartbeat CPU 0 instructions: 61000000 cycles: 49943637 heartbeat IPC: 0.445692 cumulative IPC: 0.385337 (Simulation time: 0 hr 38 min 11 sec) 
Heartbeat CPU 0 instructions: 62000002 cycles: 52624435 heartbeat IPC: 0.373024 cumulative IPC: 0.38428 (Simulation time: 0 hr 39 min 3 sec) 
Heartbeat CPU 0 instructions: 63000001 cycles: 55939442 heartbeat IPC: 0.301658 cumulative IPC: 0.376351 (Simulation time: 0 hr 39 min 56 sec) 
Heartbeat CPU 0 instructions: 64000000 cycles: 57275932 heartbeat IPC: 0.748228 cumulative IPC: 0.390203 (Simulation time: 0 hr 40 min 26 sec) 
Heartbeat CPU 0 instructions: 65000001 cycles: 58780893 heartbeat IPC: 0.66447 cumulative IPC: 0.401244 (Simulation time: 0 hr 41 min 1 sec) 
Heartbeat CPU 0 instructions: 66000002 cycles: 62010254 heartbeat IPC: 0.309659 cumulative IPC: 0.393962 (Simulation time: 0 hr 41 min 51 sec) 
Heartbeat CPU 0 instructions: 67000000 cycles: 65216097 heartbeat IPC: 0.31193 cumulative IPC: 0.38796 (Simulation time: 0 hr 42 min 48 sec) 
Heartbeat CPU 0 instructions: 68000000 cycles: 70830475 heartbeat IPC: 0.178114 cumulative IPC: 0.364127 (Simulation time: 0 hr 43 min 48 sec) 
Heartbeat CPU 0 instructions: 69000001 cycles: 74764477 heartbeat IPC: 0.254194 cumulative IPC: 0.356023 (Simulation time: 0 hr 44 min 43 sec) 
Heartbeat CPU 0 instructions: 70000002 cycles: 78812497 heartbeat IPC: 0.247035 cumulative IPC: 0.348339 (Simulation time: 0 hr 45 min 47 sec) 
Heartbeat CPU 0 instructions: 71000002 cycles: 83160642 heartbeat IPC: 0.229983 cumulative IPC: 0.340007 (Simulation time: 0 hr 46 min 52 sec) 
Heartbeat CPU 0 instructions: 72000000 cycles: 86526891 heartbeat IPC: 0.297066 cumulative IPC: 0.337787 (Simulation time: 0 hr 47 min 48 sec) 
Heartbeat CPU 0 instructions: 73000000 cycles: 89849174 heartbeat IPC: 0.300998 cumulative IPC: 0.336002 (Simulation time: 0 hr 48 min 46 sec) 
Heartbeat CPU 0 instructions: 74000000 cycles: 93367167 heartbeat IPC: 0.284253 cumulative IPC: 0.333472 (Simulation time: 0 hr 49 min 33 sec) 
Heartbeat CPU 0 instructions: 75000002 cycles: 96974355 heartbeat IPC: 0.277225 cumulative IPC: 0.330788 (Simulation time: 0 hr 50 min 30 sec) 
Heartbeat CPU 0 instructions: 76000000 cycles: 99541646 heartbeat IPC: 0.389515 cumulative IPC: 0.332717 (Simulation time: 0 hr 51 min 20 sec) 
Heartbeat CPU 0 instructions: 77000000 cycles: 102968726 heartbeat IPC: 0.291794 cumulative IPC: 0.330998 (Simulation time: 0 hr 52 min 17 sec) 
Heartbeat CPU 0 instructions: 78000002 cycles: 105117222 heartbeat IPC: 0.465443 cumulative IPC: 0.334448 (Simulation time: 0 hr 53 min 4 sec) 
Heartbeat CPU 0 instructions: 79000003 cycles: 106954825 heartbeat IPC: 0.544188 cumulative IPC: 0.338953 (Simulation time: 0 hr 53 min 56 sec) 
Heartbeat CPU 0 instructions: 80000000 cycles: 108291833 heartbeat IPC: 0.747936 cumulative IPC: 0.345246 (Simulation time: 0 hr 54 min 35 sec) 
Heartbeat CPU 0 instructions: 81000003 cycles: 110457534 heartbeat IPC: 0.461746 cumulative IPC: 0.348079 (Simulation time: 0 hr 55 min 28 sec) 
Heartbeat CPU 0 instructions: 82000001 cycles: 113140409 heartbeat IPC: 0.372734 cumulative IPC: 0.3488 (Simulation time: 0 hr 56 min 23 sec) 
Heartbeat CPU 0 instructions: 83000002 cycles: 115450748 heartbeat IPC: 0.432837 cumulative IPC: 0.350864 (Simulation time: 0 hr 57 min 14 sec) 
Heartbeat CPU 0 instructions: 84000000 cycles: 117641159 heartbeat IPC: 0.456534 cumulative IPC: 0.353269 (Simulation time: 0 hr 58 min 2 sec) 
Heartbeat CPU 0 instructions: 85000000 cycles: 119233298 heartbeat IPC: 0.628086 cumulative IPC: 0.357741 (Simulation time: 0 hr 58 min 49 sec) 
Heartbeat CPU 0 instructions: 86000000 cycles: 122821039 heartbeat IPC: 0.278727 cumulative IPC: 0.354946 (Simulation time: 0 hr 59 min 51 sec) 
Heartbeat CPU 0 instructions: 87000000 cycles: 125320234 heartbeat IPC: 0.400129 cumulative IPC: 0.356033 (Simulation time: 1 hr 0 min 35 sec) 
Heartbeat CPU 0 instructions: 88000000 cycles: 126527880 heartbeat IPC: 0.828057 cumulative IPC: 0.361455 (Simulation time: 1 hr 1 min 5 sec) 
Heartbeat CPU 0 instructions: 89000003 cycles: 129101424 heartbeat IPC: 0.38857 cumulative IPC: 0.362103 (Simulation time: 1 hr 1 min 49 sec) 
Heartbeat CPU 0 instructions: 90000002 cycles: 132007954 heartbeat IPC: 0.344053 cumulative IPC: 0.361628 (Simulation time: 1 hr 2 min 40 sec) 
Heartbeat CPU 0 instructions: 91000001 cycles: 135652339 heartbeat IPC: 0.274394 cumulative IPC: 0.358846 (Simulation time: 1 hr 3 min 40 sec) 
Heartbeat CPU 0 instructions: 92000000 cycles: 137505662 heartbeat IPC: 0.539571 cumulative IPC: 0.361731 (Simulation time: 1 hr 4 min 26 sec) 
Heartbeat CPU 0 instructions: 93000000 cycles: 140867968 heartbeat IPC: 0.297415 cumulative IPC: 0.359921 (Simulation time: 1 hr 5 min 28 sec) 
Heartbeat CPU 0 instructions: 94000001 cycles: 143633675 heartbeat IPC: 0.361572 cumulative IPC: 0.359958 (Simulation time: 1 hr 6 min 18 sec) 
Heartbeat CPU 0 instructions: 95000003 cycles: 144965186 heartbeat IPC: 0.751028 cumulative IPC: 0.364172 (Simulation time: 1 hr 6 min 50 sec) 
Heartbeat CPU 0 instructions: 96000000 cycles: 147217927 heartbeat IPC: 0.443902 cumulative IPC: 0.365599 (Simulation time: 1 hr 7 min 33 sec) 
Heartbeat CPU 0 instructions: 97000002 cycles: 149792627 heartbeat IPC: 0.388396 cumulative IPC: 0.366057 (Simulation time: 1 hr 8 min 24 sec) 
Heartbeat CPU 0 instructions: 98000003 cycles: 153806809 heartbeat IPC: 0.249117 cumulative IPC: 0.362511 (Simulation time: 1 hr 9 min 36 sec) 
Heartbeat CPU 0 instructions: 99000000 cycles: 156723054 heartbeat IPC: 0.342906 cumulative IPC: 0.362089 (Simulation time: 1 hr 10 min 32 sec) 
Heartbeat CPU 0 instructions: 100000000 cycles: 158604065 heartbeat IPC: 0.531629 cumulative IPC: 0.364413 (Simulation time: 1 hr 11 min 26 sec) 
Heartbeat CPU 0 instructions: 101000001 cycles: 162412414 heartbeat IPC: 0.262581 cumulative IPC: 0.361663 (Simulation time: 1 hr 12 min 30 sec) 
Heartbeat CPU 0 instructions: 102000000 cycles: 163970499 heartbeat IPC: 0.641813 cumulative IPC: 0.364725 (Simulation time: 1 hr 13 min 0 sec) 
Heartbeat CPU 0 instructions: 103000001 cycles: 165111770 heartbeat IPC: 0.876217 cumulative IPC: 0.368786 (Simulation time: 1 hr 13 min 32 sec) 
Heartbeat CPU 0 instructions: 104000000 cycles: 168684798 heartbeat IPC: 0.279874 cumulative IPC: 0.36663 (Simulation time: 1 hr 14 min 25 sec) 
Heartbeat CPU 0 instructions: 105000003 cycles: 171884936 heartbeat IPC: 0.312487 cumulative IPC: 0.365478 (Simulation time: 1 hr 15 min 32 sec) 
Heartbeat CPU 0 instructions: 106000002 cycles: 174654062 heartbeat IPC: 0.361124 cumulative IPC: 0.3654 (Simulation time: 1 hr 16 min 32 sec) 
Heartbeat CPU 0 instructions: 107000000 cycles: 176337166 heartbeat IPC: 0.594139 cumulative IPC: 0.367884 (Simulation time: 1 hr 17 min 32 sec) 
Heartbeat CPU 0 instructions: 108000000 cycles: 180183774 heartbeat IPC: 0.259969 cumulative IPC: 0.36527 (Simulation time: 1 hr 18 min 51 sec) 
Heartbeat CPU 0 instructions: 109000000 cycles: 182058221 heartbeat IPC: 0.533491 cumulative IPC: 0.367233 (Simulation time: 1 hr 19 min 35 sec) 
Heartbeat CPU 0 instructions: 110000002 cycles: 183331216 heartbeat IPC: 0.785551 cumulative IPC: 0.370521 (Simulation time: 1 hr 20 min 12 sec) 
Heartbeat CPU 0 instructions: 111000000 cycles: 186590619 heartbeat IPC: 0.306804 cumulative IPC: 0.369264 (Simulation time: 1 hr 21 min 5 sec) 
Heartbeat CPU 0 instructions: 112000000 cycles: 189500080 heartbeat IPC: 0.343706 cumulative IPC: 0.368822 (Simulation time: 1 hr 22 min 5 sec) 
Heartbeat CPU 0 instructions: 113000001 cycles: 192421950 heartbeat IPC: 0.342247 cumulative IPC: 0.368368 (Simulation time: 1 hr 23 min 3 sec) 
Heartbeat CPU 0 instructions: 114000003 cycles: 193919069 heartbeat IPC: 0.667951 cumulative IPC: 0.370967 (Simulation time: 1 hr 23 min 57 sec) 
Heartbeat CPU 0 instructions: 115000000 cycles: 197747486 heartbeat IPC: 0.261204 cumulative IPC: 0.368585 (Simulation time: 1 hr 25 min 11 sec) 
Heartbeat CPU 0 instructions: 116000000 cycles: 199906649 heartbeat IPC: 0.463142 cumulative IPC: 0.369728 (Simulation time: 1 hr 25 min 58 sec) 
Heartbeat CPU 0 instructions: 117000000 cycles: 201199432 heartbeat IPC: 0.773525 cumulative IPC: 0.372632 (Simulation time: 1 hr 26 min 33 sec) 
Heartbeat CPU 0 instructions: 118000000 cycles: 204238212 heartbeat IPC: 0.329079 cumulative IPC: 0.371908 (Simulation time: 1 hr 27 min 21 sec) 
Heartbeat CPU 0 instructions: 119000001 cycles: 207013860 heartbeat IPC: 0.360277 cumulative IPC: 0.371734 (Simulation time: 1 hr 28 min 18 sec) 
Heartbeat CPU 0 instructions: 120000000 cycles: 210086643 heartbeat IPC: 0.325438 cumulative IPC: 0.37098 (Simulation time: 1 hr 29 min 15 sec) 
Heartbeat CPU 0 instructions: 121000000 cycles: 211628561 heartbeat IPC: 0.648543 cumulative IPC: 0.37323 (Simulation time: 1 hr 30 min 7 sec) 
Heartbeat CPU 0 instructions: 122000001 cycles: 215248108 heartbeat IPC: 0.276278 cumulative IPC: 0.371419 (Simulation time: 1 hr 31 min 20 sec) 
Heartbeat CPU 0 instructions: 123000000 cycles: 217721858 heartbeat IPC: 0.404244 cumulative IPC: 0.371833 (Simulation time: 1 hr 32 min 12 sec) 
Heartbeat CPU 0 instructions: 124000000 cycles: 218930883 heartbeat IPC: 0.827113 cumulative IPC: 0.37462 (Simulation time: 1 hr 32 min 45 sec) 
Heartbeat CPU 0 instructions: 125000003 cycles: 221580826 heartbeat IPC: 0.377368 cumulative IPC: 0.374656 (Simulation time: 1 hr 33 min 33 sec) 
Heartbeat CPU 0 instructions: 126000002 cycles: 224361431 heartbeat IPC: 0.359634 cumulative IPC: 0.37445 (Simulation time: 1 hr 34 min 30 sec) 
Heartbeat CPU 0 instructions: 127000003 cycles: 226825418 heartbeat IPC: 0.405847 cumulative IPC: 0.374827 (Simulation time: 1 hr 35 min 23 sec) 
Heartbeat CPU 0 instructions: 128000000 cycles: 229468454 heartbeat IPC: 0.378352 cumulative IPC: 0.374872 (Simulation time: 1 hr 36 min 11 sec) 
Heartbeat CPU 0 instructions: 129000002 cycles: 231430532 heartbeat IPC: 0.509665 cumulative IPC: 0.376131 (Simulation time: 1 hr 36 min 57 sec) 
Heartbeat CPU 0 instructions: 130000000 cycles: 235419464 heartbeat IPC: 0.250693 cumulative IPC: 0.373793 (Simulation time: 1 hr 37 min 54 sec) 
Heartbeat CPU 0 instructions: 131000001 cycles: 236806696 heartbeat IPC: 0.720861 cumulative IPC: 0.376028 (Simulation time: 1 hr 38 min 18 sec) 
Heartbeat CPU 0 instructions: 132000000 cycles: 238063350 heartbeat IPC: 0.795763 cumulative IPC: 0.378462 (Simulation time: 1 hr 38 min 45 sec) 
Heartbeat CPU 0 instructions: 133000002 cycles: 241433264 heartbeat IPC: 0.296744 cumulative IPC: 0.377211 (Simulation time: 1 hr 39 min 26 sec) 
Heartbeat CPU 0 instructions: 134000002 cycles: 244615796 heartbeat IPC: 0.314215 cumulative IPC: 0.376313 (Simulation time: 1 hr 40 min 7 sec) 
Heartbeat CPU 0 instructions: 135000001 cycles: 247358559 heartbeat IPC: 0.364595 cumulative IPC: 0.37617 (Simulation time: 1 hr 40 min 39 sec) 
Heartbeat CPU 0 instructions: 136000000 cycles: 249075825 heartbeat IPC: 0.58232 cumulative IPC: 0.377725 (Simulation time: 1 hr 41 min 12 sec) 
Heartbeat CPU 0 instructions: 137000003 cycles: 252877219 heartbeat IPC: 0.263062 cumulative IPC: 0.375842 (Simulation time: 1 hr 41 min 52 sec) 
Heartbeat CPU 0 instructions: 138000000 cycles: 254629085 heartbeat IPC: 0.570818 cumulative IPC: 0.377307 (Simulation time: 1 hr 42 min 15 sec) 
Heartbeat CPU 0 instructions: 139000000 cycles: 255780220 heartbeat IPC: 0.868708 cumulative IPC: 0.37972 (Simulation time: 1 hr 42 min 38 sec) 
Heartbeat CPU 0 instructions: 140000000 cycles: 259248251 heartbeat IPC: 0.288348 cumulative IPC: 0.378388 (Simulation time: 1 hr 43 min 12 sec) 
Heartbeat CPU 0 instructions: 141000001 cycles: 262153405 heartbeat IPC: 0.344216 cumulative IPC: 0.377976 (Simulation time: 1 hr 43 min 46 sec) 
Heartbeat CPU 0 instructions: 142000001 cycles: 265001756 heartbeat IPC: 0.35108 cumulative IPC: 0.377661 (Simulation time: 1 hr 44 min 18 sec) 
Heartbeat CPU 0 instructions: 143000000 cycles: 266579298 heartbeat IPC: 0.633897 cumulative IPC: 0.37931 (Simulation time: 1 hr 44 min 44 sec) 
Heartbeat CPU 0 instructions: 144000000 cycles: 270386098 heartbeat IPC: 0.262688 cumulative IPC: 0.377527 (Simulation time: 1 hr 45 min 18 sec) 
Heartbeat CPU 0 instructions: 145000001 cycles: 272436656 heartbeat IPC: 0.487673 cumulative IPC: 0.378427 (Simulation time: 1 hr 45 min 35 sec) 
Heartbeat CPU 0 instructions: 146000000 cycles: 273717190 heartbeat IPC: 0.780923 cumulative IPC: 0.380469 (Simulation time: 1 hr 45 min 50 sec) 
Heartbeat CPU 0 instructions: 147000000 cycles: 276856056 heartbeat IPC: 0.318586 cumulative IPC: 0.379709 (Simulation time: 1 hr 46 min 11 sec) 
Heartbeat CPU 0 instructions: 148000000 cycles: 279625443 heartbeat IPC: 0.361091 cumulative IPC: 0.379509 (Simulation time: 1 hr 46 min 32 sec) 
Heartbeat CPU 0 instructions: 149000002 cycles: 282695944 heartbeat IPC: 0.32568 cumulative IPC: 0.378877 (Simulation time: 1 hr 46 min 52 sec) 
Heartbeat CPU 0 instructions: 150000000 cycles: 284123274 heartbeat IPC: 0.700607 cumulative IPC: 0.380625 (Simulation time: 1 hr 47 min 11 sec) 
Finished CPU 0 instructions: 100000001 cycles: 262726098 cummulative IPC: 0.380625 (Simulation time: 1 hr 47 min 11 sec) 

ChampSim completed all CPUs

Region of Interest Statistics

CPU 0 cummulative IPC: 0.380625 instructions: 100000001 cycles: 262726098
LLC TOTAL     ACCESS:    8585401  HIT:    4860630  MISS:    3724771
LLC LOAD      ACCESS:    2179796  HIT:    1069756  MISS:    1110040
LLC RFO       ACCESS:     808511  HIT:     267180  MISS:     541331
LLC PREFETCH  ACCESS:    3498168  HIT:    1613332  MISS:    1884836
LLC WRITEBACK ACCESS:    2098926  HIT:    1910362  MISS:     188564
OPTgen accesses: 34152
OPTgen hits: 25825
OPTgen hit rate: 75.6178


