
*** ChampSim Multicore Out-of-Order Simulator ***

Warmup Instructions: 50000000
Simulation Instructions: 100000000
Configuration: 2
Number of CPUs: 1
LLC sets: 2048
LLC ways: 16
Off-chip DRAM Channels: 1 Width: 64-bit Data Rate: 1600 MT/s

CPU 0 runs /datasets/cs240c-wi22-a00-public/data/Assignment2-gz/milc_409B.trace.gz
CPU 0 L1D next line prefetcher
CPU 0 L2C IP-based stride prefetcher
Initialize Hawkeye state
Heartbeat CPU 0 instructions: 1000002 cycles: 407040 heartbeat IPC: 2.45677 cumulative IPC: 2.45677 (Simulation time: 0 hr 0 min 42 sec) 
Heartbeat CPU 0 instructions: 2000002 cycles: 889868 heartbeat IPC: 2.07113 cumulative IPC: 2.24753 (Simulation time: 0 hr 1 min 34 sec) 
Heartbeat CPU 0 instructions: 3000003 cycles: 1672035 heartbeat IPC: 1.2785 cumulative IPC: 1.79422 (Simulation time: 0 hr 2 min 38 sec) 
Heartbeat CPU 0 instructions: 4000000 cycles: 2454292 heartbeat IPC: 1.27835 cumulative IPC: 1.6298 (Simulation time: 0 hr 3 min 44 sec) 
Heartbeat CPU 0 instructions: 5000000 cycles: 3135413 heartbeat IPC: 1.46817 cumulative IPC: 1.59469 (Simulation time: 0 hr 4 min 44 sec) 
Heartbeat CPU 0 instructions: 6000003 cycles: 3679805 heartbeat IPC: 1.83692 cumulative IPC: 1.63052 (Simulation time: 0 hr 5 min 38 sec) 
Heartbeat CPU 0 instructions: 7000002 cycles: 4224111 heartbeat IPC: 1.8372 cumulative IPC: 1.65715 (Simulation time: 0 hr 6 min 33 sec) 
Heartbeat CPU 0 instructions: 8000000 cycles: 4768519 heartbeat IPC: 1.83685 cumulative IPC: 1.67767 (Simulation time: 0 hr 7 min 25 sec) 
Heartbeat CPU 0 instructions: 9000003 cycles: 5312845 heartbeat IPC: 1.83714 cumulative IPC: 1.69401 (Simulation time: 0 hr 8 min 16 sec) 
Heartbeat CPU 0 instructions: 10000000 cycles: 5857233 heartbeat IPC: 1.83692 cumulative IPC: 1.70729 (Simulation time: 0 hr 9 min 0 sec) 
Heartbeat CPU 0 instructions: 11000002 cycles: 6401583 heartbeat IPC: 1.83706 cumulative IPC: 1.71833 (Simulation time: 0 hr 9 min 45 sec) 
Heartbeat CPU 0 instructions: 12000000 cycles: 6945918 heartbeat IPC: 1.8371 cumulative IPC: 1.72763 (Simulation time: 0 hr 10 min 29 sec) 
Heartbeat CPU 0 instructions: 13000000 cycles: 7490306 heartbeat IPC: 1.83693 cumulative IPC: 1.73558 (Simulation time: 0 hr 11 min 14 sec) 
Heartbeat CPU 0 instructions: 14000002 cycles: 8034671 heartbeat IPC: 1.83701 cumulative IPC: 1.74245 (Simulation time: 0 hr 11 min 57 sec) 
Heartbeat CPU 0 instructions: 15000001 cycles: 8578998 heartbeat IPC: 1.83713 cumulative IPC: 1.74846 (Simulation time: 0 hr 12 min 38 sec) 
Heartbeat CPU 0 instructions: 16000000 cycles: 9123372 heartbeat IPC: 1.83697 cumulative IPC: 1.75374 (Simulation time: 0 hr 13 min 25 sec) 
Heartbeat CPU 0 instructions: 17000002 cycles: 9667738 heartbeat IPC: 1.837 cumulative IPC: 1.75843 (Simulation time: 0 hr 14 min 10 sec) 
Heartbeat CPU 0 instructions: 18000000 cycles: 10212108 heartbeat IPC: 1.83698 cumulative IPC: 1.76261 (Simulation time: 0 hr 14 min 54 sec) 
Heartbeat CPU 0 instructions: 19000003 cycles: 10756428 heartbeat IPC: 1.83716 cumulative IPC: 1.76639 (Simulation time: 0 hr 15 min 42 sec) 
Heartbeat CPU 0 instructions: 20000000 cycles: 11300832 heartbeat IPC: 1.83687 cumulative IPC: 1.76978 (Simulation time: 0 hr 16 min 26 sec) 
Heartbeat CPU 0 instructions: 21000001 cycles: 11845162 heartbeat IPC: 1.83712 cumulative IPC: 1.77288 (Simulation time: 0 hr 17 min 12 sec) 
Heartbeat CPU 0 instructions: 22000003 cycles: 12389529 heartbeat IPC: 1.837 cumulative IPC: 1.77569 (Simulation time: 0 hr 17 min 58 sec) 
Heartbeat CPU 0 instructions: 23000002 cycles: 12933914 heartbeat IPC: 1.83693 cumulative IPC: 1.77827 (Simulation time: 0 hr 18 min 43 sec) 
Heartbeat CPU 0 instructions: 24000000 cycles: 13478221 heartbeat IPC: 1.83719 cumulative IPC: 1.78065 (Simulation time: 0 hr 19 min 30 sec) 
Heartbeat CPU 0 instructions: 25000000 cycles: 14022617 heartbeat IPC: 1.8369 cumulative IPC: 1.78283 (Simulation time: 0 hr 20 min 13 sec) 
Heartbeat CPU 0 instructions: 26000000 cycles: 14566991 heartbeat IPC: 1.83697 cumulative IPC: 1.78486 (Simulation time: 0 hr 20 min 58 sec) 
Heartbeat CPU 0 instructions: 27000002 cycles: 15111313 heartbeat IPC: 1.83715 cumulative IPC: 1.78674 (Simulation time: 0 hr 21 min 43 sec) 
Heartbeat CPU 0 instructions: 28000000 cycles: 15655448 heartbeat IPC: 1.83778 cumulative IPC: 1.78851 (Simulation time: 0 hr 22 min 25 sec) 
Heartbeat CPU 0 instructions: 29000000 cycles: 16196638 heartbeat IPC: 1.84778 cumulative IPC: 1.7905 (Simulation time: 0 hr 23 min 12 sec) 
Heartbeat CPU 0 instructions: 30000000 cycles: 16737803 heartbeat IPC: 1.84787 cumulative IPC: 1.79235 (Simulation time: 0 hr 24 min 1 sec) 
Heartbeat CPU 0 instructions: 31000003 cycles: 17278974 heartbeat IPC: 1.84785 cumulative IPC: 1.79409 (Simulation time: 0 hr 24 min 48 sec) 
Heartbeat CPU 0 instructions: 32000000 cycles: 17820134 heartbeat IPC: 1.84788 cumulative IPC: 1.79572 (Simulation time: 0 hr 25 min 35 sec) 
Heartbeat CPU 0 instructions: 33000000 cycles: 18361312 heartbeat IPC: 1.84782 cumulative IPC: 1.79726 (Simulation time: 0 hr 26 min 21 sec) 
Heartbeat CPU 0 instructions: 34000000 cycles: 18902454 heartbeat IPC: 1.84794 cumulative IPC: 1.79871 (Simulation time: 0 hr 27 min 9 sec) 
Heartbeat CPU 0 instructions: 35000000 cycles: 19443597 heartbeat IPC: 1.84794 cumulative IPC: 1.80008 (Simulation time: 0 hr 27 min 59 sec) 
Heartbeat CPU 0 instructions: 36000000 cycles: 19984731 heartbeat IPC: 1.84797 cumulative IPC: 1.80138 (Simulation time: 0 hr 28 min 46 sec) 
Heartbeat CPU 0 instructions: 37000000 cycles: 20525943 heartbeat IPC: 1.8477 cumulative IPC: 1.8026 (Simulation time: 0 hr 29 min 33 sec) 
Heartbeat CPU 0 instructions: 38000001 cycles: 21067090 heartbeat IPC: 1.84793 cumulative IPC: 1.80376 (Simulation time: 0 hr 30 min 17 sec) 
Heartbeat CPU 0 instructions: 39000001 cycles: 21608246 heartbeat IPC: 1.8479 cumulative IPC: 1.80487 (Simulation time: 0 hr 31 min 5 sec) 
Heartbeat CPU 0 instructions: 40000000 cycles: 22149434 heartbeat IPC: 1.84778 cumulative IPC: 1.80592 (Simulation time: 0 hr 31 min 52 sec) 
Heartbeat CPU 0 instructions: 41000002 cycles: 22690599 heartbeat IPC: 1.84787 cumulative IPC: 1.80692 (Simulation time: 0 hr 32 min 36 sec) 
Heartbeat CPU 0 instructions: 42000001 cycles: 23231760 heartbeat IPC: 1.84788 cumulative IPC: 1.80787 (Simulation time: 0 hr 33 min 24 sec) 
Heartbeat CPU 0 instructions: 43000000 cycles: 23772903 heartbeat IPC: 1.84794 cumulative IPC: 1.80878 (Simulation time: 0 hr 34 min 7 sec) 
Heartbeat CPU 0 instructions: 44000000 cycles: 24314029 heartbeat IPC: 1.848 cumulative IPC: 1.80965 (Simulation time: 0 hr 34 min 48 sec) 
Heartbeat CPU 0 instructions: 45000001 cycles: 24855218 heartbeat IPC: 1.84779 cumulative IPC: 1.81049 (Simulation time: 0 hr 35 min 35 sec) 
Heartbeat CPU 0 instructions: 46000000 cycles: 25396381 heartbeat IPC: 1.84787 cumulative IPC: 1.81128 (Simulation time: 0 hr 36 min 21 sec) 
Heartbeat CPU 0 instructions: 47000002 cycles: 25937548 heartbeat IPC: 1.84786 cumulative IPC: 1.81204 (Simulation time: 0 hr 37 min 5 sec) 
Heartbeat CPU 0 instructions: 48000000 cycles: 26478712 heartbeat IPC: 1.84786 cumulative IPC: 1.81278 (Simulation time: 0 hr 37 min 52 sec) 
Heartbeat CPU 0 instructions: 49000002 cycles: 27019891 heartbeat IPC: 1.84782 cumulative IPC: 1.81348 (Simulation time: 0 hr 38 min 37 sec) 
Heartbeat CPU 0 instructions: 50000001 cycles: 27561034 heartbeat IPC: 1.84794 cumulative IPC: 1.81416 (Simulation time: 0 hr 39 min 22 sec) 

Warmup complete CPU 0 instructions: 50000001 cycles: 27561034 (Simulation time: 0 hr 39 min 22 sec) 

Heartbeat CPU 0 instructions: 51000002 cycles: 29221444 heartbeat IPC: 0.602261 cumulative IPC: 0.602261 (Simulation time: 0 hr 40 min 8 sec) 
Heartbeat CPU 0 instructions: 52000000 cycles: 31064055 heartbeat IPC: 0.542707 cumulative IPC: 0.570935 (Simulation time: 0 hr 40 min 58 sec) 
Heartbeat CPU 0 instructions: 53000001 cycles: 33043286 heartbeat IPC: 0.505247 cumulative IPC: 0.54722 (Simulation time: 0 hr 41 min 49 sec) 
Heartbeat CPU 0 instructions: 54000001 cycles: 35134611 heartbeat IPC: 0.478166 cumulative IPC: 0.528152 (Simulation time: 0 hr 42 min 44 sec) 
Heartbeat CPU 0 instructions: 55000002 cycles: 37433125 heartbeat IPC: 0.435064 cumulative IPC: 0.506478 (Simulation time: 0 hr 43 min 39 sec) 
Heartbeat CPU 0 instructions: 56000000 cycles: 39765063 heartbeat IPC: 0.428827 cumulative IPC: 0.491641 (Simulation time: 0 hr 44 min 38 sec) 
Heartbeat CPU 0 instructions: 57000002 cycles: 42123617 heartbeat IPC: 0.423989 cumulative IPC: 0.480684 (Simulation time: 0 hr 45 min 34 sec) 
Heartbeat CPU 0 instructions: 58000001 cycles: 44412977 heartbeat IPC: 0.436803 cumulative IPC: 0.474723 (Simulation time: 0 hr 46 min 32 sec) 
Heartbeat CPU 0 instructions: 59000001 cycles: 46214482 heartbeat IPC: 0.555091 cumulative IPC: 0.482485 (Simulation time: 0 hr 47 min 20 sec) 
Heartbeat CPU 0 instructions: 60000000 cycles: 47882894 heartbeat IPC: 0.599372 cumulative IPC: 0.492081 (Simulation time: 0 hr 48 min 5 sec) 
Heartbeat CPU 0 instructions: 61000000 cycles: 49548334 heartbeat IPC: 0.600442 cumulative IPC: 0.500289 (Simulation time: 0 hr 48 min 49 sec) 
Heartbeat CPU 0 instructions: 62000000 cycles: 51214223 heartbeat IPC: 0.60028 cumulative IPC: 0.507331 (Simulation time: 0 hr 49 min 37 sec) 
Heartbeat CPU 0 instructions: 63000003 cycles: 52881496 heartbeat IPC: 0.599784 cumulative IPC: 0.513419 (Simulation time: 0 hr 50 min 21 sec) 
Heartbeat CPU 0 instructions: 64000000 cycles: 54548134 heartbeat IPC: 0.600009 cumulative IPC: 0.518766 (Simulation time: 0 hr 51 min 9 sec) 
Heartbeat CPU 0 instructions: 65000002 cycles: 56218511 heartbeat IPC: 0.598668 cumulative IPC: 0.523424 (Simulation time: 0 hr 51 min 57 sec) 
Heartbeat CPU 0 instructions: 66000002 cycles: 57881879 heartbeat IPC: 0.60119 cumulative IPC: 0.52769 (Simulation time: 0 hr 52 min 46 sec) 
Heartbeat CPU 0 instructions: 67000001 cycles: 59548378 heartbeat IPC: 0.60006 cumulative IPC: 0.53146 (Simulation time: 0 hr 53 min 33 sec) 
Heartbeat CPU 0 instructions: 68000000 cycles: 61216874 heartbeat IPC: 0.599342 cumulative IPC: 0.534825 (Simulation time: 0 hr 54 min 24 sec) 
Heartbeat CPU 0 instructions: 69000000 cycles: 62888346 heartbeat IPC: 0.598275 cumulative IPC: 0.537827 (Simulation time: 0 hr 55 min 14 sec) 
Heartbeat CPU 0 instructions: 70000000 cycles: 64555035 heartbeat IPC: 0.599992 cumulative IPC: 0.540628 (Simulation time: 0 hr 56 min 2 sec) 
Heartbeat CPU 0 instructions: 71000002 cycles: 66223624 heartbeat IPC: 0.59931 cumulative IPC: 0.543161 (Simulation time: 0 hr 56 min 51 sec) 
Heartbeat CPU 0 instructions: 72000000 cycles: 67892152 heartbeat IPC: 0.599329 cumulative IPC: 0.545484 (Simulation time: 0 hr 57 min 38 sec) 
Heartbeat CPU 0 instructions: 73000003 cycles: 69557336 heartbeat IPC: 0.600536 cumulative IPC: 0.547667 (Simulation time: 0 hr 58 min 23 sec) 
Heartbeat CPU 0 instructions: 74000002 cycles: 71231910 heartbeat IPC: 0.597166 cumulative IPC: 0.549565 (Simulation time: 0 hr 59 min 8 sec) 
Heartbeat CPU 0 instructions: 75000003 cycles: 72896057 heartbeat IPC: 0.600909 cumulative IPC: 0.55145 (Simulation time: 0 hr 59 min 55 sec) 
Heartbeat CPU 0 instructions: 76000000 cycles: 74566929 heartbeat IPC: 0.598488 cumulative IPC: 0.553122 (Simulation time: 1 hr 0 min 46 sec) 
Heartbeat CPU 0 instructions: 77000003 cycles: 76236445 heartbeat IPC: 0.598978 cumulative IPC: 0.554695 (Simulation time: 1 hr 1 min 31 sec) 
Heartbeat CPU 0 instructions: 78000000 cycles: 77903671 heartbeat IPC: 0.599797 cumulative IPC: 0.556189 (Simulation time: 1 hr 2 min 17 sec) 
Heartbeat CPU 0 instructions: 79000000 cycles: 79569618 heartbeat IPC: 0.600259 cumulative IPC: 0.5576 (Simulation time: 1 hr 3 min 3 sec) 
Heartbeat CPU 0 instructions: 80000000 cycles: 81235131 heartbeat IPC: 0.600416 cumulative IPC: 0.558929 (Simulation time: 1 hr 3 min 51 sec) 
Heartbeat CPU 0 instructions: 81000000 cycles: 82900662 heartbeat IPC: 0.600409 cumulative IPC: 0.560177 (Simulation time: 1 hr 4 min 36 sec) 
Heartbeat CPU 0 instructions: 82000002 cycles: 84560915 heartbeat IPC: 0.602319 cumulative IPC: 0.561405 (Simulation time: 1 hr 5 min 22 sec) 
Heartbeat CPU 0 instructions: 83000003 cycles: 86218334 heartbeat IPC: 0.603348 cumulative IPC: 0.56259 (Simulation time: 1 hr 6 min 10 sec) 
Heartbeat CPU 0 instructions: 84000000 cycles: 87875677 heartbeat IPC: 0.603374 cumulative IPC: 0.563711 (Simulation time: 1 hr 6 min 57 sec) 
Heartbeat CPU 0 instructions: 85000001 cycles: 89538303 heartbeat IPC: 0.601459 cumulative IPC: 0.564723 (Simulation time: 1 hr 7 min 45 sec) 
Heartbeat CPU 0 instructions: 86000002 cycles: 91199646 heartbeat IPC: 0.601923 cumulative IPC: 0.565694 (Simulation time: 1 hr 8 min 33 sec) 
Heartbeat CPU 0 instructions: 87000003 cycles: 92861815 heartbeat IPC: 0.601624 cumulative IPC: 0.566609 (Simulation time: 1 hr 9 min 19 sec) 
Heartbeat CPU 0 instructions: 88000000 cycles: 94529099 heartbeat IPC: 0.599776 cumulative IPC: 0.567435 (Simulation time: 1 hr 10 min 7 sec) 
Heartbeat CPU 0 instructions: 89000001 cycles: 96191084 heartbeat IPC: 0.601691 cumulative IPC: 0.568264 (Simulation time: 1 hr 10 min 54 sec) 
Heartbeat CPU 0 instructions: 90000002 cycles: 97850241 heartbeat IPC: 0.602716 cumulative IPC: 0.569077 (Simulation time: 1 hr 11 min 41 sec) 
Heartbeat CPU 0 instructions: 91000000 cycles: 99504453 heartbeat IPC: 0.604516 cumulative IPC: 0.569892 (Simulation time: 1 hr 12 min 26 sec) 
Heartbeat CPU 0 instructions: 92000000 cycles: 101157670 heartbeat IPC: 0.604881 cumulative IPC: 0.570678 (Simulation time: 1 hr 13 min 12 sec) 
Heartbeat CPU 0 instructions: 93000003 cycles: 102816265 heartbeat IPC: 0.602922 cumulative IPC: 0.571389 (Simulation time: 1 hr 14 min 4 sec) 
Heartbeat CPU 0 instructions: 94000002 cycles: 104470645 heartbeat IPC: 0.604455 cumulative IPC: 0.5721 (Simulation time: 1 hr 15 min 1 sec) 
Heartbeat CPU 0 instructions: 95000003 cycles: 106123660 heartbeat IPC: 0.604956 cumulative IPC: 0.572791 (Simulation time: 1 hr 15 min 56 sec) 
Heartbeat CPU 0 instructions: 96000000 cycles: 107777619 heartbeat IPC: 0.604608 cumulative IPC: 0.573447 (Simulation time: 1 hr 16 min 55 sec) 
Heartbeat CPU 0 instructions: 97000001 cycles: 109430277 heartbeat IPC: 0.605086 cumulative IPC: 0.574086 (Simulation time: 1 hr 17 min 54 sec) 
Heartbeat CPU 0 instructions: 98000002 cycles: 111080423 heartbeat IPC: 0.606008 cumulative IPC: 0.574717 (Simulation time: 1 hr 18 min 49 sec) 
Heartbeat CPU 0 instructions: 99000003 cycles: 112732334 heartbeat IPC: 0.60536 cumulative IPC: 0.575311 (Simulation time: 1 hr 19 min 42 sec) 
Heartbeat CPU 0 instructions: 100000000 cycles: 114382513 heartbeat IPC: 0.605993 cumulative IPC: 0.575894 (Simulation time: 1 hr 20 min 32 sec) 
Heartbeat CPU 0 instructions: 101000001 cycles: 116029902 heartbeat IPC: 0.607022 cumulative IPC: 0.576474 (Simulation time: 1 hr 21 min 22 sec) 
Heartbeat CPU 0 instructions: 102000002 cycles: 117678891 heartbeat IPC: 0.606433 cumulative IPC: 0.577022 (Simulation time: 1 hr 22 min 16 sec) 
Heartbeat CPU 0 instructions: 103000000 cycles: 119330157 heartbeat IPC: 0.605595 cumulative IPC: 0.577536 (Simulation time: 1 hr 23 min 7 sec) 
Heartbeat CPU 0 instructions: 104000000 cycles: 120978664 heartbeat IPC: 0.60661 cumulative IPC: 0.578049 (Simulation time: 1 hr 23 min 57 sec) 
Heartbeat CPU 0 instructions: 105000003 cycles: 122961816 heartbeat IPC: 0.504249 cumulative IPC: 0.576515 (Simulation time: 1 hr 24 min 52 sec) 
Heartbeat CPU 0 instructions: 106000003 cycles: 126822017 heartbeat IPC: 0.259054 cumulative IPC: 0.564169 (Simulation time: 1 hr 26 min 5 sec) 
Heartbeat CPU 0 instructions: 107000000 cycles: 128582091 heartbeat IPC: 0.568156 cumulative IPC: 0.564239 (Simulation time: 1 hr 26 min 44 sec) 
Heartbeat CPU 0 instructions: 108000000 cycles: 130313329 heartbeat IPC: 0.577621 cumulative IPC: 0.564464 (Simulation time: 1 hr 27 min 24 sec) 
Heartbeat CPU 0 instructions: 109000001 cycles: 132035944 heartbeat IPC: 0.580513 cumulative IPC: 0.564729 (Simulation time: 1 hr 28 min 3 sec) 
Heartbeat CPU 0 instructions: 110000001 cycles: 133757297 heartbeat IPC: 0.580938 cumulative IPC: 0.564992 (Simulation time: 1 hr 28 min 42 sec) 
Heartbeat CPU 0 instructions: 111000000 cycles: 135487205 heartbeat IPC: 0.578065 cumulative IPC: 0.565201 (Simulation time: 1 hr 29 min 22 sec) 
Heartbeat CPU 0 instructions: 112000000 cycles: 137252468 heartbeat IPC: 0.566488 cumulative IPC: 0.565222 (Simulation time: 1 hr 30 min 0 sec) 
Heartbeat CPU 0 instructions: 113000003 cycles: 139027812 heartbeat IPC: 0.563273 cumulative IPC: 0.565191 (Simulation time: 1 hr 30 min 42 sec) 
Heartbeat CPU 0 instructions: 114000003 cycles: 140800519 heartbeat IPC: 0.564109 cumulative IPC: 0.565174 (Simulation time: 1 hr 31 min 24 sec) 
Heartbeat CPU 0 instructions: 115000001 cycles: 142569484 heartbeat IPC: 0.565301 cumulative IPC: 0.565176 (Simulation time: 1 hr 32 min 9 sec) 
Heartbeat CPU 0 instructions: 116000000 cycles: 144343551 heartbeat IPC: 0.563676 cumulative IPC: 0.565153 (Simulation time: 1 hr 32 min 51 sec) 
Heartbeat CPU 0 instructions: 117000001 cycles: 146119079 heartbeat IPC: 0.563213 cumulative IPC: 0.565124 (Simulation time: 1 hr 33 min 35 sec) 
Heartbeat CPU 0 instructions: 118000003 cycles: 147892774 heartbeat IPC: 0.563796 cumulative IPC: 0.565104 (Simulation time: 1 hr 34 min 17 sec) 
Heartbeat CPU 0 instructions: 119000001 cycles: 149664301 heartbeat IPC: 0.564484 cumulative IPC: 0.565095 (Simulation time: 1 hr 34 min 56 sec) 
Heartbeat CPU 0 instructions: 120000000 cycles: 151433931 heartbeat IPC: 0.565089 cumulative IPC: 0.565095 (Simulation time: 1 hr 35 min 36 sec) 
Heartbeat CPU 0 instructions: 121000003 cycles: 153203850 heartbeat IPC: 0.564999 cumulative IPC: 0.565094 (Simulation time: 1 hr 36 min 13 sec) 
Heartbeat CPU 0 instructions: 122000001 cycles: 154978364 heartbeat IPC: 0.563533 cumulative IPC: 0.565072 (Simulation time: 1 hr 36 min 52 sec) 
Heartbeat CPU 0 instructions: 123000003 cycles: 156753393 heartbeat IPC: 0.563372 cumulative IPC: 0.565049 (Simulation time: 1 hr 37 min 32 sec) 
Heartbeat CPU 0 instructions: 124000000 cycles: 158524647 heartbeat IPC: 0.56457 cumulative IPC: 0.565042 (Simulation time: 1 hr 38 min 8 sec) 
Heartbeat CPU 0 instructions: 125000003 cycles: 160295779 heartbeat IPC: 0.564612 cumulative IPC: 0.565037 (Simulation time: 1 hr 38 min 44 sec) 
Heartbeat CPU 0 instructions: 126000000 cycles: 162072193 heartbeat IPC: 0.56293 cumulative IPC: 0.565009 (Simulation time: 1 hr 39 min 17 sec) 
Heartbeat CPU 0 instructions: 127000001 cycles: 163850570 heartbeat IPC: 0.562311 cumulative IPC: 0.564974 (Simulation time: 1 hr 39 min 47 sec) 
Heartbeat CPU 0 instructions: 128000000 cycles: 165623349 heartbeat IPC: 0.564086 cumulative IPC: 0.564962 (Simulation time: 1 hr 40 min 16 sec) 
Heartbeat CPU 0 instructions: 129000001 cycles: 167399429 heartbeat IPC: 0.563038 cumulative IPC: 0.564938 (Simulation time: 1 hr 40 min 42 sec) 
Heartbeat CPU 0 instructions: 130000000 cycles: 169180188 heartbeat IPC: 0.561558 cumulative IPC: 0.564895 (Simulation time: 1 hr 41 min 12 sec) 
Heartbeat CPU 0 instructions: 131000001 cycles: 170952989 heartbeat IPC: 0.56408 cumulative IPC: 0.564885 (Simulation time: 1 hr 41 min 41 sec) 
Heartbeat CPU 0 instructions: 132000000 cycles: 172726929 heartbeat IPC: 0.563716 cumulative IPC: 0.564871 (Simulation time: 1 hr 42 min 9 sec) 
Heartbeat CPU 0 instructions: 133000003 cycles: 174510020 heartbeat IPC: 0.560826 cumulative IPC: 0.564822 (Simulation time: 1 hr 42 min 35 sec) 
Heartbeat CPU 0 instructions: 134000001 cycles: 176285022 heartbeat IPC: 0.563379 cumulative IPC: 0.564805 (Simulation time: 1 hr 43 min 0 sec) 
Heartbeat CPU 0 instructions: 135000003 cycles: 178060311 heartbeat IPC: 0.56329 cumulative IPC: 0.564787 (Simulation time: 1 hr 43 min 26 sec) 
Heartbeat CPU 0 instructions: 136000000 cycles: 179828505 heartbeat IPC: 0.565547 cumulative IPC: 0.564796 (Simulation time: 1 hr 43 min 51 sec) 
Heartbeat CPU 0 instructions: 137000001 cycles: 181033493 heartbeat IPC: 0.829885 cumulative IPC: 0.566877 (Simulation time: 1 hr 44 min 18 sec) 
Heartbeat CPU 0 instructions: 138000000 cycles: 182720765 heartbeat IPC: 0.592672 cumulative IPC: 0.567157 (Simulation time: 1 hr 44 min 46 sec) 
Heartbeat CPU 0 instructions: 139000002 cycles: 185752465 heartbeat IPC: 0.329849 cumulative IPC: 0.562609 (Simulation time: 1 hr 45 min 21 sec) 
Heartbeat CPU 0 instructions: 140000000 cycles: 188852991 heartbeat IPC: 0.322525 cumulative IPC: 0.557994 (Simulation time: 1 hr 45 min 55 sec) 
Heartbeat CPU 0 instructions: 141000003 cycles: 192436751 heartbeat IPC: 0.279037 cumulative IPC: 0.551931 (Simulation time: 1 hr 46 min 25 sec) 
Heartbeat CPU 0 instructions: 142000003 cycles: 195016913 heartbeat IPC: 0.387573 cumulative IPC: 0.549398 (Simulation time: 1 hr 46 min 48 sec) 
Heartbeat CPU 0 instructions: 143000001 cycles: 196830733 heartbeat IPC: 0.551322 cumulative IPC: 0.549419 (Simulation time: 1 hr 47 min 5 sec) 
Heartbeat CPU 0 instructions: 144000000 cycles: 198636867 heartbeat IPC: 0.553668 cumulative IPC: 0.549464 (Simulation time: 1 hr 47 min 20 sec) 
Heartbeat CPU 0 instructions: 145000001 cycles: 200434954 heartbeat IPC: 0.556147 cumulative IPC: 0.549533 (Simulation time: 1 hr 47 min 33 sec) 
Heartbeat CPU 0 instructions: 146000003 cycles: 202220650 heartbeat IPC: 0.560007 cumulative IPC: 0.549641 (Simulation time: 1 hr 47 min 46 sec) 
Heartbeat CPU 0 instructions: 147000003 cycles: 204011786 heartbeat IPC: 0.558305 cumulative IPC: 0.549728 (Simulation time: 1 hr 47 min 57 sec) 
Heartbeat CPU 0 instructions: 148000000 cycles: 205817625 heartbeat IPC: 0.553758 cumulative IPC: 0.549769 (Simulation time: 1 hr 48 min 7 sec) 
Heartbeat CPU 0 instructions: 149000003 cycles: 207625047 heartbeat IPC: 0.553276 cumulative IPC: 0.549805 (Simulation time: 1 hr 48 min 17 sec) 
Heartbeat CPU 0 instructions: 150000003 cycles: 209430744 heartbeat IPC: 0.553803 cumulative IPC: 0.549844 (Simulation time: 1 hr 48 min 25 sec) 
Finished CPU 0 instructions: 100000002 cycles: 181869710 cummulative IPC: 0.549844 (Simulation time: 1 hr 48 min 25 sec) 

ChampSim completed all CPUs

Region of Interest Statistics

CPU 0 cummulative IPC: 0.549844 instructions: 100000002 cycles: 181869710
LLC TOTAL     ACCESS:    3966038  HIT:     313537  MISS:    3652501
LLC LOAD      ACCESS:    1061772  HIT:      13377  MISS:    1048395
LLC RFO       ACCESS:     534380  HIT:      45064  MISS:     489316
LLC PREFETCH  ACCESS:    1387145  HIT:      43148  MISS:    1343997
LLC WRITEBACK ACCESS:     982741  HIT:     211948  MISS:     770793
OPTgen accesses: 18180
OPTgen hits: 950
OPTgen hit rate: 5.22552


