
*** ChampSim Multicore Out-of-Order Simulator ***

Warmup Instructions: 50000000
Simulation Instructions: 100000000
Configuration: 2
Number of CPUs: 1
LLC sets: 2048
LLC ways: 16
Off-chip DRAM Channels: 1 Width: 64-bit Data Rate: 1600 MT/s

CPU 0 runs /datasets/cs240c-wi22-a00-public/data/Assignment2-gz/perlbench_53B.trace.gz
CPU 0 L1D next line prefetcher
CPU 0 L2C IP-based stride prefetcher
Initialize Hawkeye state
Heartbeat CPU 0 instructions: 1000000 cycles: 615801 heartbeat IPC: 1.6239 cumulative IPC: 1.6239 (Simulation time: 0 hr 0 min 45 sec) 
Heartbeat CPU 0 instructions: 2000001 cycles: 1252973 heartbeat IPC: 1.56944 cumulative IPC: 1.5962 (Simulation time: 0 hr 1 min 30 sec) 
Heartbeat CPU 0 instructions: 3000002 cycles: 1908460 heartbeat IPC: 1.52558 cumulative IPC: 1.57195 (Simulation time: 0 hr 2 min 11 sec) 
Heartbeat CPU 0 instructions: 4000000 cycles: 2523963 heartbeat IPC: 1.62468 cumulative IPC: 1.58481 (Simulation time: 0 hr 2 min 54 sec) 
Heartbeat CPU 0 instructions: 5000001 cycles: 3151965 heartbeat IPC: 1.59235 cumulative IPC: 1.58631 (Simulation time: 0 hr 3 min 35 sec) 
Heartbeat CPU 0 instructions: 6000001 cycles: 3767465 heartbeat IPC: 1.6247 cumulative IPC: 1.59258 (Simulation time: 0 hr 4 min 16 sec) 
Heartbeat CPU 0 instructions: 7000002 cycles: 4390335 heartbeat IPC: 1.60547 cumulative IPC: 1.59441 (Simulation time: 0 hr 5 min 0 sec) 
Heartbeat CPU 0 instructions: 8000000 cycles: 5000735 heartbeat IPC: 1.63827 cumulative IPC: 1.59976 (Simulation time: 0 hr 5 min 40 sec) 
Heartbeat CPU 0 instructions: 9000000 cycles: 5652462 heartbeat IPC: 1.53438 cumulative IPC: 1.59223 (Simulation time: 0 hr 6 min 22 sec) 
Heartbeat CPU 0 instructions: 10000001 cycles: 6287753 heartbeat IPC: 1.57408 cumulative IPC: 1.59039 (Simulation time: 0 hr 7 min 3 sec) 
Heartbeat CPU 0 instructions: 11000000 cycles: 6904527 heartbeat IPC: 1.62134 cumulative IPC: 1.59316 (Simulation time: 0 hr 7 min 38 sec) 
Heartbeat CPU 0 instructions: 12000000 cycles: 7561742 heartbeat IPC: 1.52157 cumulative IPC: 1.58694 (Simulation time: 0 hr 8 min 22 sec) 
Heartbeat CPU 0 instructions: 13000000 cycles: 8151502 heartbeat IPC: 1.69561 cumulative IPC: 1.5948 (Simulation time: 0 hr 9 min 3 sec) 
Heartbeat CPU 0 instructions: 14000000 cycles: 8768421 heartbeat IPC: 1.62096 cumulative IPC: 1.59664 (Simulation time: 0 hr 9 min 45 sec) 
Heartbeat CPU 0 instructions: 15000001 cycles: 9380519 heartbeat IPC: 1.63373 cumulative IPC: 1.59906 (Simulation time: 0 hr 10 min 27 sec) 
Heartbeat CPU 0 instructions: 16000000 cycles: 9994637 heartbeat IPC: 1.62835 cumulative IPC: 1.60086 (Simulation time: 0 hr 11 min 14 sec) 
Heartbeat CPU 0 instructions: 17000002 cycles: 10626835 heartbeat IPC: 1.58179 cumulative IPC: 1.59972 (Simulation time: 0 hr 11 min 58 sec) 
Heartbeat CPU 0 instructions: 18000002 cycles: 11287262 heartbeat IPC: 1.51417 cumulative IPC: 1.59472 (Simulation time: 0 hr 12 min 41 sec) 
Heartbeat CPU 0 instructions: 19000001 cycles: 11894350 heartbeat IPC: 1.64721 cumulative IPC: 1.5974 (Simulation time: 0 hr 13 min 22 sec) 
Heartbeat CPU 0 instructions: 20000000 cycles: 12569799 heartbeat IPC: 1.4805 cumulative IPC: 1.59112 (Simulation time: 0 hr 14 min 7 sec) 
Heartbeat CPU 0 instructions: 21000000 cycles: 13182305 heartbeat IPC: 1.63264 cumulative IPC: 1.59304 (Simulation time: 0 hr 14 min 47 sec) 
Heartbeat CPU 0 instructions: 22000000 cycles: 13738033 heartbeat IPC: 1.79944 cumulative IPC: 1.60139 (Simulation time: 0 hr 15 min 22 sec) 
Heartbeat CPU 0 instructions: 23000001 cycles: 14277113 heartbeat IPC: 1.85501 cumulative IPC: 1.61097 (Simulation time: 0 hr 15 min 58 sec) 
Heartbeat CPU 0 instructions: 24000000 cycles: 14899974 heartbeat IPC: 1.60549 cumulative IPC: 1.61074 (Simulation time: 0 hr 16 min 40 sec) 
Heartbeat CPU 0 instructions: 25000000 cycles: 15452284 heartbeat IPC: 1.81058 cumulative IPC: 1.61788 (Simulation time: 0 hr 17 min 21 sec) 
Heartbeat CPU 0 instructions: 26000001 cycles: 16005884 heartbeat IPC: 1.80636 cumulative IPC: 1.6244 (Simulation time: 0 hr 18 min 1 sec) 
Heartbeat CPU 0 instructions: 27000001 cycles: 16597980 heartbeat IPC: 1.68892 cumulative IPC: 1.6267 (Simulation time: 0 hr 18 min 43 sec) 
Heartbeat CPU 0 instructions: 28000000 cycles: 17240730 heartbeat IPC: 1.55581 cumulative IPC: 1.62406 (Simulation time: 0 hr 19 min 25 sec) 
Heartbeat CPU 0 instructions: 29000000 cycles: 17852036 heartbeat IPC: 1.63584 cumulative IPC: 1.62446 (Simulation time: 0 hr 20 min 7 sec) 
Heartbeat CPU 0 instructions: 30000000 cycles: 18407020 heartbeat IPC: 1.80185 cumulative IPC: 1.62981 (Simulation time: 0 hr 20 min 48 sec) 
Heartbeat CPU 0 instructions: 31000001 cycles: 18958340 heartbeat IPC: 1.81383 cumulative IPC: 1.63516 (Simulation time: 0 hr 21 min 29 sec) 
Heartbeat CPU 0 instructions: 32000000 cycles: 19515060 heartbeat IPC: 1.79623 cumulative IPC: 1.63976 (Simulation time: 0 hr 22 min 11 sec) 
Heartbeat CPU 0 instructions: 33000003 cycles: 20104475 heartbeat IPC: 1.6966 cumulative IPC: 1.64143 (Simulation time: 0 hr 22 min 55 sec) 
Heartbeat CPU 0 instructions: 34000001 cycles: 20713060 heartbeat IPC: 1.64315 cumulative IPC: 1.64148 (Simulation time: 0 hr 23 min 39 sec) 
Heartbeat CPU 0 instructions: 35000001 cycles: 21324423 heartbeat IPC: 1.63569 cumulative IPC: 1.64131 (Simulation time: 0 hr 24 min 21 sec) 
Heartbeat CPU 0 instructions: 36000000 cycles: 21979648 heartbeat IPC: 1.52619 cumulative IPC: 1.63788 (Simulation time: 0 hr 25 min 9 sec) 
Heartbeat CPU 0 instructions: 37000002 cycles: 22613378 heartbeat IPC: 1.57796 cumulative IPC: 1.6362 (Simulation time: 0 hr 25 min 52 sec) 
Heartbeat CPU 0 instructions: 38000000 cycles: 23233425 heartbeat IPC: 1.61278 cumulative IPC: 1.63557 (Simulation time: 0 hr 26 min 33 sec) 
Heartbeat CPU 0 instructions: 39000001 cycles: 23863525 heartbeat IPC: 1.58705 cumulative IPC: 1.63429 (Simulation time: 0 hr 27 min 19 sec) 
Heartbeat CPU 0 instructions: 40000000 cycles: 24486689 heartbeat IPC: 1.60471 cumulative IPC: 1.63354 (Simulation time: 0 hr 28 min 1 sec) 
Heartbeat CPU 0 instructions: 41000002 cycles: 25110649 heartbeat IPC: 1.60267 cumulative IPC: 1.63277 (Simulation time: 0 hr 28 min 48 sec) 
Heartbeat CPU 0 instructions: 42000000 cycles: 25724440 heartbeat IPC: 1.62922 cumulative IPC: 1.63269 (Simulation time: 0 hr 29 min 34 sec) 
Heartbeat CPU 0 instructions: 43000002 cycles: 26364286 heartbeat IPC: 1.56288 cumulative IPC: 1.63099 (Simulation time: 0 hr 30 min 18 sec) 
Heartbeat CPU 0 instructions: 44000000 cycles: 27024773 heartbeat IPC: 1.51403 cumulative IPC: 1.62814 (Simulation time: 0 hr 31 min 4 sec) 
Heartbeat CPU 0 instructions: 45000001 cycles: 27483304 heartbeat IPC: 2.18088 cumulative IPC: 1.63736 (Simulation time: 0 hr 31 min 34 sec) 
Heartbeat CPU 0 instructions: 46000000 cycles: 28033968 heartbeat IPC: 1.81599 cumulative IPC: 1.64087 (Simulation time: 0 hr 32 min 14 sec) 
Heartbeat CPU 0 instructions: 47000002 cycles: 28571821 heartbeat IPC: 1.85925 cumulative IPC: 1.64498 (Simulation time: 0 hr 32 min 53 sec) 
Heartbeat CPU 0 instructions: 48000000 cycles: 29109652 heartbeat IPC: 1.85932 cumulative IPC: 1.64894 (Simulation time: 0 hr 33 min 32 sec) 
Heartbeat CPU 0 instructions: 49000000 cycles: 29710461 heartbeat IPC: 1.66442 cumulative IPC: 1.64925 (Simulation time: 0 hr 34 min 14 sec) 
Heartbeat CPU 0 instructions: 50000002 cycles: 30241767 heartbeat IPC: 1.88216 cumulative IPC: 1.65334 (Simulation time: 0 hr 34 min 51 sec) 

Warmup complete CPU 0 instructions: 50000002 cycles: 30241767 (Simulation time: 0 hr 34 min 51 sec) 

Heartbeat CPU 0 instructions: 51000000 cycles: 32172192 heartbeat IPC: 0.51802 cumulative IPC: 0.51802 (Simulation time: 0 hr 35 min 34 sec) 
Heartbeat CPU 0 instructions: 52000000 cycles: 34087197 heartbeat IPC: 0.522192 cumulative IPC: 0.520097 (Simulation time: 0 hr 36 min 20 sec) 
Heartbeat CPU 0 instructions: 53000002 cycles: 36038207 heartbeat IPC: 0.512556 cumulative IPC: 0.517559 (Simulation time: 0 hr 37 min 17 sec) 
Heartbeat CPU 0 instructions: 54000000 cycles: 38969185 heartbeat IPC: 0.341182 cumulative IPC: 0.458325 (Simulation time: 0 hr 38 min 27 sec) 
Heartbeat CPU 0 instructions: 55000000 cycles: 41469853 heartbeat IPC: 0.399893 cumulative IPC: 0.445312 (Simulation time: 0 hr 39 min 37 sec) 
Heartbeat CPU 0 instructions: 56000000 cycles: 44285929 heartbeat IPC: 0.355104 cumulative IPC: 0.427224 (Simulation time: 0 hr 40 min 42 sec) 
Heartbeat CPU 0 instructions: 57000001 cycles: 47336402 heartbeat IPC: 0.327818 cumulative IPC: 0.409485 (Simulation time: 0 hr 41 min 54 sec) 
Heartbeat CPU 0 instructions: 58000003 cycles: 50309665 heartbeat IPC: 0.336331 cumulative IPC: 0.398647 (Simulation time: 0 hr 43 min 15 sec) 
Heartbeat CPU 0 instructions: 59000002 cycles: 53132037 heartbeat IPC: 0.354312 cumulative IPC: 0.39318 (Simulation time: 0 hr 44 min 18 sec) 
Heartbeat CPU 0 instructions: 60000000 cycles: 55895080 heartbeat IPC: 0.361919 cumulative IPC: 0.389813 (Simulation time: 0 hr 45 min 24 sec) 
Heartbeat CPU 0 instructions: 61000002 cycles: 58523492 heartbeat IPC: 0.380459 cumulative IPC: 0.388944 (Simulation time: 0 hr 46 min 28 sec) 
Heartbeat CPU 0 instructions: 62000002 cycles: 61201151 heartbeat IPC: 0.373461 cumulative IPC: 0.387605 (Simulation time: 0 hr 47 min 34 sec) 
Heartbeat CPU 0 instructions: 63000001 cycles: 63867417 heartbeat IPC: 0.375056 cumulative IPC: 0.38661 (Simulation time: 0 hr 48 min 44 sec) 
Heartbeat CPU 0 instructions: 64000000 cycles: 66523371 heartbeat IPC: 0.376512 cumulative IPC: 0.38587 (Simulation time: 0 hr 49 min 53 sec) 
Heartbeat CPU 0 instructions: 65000003 cycles: 69161122 heartbeat IPC: 0.379112 cumulative IPC: 0.385412 (Simulation time: 0 hr 50 min 57 sec) 
Heartbeat CPU 0 instructions: 66000001 cycles: 71789288 heartbeat IPC: 0.380493 cumulative IPC: 0.385101 (Simulation time: 0 hr 52 min 3 sec) 
Heartbeat CPU 0 instructions: 67000001 cycles: 74402437 heartbeat IPC: 0.38268 cumulative IPC: 0.384958 (Simulation time: 0 hr 53 min 9 sec) 
Heartbeat CPU 0 instructions: 68000000 cycles: 77068835 heartbeat IPC: 0.375037 cumulative IPC: 0.384393 (Simulation time: 0 hr 54 min 13 sec) 
Heartbeat CPU 0 instructions: 69000001 cycles: 79705458 heartbeat IPC: 0.379273 cumulative IPC: 0.38412 (Simulation time: 0 hr 55 min 20 sec) 
Heartbeat CPU 0 instructions: 70000001 cycles: 82315657 heartbeat IPC: 0.383113 cumulative IPC: 0.38407 (Simulation time: 0 hr 56 min 20 sec) 
Heartbeat CPU 0 instructions: 71000001 cycles: 85032211 heartbeat IPC: 0.368113 cumulative IPC: 0.383278 (Simulation time: 0 hr 57 min 21 sec) 
Heartbeat CPU 0 instructions: 72000000 cycles: 87650702 heartbeat IPC: 0.381899 cumulative IPC: 0.383216 (Simulation time: 0 hr 58 min 18 sec) 
Heartbeat CPU 0 instructions: 73000002 cycles: 90283798 heartbeat IPC: 0.379782 cumulative IPC: 0.383065 (Simulation time: 0 hr 59 min 11 sec) 
Heartbeat CPU 0 instructions: 74000001 cycles: 92960458 heartbeat IPC: 0.3736 cumulative IPC: 0.382661 (Simulation time: 1 hr 0 min 4 sec) 
Heartbeat CPU 0 instructions: 75000001 cycles: 95617769 heartbeat IPC: 0.37632 cumulative IPC: 0.382403 (Simulation time: 1 hr 0 min 53 sec) 
Heartbeat CPU 0 instructions: 76000000 cycles: 98258334 heartbeat IPC: 0.378706 cumulative IPC: 0.38226 (Simulation time: 1 hr 1 min 44 sec) 
Heartbeat CPU 0 instructions: 77000002 cycles: 100930755 heartbeat IPC: 0.374193 cumulative IPC: 0.381955 (Simulation time: 1 hr 2 min 35 sec) 
Heartbeat CPU 0 instructions: 78000000 cycles: 103584232 heartbeat IPC: 0.376863 cumulative IPC: 0.381771 (Simulation time: 1 hr 3 min 24 sec) 
Heartbeat CPU 0 instructions: 79000002 cycles: 106245342 heartbeat IPC: 0.375784 cumulative IPC: 0.381561 (Simulation time: 1 hr 4 min 13 sec) 
Heartbeat CPU 0 instructions: 80000000 cycles: 108880070 heartbeat IPC: 0.379545 cumulative IPC: 0.381493 (Simulation time: 1 hr 5 min 3 sec) 
Heartbeat CPU 0 instructions: 81000000 cycles: 111494416 heartbeat IPC: 0.382505 cumulative IPC: 0.381526 (Simulation time: 1 hr 5 min 54 sec) 
Heartbeat CPU 0 instructions: 82000002 cycles: 114171040 heartbeat IPC: 0.373606 cumulative IPC: 0.381273 (Simulation time: 1 hr 6 min 48 sec) 
Heartbeat CPU 0 instructions: 83000000 cycles: 116816499 heartbeat IPC: 0.378005 cumulative IPC: 0.381174 (Simulation time: 1 hr 7 min 37 sec) 
Heartbeat CPU 0 instructions: 84000000 cycles: 119472087 heartbeat IPC: 0.376564 cumulative IPC: 0.381036 (Simulation time: 1 hr 8 min 25 sec) 
Heartbeat CPU 0 instructions: 85000001 cycles: 122147942 heartbeat IPC: 0.373713 cumulative IPC: 0.380823 (Simulation time: 1 hr 9 min 18 sec) 
Heartbeat CPU 0 instructions: 86000000 cycles: 124642187 heartbeat IPC: 0.400923 cumulative IPC: 0.381354 (Simulation time: 1 hr 10 min 11 sec) 
Heartbeat CPU 0 instructions: 87000000 cycles: 126794858 heartbeat IPC: 0.464539 cumulative IPC: 0.383209 (Simulation time: 1 hr 10 min 54 sec) 
Heartbeat CPU 0 instructions: 88000000 cycles: 128792039 heartbeat IPC: 0.500706 cumulative IPC: 0.38559 (Simulation time: 1 hr 11 min 37 sec) 
Heartbeat CPU 0 instructions: 89000001 cycles: 130879380 heartbeat IPC: 0.479079 cumulative IPC: 0.387529 (Simulation time: 1 hr 12 min 21 sec) 
Heartbeat CPU 0 instructions: 90000000 cycles: 133592126 heartbeat IPC: 0.36863 cumulative IPC: 0.387033 (Simulation time: 1 hr 13 min 16 sec) 
Heartbeat CPU 0 instructions: 91000001 cycles: 136354272 heartbeat IPC: 0.362038 cumulative IPC: 0.386382 (Simulation time: 1 hr 14 min 12 sec) 
Heartbeat CPU 0 instructions: 92000000 cycles: 139035070 heartbeat IPC: 0.373023 cumulative IPC: 0.386053 (Simulation time: 1 hr 15 min 0 sec) 
Heartbeat CPU 0 instructions: 93000000 cycles: 141684096 heartbeat IPC: 0.377497 cumulative IPC: 0.38585 (Simulation time: 1 hr 15 min 50 sec) 
Heartbeat CPU 0 instructions: 94000002 cycles: 144331247 heartbeat IPC: 0.377765 cumulative IPC: 0.385662 (Simulation time: 1 hr 16 min 40 sec) 
Heartbeat CPU 0 instructions: 95000000 cycles: 146950463 heartbeat IPC: 0.381793 cumulative IPC: 0.385575 (Simulation time: 1 hr 17 min 30 sec) 
Heartbeat CPU 0 instructions: 96000000 cycles: 149614948 heartbeat IPC: 0.375307 cumulative IPC: 0.385346 (Simulation time: 1 hr 18 min 22 sec) 
Heartbeat CPU 0 instructions: 97000000 cycles: 152255223 heartbeat IPC: 0.378748 cumulative IPC: 0.385203 (Simulation time: 1 hr 19 min 17 sec) 
Heartbeat CPU 0 instructions: 98000000 cycles: 154877936 heartbeat IPC: 0.381285 cumulative IPC: 0.385121 (Simulation time: 1 hr 20 min 12 sec) 
Heartbeat CPU 0 instructions: 99000002 cycles: 157486961 heartbeat IPC: 0.383286 cumulative IPC: 0.385083 (Simulation time: 1 hr 21 min 11 sec) 
Heartbeat CPU 0 instructions: 100000000 cycles: 160113521 heartbeat IPC: 0.380725 cumulative IPC: 0.384995 (Simulation time: 1 hr 22 min 4 sec) 
Heartbeat CPU 0 instructions: 101000002 cycles: 162767840 heartbeat IPC: 0.376745 cumulative IPC: 0.38483 (Simulation time: 1 hr 22 min 57 sec) 
Heartbeat CPU 0 instructions: 102000000 cycles: 165398682 heartbeat IPC: 0.380106 cumulative IPC: 0.384738 (Simulation time: 1 hr 23 min 49 sec) 
Heartbeat CPU 0 instructions: 103000000 cycles: 168024254 heartbeat IPC: 0.380869 cumulative IPC: 0.384664 (Simulation time: 1 hr 24 min 40 sec) 
Heartbeat CPU 0 instructions: 104000000 cycles: 170686481 heartbeat IPC: 0.375625 cumulative IPC: 0.384493 (Simulation time: 1 hr 25 min 35 sec) 
Heartbeat CPU 0 instructions: 105000003 cycles: 172866823 heartbeat IPC: 0.458645 cumulative IPC: 0.385626 (Simulation time: 1 hr 26 min 19 sec) 
Heartbeat CPU 0 instructions: 106000000 cycles: 174843634 heartbeat IPC: 0.505864 cumulative IPC: 0.38727 (Simulation time: 1 hr 27 min 0 sec) 
Heartbeat CPU 0 instructions: 107000003 cycles: 176817956 heartbeat IPC: 0.506505 cumulative IPC: 0.388876 (Simulation time: 1 hr 27 min 43 sec) 
Heartbeat CPU 0 instructions: 108000000 cycles: 179631968 heartbeat IPC: 0.355363 cumulative IPC: 0.388245 (Simulation time: 1 hr 28 min 30 sec) 
Heartbeat CPU 0 instructions: 109000001 cycles: 182334734 heartbeat IPC: 0.369992 cumulative IPC: 0.387921 (Simulation time: 1 hr 29 min 16 sec) 
Heartbeat CPU 0 instructions: 110000000 cycles: 184875479 heartbeat IPC: 0.393585 cumulative IPC: 0.388014 (Simulation time: 1 hr 30 min 2 sec) 
Heartbeat CPU 0 instructions: 111000000 cycles: 187691393 heartbeat IPC: 0.355124 cumulative IPC: 0.387425 (Simulation time: 1 hr 30 min 49 sec) 
Heartbeat CPU 0 instructions: 112000000 cycles: 190699037 heartbeat IPC: 0.332486 cumulative IPC: 0.386396 (Simulation time: 1 hr 31 min 31 sec) 
Heartbeat CPU 0 instructions: 113000000 cycles: 193645220 heartbeat IPC: 0.339422 cumulative IPC: 0.385549 (Simulation time: 1 hr 32 min 13 sec) 
Heartbeat CPU 0 instructions: 114000000 cycles: 196291652 heartbeat IPC: 0.377867 cumulative IPC: 0.385426 (Simulation time: 1 hr 32 min 55 sec) 
Heartbeat CPU 0 instructions: 115000000 cycles: 199016156 heartbeat IPC: 0.367039 cumulative IPC: 0.38513 (Simulation time: 1 hr 33 min 36 sec) 
Heartbeat CPU 0 instructions: 116000000 cycles: 201720945 heartbeat IPC: 0.369715 cumulative IPC: 0.384886 (Simulation time: 1 hr 34 min 15 sec) 
Heartbeat CPU 0 instructions: 117000000 cycles: 204574046 heartbeat IPC: 0.350496 cumulative IPC: 0.384324 (Simulation time: 1 hr 34 min 52 sec) 
Heartbeat CPU 0 instructions: 118000003 cycles: 207127271 heartbeat IPC: 0.391663 cumulative IPC: 0.384429 (Simulation time: 1 hr 35 min 30 sec) 
Heartbeat CPU 0 instructions: 119000002 cycles: 208631564 heartbeat IPC: 0.664763 cumulative IPC: 0.386793 (Simulation time: 1 hr 35 min 59 sec) 
Heartbeat CPU 0 instructions: 120000000 cycles: 210667442 heartbeat IPC: 0.491188 cumulative IPC: 0.387971 (Simulation time: 1 hr 36 min 30 sec) 
Heartbeat CPU 0 instructions: 121000003 cycles: 212596584 heartbeat IPC: 0.518367 cumulative IPC: 0.389351 (Simulation time: 1 hr 37 min 1 sec) 
Heartbeat CPU 0 instructions: 122000000 cycles: 214524455 heartbeat IPC: 0.518705 cumulative IPC: 0.390704 (Simulation time: 1 hr 37 min 32 sec) 
Heartbeat CPU 0 instructions: 123000000 cycles: 216521916 heartbeat IPC: 0.500636 cumulative IPC: 0.391883 (Simulation time: 1 hr 38 min 1 sec) 
Heartbeat CPU 0 instructions: 124000000 cycles: 218912466 heartbeat IPC: 0.418314 cumulative IPC: 0.392218 (Simulation time: 1 hr 38 min 38 sec) 
Heartbeat CPU 0 instructions: 125000002 cycles: 220688451 heartbeat IPC: 0.563069 cumulative IPC: 0.393811 (Simulation time: 1 hr 39 min 5 sec) 
Heartbeat CPU 0 instructions: 126000001 cycles: 222616148 heartbeat IPC: 0.518753 cumulative IPC: 0.395063 (Simulation time: 1 hr 39 min 32 sec) 
Heartbeat CPU 0 instructions: 127000001 cycles: 224542531 heartbeat IPC: 0.519108 cumulative IPC: 0.396293 (Simulation time: 1 hr 39 min 57 sec) 
Heartbeat CPU 0 instructions: 128000000 cycles: 226716081 heartbeat IPC: 0.460076 cumulative IPC: 0.396998 (Simulation time: 1 hr 40 min 23 sec) 
Heartbeat CPU 0 instructions: 129000001 cycles: 229475371 heartbeat IPC: 0.362412 cumulative IPC: 0.396519 (Simulation time: 1 hr 40 min 50 sec) 
Heartbeat CPU 0 instructions: 130000002 cycles: 231993280 heartbeat IPC: 0.397155 cumulative IPC: 0.396527 (Simulation time: 1 hr 41 min 17 sec) 
Heartbeat CPU 0 instructions: 131000000 cycles: 234818430 heartbeat IPC: 0.353963 cumulative IPC: 0.39594 (Simulation time: 1 hr 41 min 46 sec) 
Heartbeat CPU 0 instructions: 132000000 cycles: 237553891 heartbeat IPC: 0.365569 cumulative IPC: 0.395539 (Simulation time: 1 hr 42 min 12 sec) 
Heartbeat CPU 0 instructions: 133000000 cycles: 240483821 heartbeat IPC: 0.341305 cumulative IPC: 0.394783 (Simulation time: 1 hr 42 min 39 sec) 
Heartbeat CPU 0 instructions: 134000000 cycles: 243188894 heartbeat IPC: 0.369676 cumulative IPC: 0.394464 (Simulation time: 1 hr 43 min 6 sec) 
Heartbeat CPU 0 instructions: 135000000 cycles: 245989307 heartbeat IPC: 0.35709 cumulative IPC: 0.393979 (Simulation time: 1 hr 43 min 33 sec) 
Heartbeat CPU 0 instructions: 136000000 cycles: 248908746 heartbeat IPC: 0.342532 cumulative IPC: 0.393292 (Simulation time: 1 hr 43 min 59 sec) 
Heartbeat CPU 0 instructions: 137000003 cycles: 251707197 heartbeat IPC: 0.357342 cumulative IPC: 0.392838 (Simulation time: 1 hr 44 min 26 sec) 
Heartbeat CPU 0 instructions: 138000000 cycles: 253848050 heartbeat IPC: 0.467102 cumulative IPC: 0.393549 (Simulation time: 1 hr 44 min 49 sec) 
Heartbeat CPU 0 instructions: 139000000 cycles: 256608765 heartbeat IPC: 0.362225 cumulative IPC: 0.393167 (Simulation time: 1 hr 45 min 13 sec) 
Heartbeat CPU 0 instructions: 140000000 cycles: 259447858 heartbeat IPC: 0.352225 cumulative IPC: 0.39266 (Simulation time: 1 hr 45 min 34 sec) 
Heartbeat CPU 0 instructions: 141000001 cycles: 262138299 heartbeat IPC: 0.371687 cumulative IPC: 0.392416 (Simulation time: 1 hr 45 min 55 sec) 
Heartbeat CPU 0 instructions: 142000002 cycles: 264750565 heartbeat IPC: 0.38281 cumulative IPC: 0.392309 (Simulation time: 1 hr 46 min 12 sec) 
Heartbeat CPU 0 instructions: 143000001 cycles: 267396360 heartbeat IPC: 0.377958 cumulative IPC: 0.392149 (Simulation time: 1 hr 46 min 29 sec) 
Heartbeat CPU 0 instructions: 144000000 cycles: 269980561 heartbeat IPC: 0.386966 cumulative IPC: 0.392093 (Simulation time: 1 hr 46 min 45 sec) 
Heartbeat CPU 0 instructions: 145000000 cycles: 272589796 heartbeat IPC: 0.383254 cumulative IPC: 0.391998 (Simulation time: 1 hr 47 min 3 sec) 
Heartbeat CPU 0 instructions: 146000000 cycles: 275205408 heartbeat IPC: 0.38232 cumulative IPC: 0.391895 (Simulation time: 1 hr 47 min 20 sec) 
Heartbeat CPU 0 instructions: 147000002 cycles: 277606338 heartbeat IPC: 0.416506 cumulative IPC: 0.392134 (Simulation time: 1 hr 47 min 34 sec) 
Heartbeat CPU 0 instructions: 148000000 cycles: 279675765 heartbeat IPC: 0.483225 cumulative IPC: 0.392889 (Simulation time: 1 hr 47 min 48 sec) 
Heartbeat CPU 0 instructions: 149000001 cycles: 282115353 heartbeat IPC: 0.409906 cumulative IPC: 0.393054 (Simulation time: 1 hr 48 min 1 sec) 
Heartbeat CPU 0 instructions: 150000002 cycles: 284847958 heartbeat IPC: 0.365952 cumulative IPC: 0.392763 (Simulation time: 1 hr 48 min 13 sec) 
Finished CPU 0 instructions: 100000000 cycles: 254606191 cummulative IPC: 0.392763 (Simulation time: 1 hr 48 min 13 sec) 

ChampSim completed all CPUs

Region of Interest Statistics

CPU 0 cummulative IPC: 0.392763 instructions: 100000000 cycles: 254606191
LLC TOTAL     ACCESS:     651893  HIT:     608847  MISS:      43046
LLC LOAD      ACCESS:     308407  HIT:     290802  MISS:      17605
LLC RFO       ACCESS:      29186  HIT:      23948  MISS:       5238
LLC PREFETCH  ACCESS:     213178  HIT:     193449  MISS:      19729
LLC WRITEBACK ACCESS:     101122  HIT:     100648  MISS:        474
OPTgen accesses: 3671
OPTgen hits: 4635
OPTgen hit rate: 126.26


