
*** ChampSim Multicore Out-of-Order Simulator ***

Warmup Instructions: 50000000
Simulation Instructions: 100000000
Configuration: 2
Number of CPUs: 1
LLC sets: 2048
LLC ways: 16
Off-chip DRAM Channels: 1 Width: 64-bit Data Rate: 1600 MT/s

CPU 0 runs /datasets/cs240c-wi22-a00-public/data/Assignment2-gz/zeusmp_100B.trace.gz
CPU 0 L1D next line prefetcher
CPU 0 L2C IP-based stride prefetcher
Initialize Hawkeye state
Heartbeat CPU 0 instructions: 1000002 cycles: 462679 heartbeat IPC: 2.16133 cumulative IPC: 2.16133 (Simulation time: 0 hr 0 min 34 sec) 
Heartbeat CPU 0 instructions: 2000001 cycles: 925469 heartbeat IPC: 2.16081 cumulative IPC: 2.16107 (Simulation time: 0 hr 1 min 8 sec) 
Heartbeat CPU 0 instructions: 3000003 cycles: 1388509 heartbeat IPC: 2.15964 cumulative IPC: 2.16059 (Simulation time: 0 hr 1 min 40 sec) 
Heartbeat CPU 0 instructions: 4000000 cycles: 1851236 heartbeat IPC: 2.16109 cumulative IPC: 2.16072 (Simulation time: 0 hr 2 min 11 sec) 
Heartbeat CPU 0 instructions: 5000003 cycles: 2314175 heartbeat IPC: 2.16012 cumulative IPC: 2.1606 (Simulation time: 0 hr 2 min 44 sec) 
Heartbeat CPU 0 instructions: 6000001 cycles: 2777026 heartbeat IPC: 2.16052 cumulative IPC: 2.16059 (Simulation time: 0 hr 3 min 16 sec) 
Heartbeat CPU 0 instructions: 7000001 cycles: 3239703 heartbeat IPC: 2.16133 cumulative IPC: 2.16069 (Simulation time: 0 hr 3 min 51 sec) 
Heartbeat CPU 0 instructions: 8000000 cycles: 3702572 heartbeat IPC: 2.16044 cumulative IPC: 2.16066 (Simulation time: 0 hr 4 min 23 sec) 
Heartbeat CPU 0 instructions: 9000003 cycles: 4165335 heartbeat IPC: 2.16094 cumulative IPC: 2.16069 (Simulation time: 0 hr 4 min 56 sec) 
Heartbeat CPU 0 instructions: 10000001 cycles: 4628660 heartbeat IPC: 2.15831 cumulative IPC: 2.16045 (Simulation time: 0 hr 5 min 27 sec) 
Heartbeat CPU 0 instructions: 11000000 cycles: 5092284 heartbeat IPC: 2.15692 cumulative IPC: 2.16013 (Simulation time: 0 hr 6 min 0 sec) 
Heartbeat CPU 0 instructions: 12000000 cycles: 5555974 heartbeat IPC: 2.15661 cumulative IPC: 2.15984 (Simulation time: 0 hr 6 min 34 sec) 
Heartbeat CPU 0 instructions: 13000001 cycles: 6019072 heartbeat IPC: 2.15937 cumulative IPC: 2.1598 (Simulation time: 0 hr 7 min 7 sec) 
Heartbeat CPU 0 instructions: 14000002 cycles: 6481866 heartbeat IPC: 2.16079 cumulative IPC: 2.15987 (Simulation time: 0 hr 7 min 41 sec) 
Heartbeat CPU 0 instructions: 15000002 cycles: 6944814 heartbeat IPC: 2.16007 cumulative IPC: 2.15989 (Simulation time: 0 hr 8 min 10 sec) 
Heartbeat CPU 0 instructions: 16000000 cycles: 7407480 heartbeat IPC: 2.16138 cumulative IPC: 2.15998 (Simulation time: 0 hr 8 min 42 sec) 
Heartbeat CPU 0 instructions: 17000000 cycles: 7838142 heartbeat IPC: 2.32201 cumulative IPC: 2.16888 (Simulation time: 0 hr 9 min 14 sec) 
Heartbeat CPU 0 instructions: 18000001 cycles: 8265810 heartbeat IPC: 2.33826 cumulative IPC: 2.17765 (Simulation time: 0 hr 9 min 45 sec) 
Heartbeat CPU 0 instructions: 19000002 cycles: 8693004 heartbeat IPC: 2.34086 cumulative IPC: 2.18567 (Simulation time: 0 hr 10 min 16 sec) 
Heartbeat CPU 0 instructions: 20000000 cycles: 9120417 heartbeat IPC: 2.33965 cumulative IPC: 2.19288 (Simulation time: 0 hr 10 min 49 sec) 
Heartbeat CPU 0 instructions: 21000001 cycles: 9547696 heartbeat IPC: 2.34039 cumulative IPC: 2.19948 (Simulation time: 0 hr 11 min 23 sec) 
Heartbeat CPU 0 instructions: 22000001 cycles: 9975124 heartbeat IPC: 2.33958 cumulative IPC: 2.20549 (Simulation time: 0 hr 11 min 56 sec) 
Heartbeat CPU 0 instructions: 23000000 cycles: 10403179 heartbeat IPC: 2.33615 cumulative IPC: 2.21086 (Simulation time: 0 hr 12 min 26 sec) 
Heartbeat CPU 0 instructions: 24000000 cycles: 10830495 heartbeat IPC: 2.34019 cumulative IPC: 2.21597 (Simulation time: 0 hr 12 min 56 sec) 
Heartbeat CPU 0 instructions: 25000002 cycles: 11257739 heartbeat IPC: 2.34059 cumulative IPC: 2.22069 (Simulation time: 0 hr 13 min 27 sec) 
Heartbeat CPU 0 instructions: 26000001 cycles: 11685183 heartbeat IPC: 2.33949 cumulative IPC: 2.22504 (Simulation time: 0 hr 13 min 57 sec) 
Heartbeat CPU 0 instructions: 27000003 cycles: 12113011 heartbeat IPC: 2.33739 cumulative IPC: 2.22901 (Simulation time: 0 hr 14 min 26 sec) 
Heartbeat CPU 0 instructions: 28000000 cycles: 12540517 heartbeat IPC: 2.33914 cumulative IPC: 2.23276 (Simulation time: 0 hr 14 min 57 sec) 
Heartbeat CPU 0 instructions: 29000002 cycles: 12967686 heartbeat IPC: 2.341 cumulative IPC: 2.23633 (Simulation time: 0 hr 15 min 26 sec) 
Heartbeat CPU 0 instructions: 30000003 cycles: 13395125 heartbeat IPC: 2.33952 cumulative IPC: 2.23962 (Simulation time: 0 hr 15 min 57 sec) 
Heartbeat CPU 0 instructions: 31000001 cycles: 13822807 heartbeat IPC: 2.33818 cumulative IPC: 2.24267 (Simulation time: 0 hr 16 min 29 sec) 
Heartbeat CPU 0 instructions: 32000000 cycles: 14250509 heartbeat IPC: 2.33807 cumulative IPC: 2.24553 (Simulation time: 0 hr 17 min 1 sec) 
Heartbeat CPU 0 instructions: 33000002 cycles: 14677501 heartbeat IPC: 2.34197 cumulative IPC: 2.24834 (Simulation time: 0 hr 17 min 33 sec) 
Heartbeat CPU 0 instructions: 34000001 cycles: 15104687 heartbeat IPC: 2.3409 cumulative IPC: 2.25096 (Simulation time: 0 hr 18 min 2 sec) 
Heartbeat CPU 0 instructions: 35000003 cycles: 15532122 heartbeat IPC: 2.33954 cumulative IPC: 2.25339 (Simulation time: 0 hr 18 min 31 sec) 
Heartbeat CPU 0 instructions: 36000000 cycles: 15959747 heartbeat IPC: 2.33849 cumulative IPC: 2.25567 (Simulation time: 0 hr 19 min 2 sec) 
Heartbeat CPU 0 instructions: 37000001 cycles: 16387190 heartbeat IPC: 2.3395 cumulative IPC: 2.25786 (Simulation time: 0 hr 19 min 32 sec) 
Heartbeat CPU 0 instructions: 38000003 cycles: 16814666 heartbeat IPC: 2.33932 cumulative IPC: 2.25993 (Simulation time: 0 hr 20 min 1 sec) 
Heartbeat CPU 0 instructions: 39000000 cycles: 17242262 heartbeat IPC: 2.33865 cumulative IPC: 2.26188 (Simulation time: 0 hr 20 min 31 sec) 
Heartbeat CPU 0 instructions: 40000000 cycles: 17669598 heartbeat IPC: 2.34008 cumulative IPC: 2.26378 (Simulation time: 0 hr 21 min 4 sec) 
Heartbeat CPU 0 instructions: 41000003 cycles: 18097514 heartbeat IPC: 2.33691 cumulative IPC: 2.2655 (Simulation time: 0 hr 21 min 37 sec) 
Heartbeat CPU 0 instructions: 42000000 cycles: 18524620 heartbeat IPC: 2.34133 cumulative IPC: 2.26725 (Simulation time: 0 hr 22 min 10 sec) 
Heartbeat CPU 0 instructions: 43000003 cycles: 18952042 heartbeat IPC: 2.33962 cumulative IPC: 2.26888 (Simulation time: 0 hr 22 min 44 sec) 
Heartbeat CPU 0 instructions: 44000000 cycles: 19379498 heartbeat IPC: 2.33942 cumulative IPC: 2.27044 (Simulation time: 0 hr 23 min 16 sec) 
Heartbeat CPU 0 instructions: 45000001 cycles: 19807101 heartbeat IPC: 2.33862 cumulative IPC: 2.27191 (Simulation time: 0 hr 23 min 52 sec) 
Heartbeat CPU 0 instructions: 46000000 cycles: 20234702 heartbeat IPC: 2.33863 cumulative IPC: 2.27332 (Simulation time: 0 hr 24 min 26 sec) 
Heartbeat CPU 0 instructions: 47000003 cycles: 20661948 heartbeat IPC: 2.34058 cumulative IPC: 2.27471 (Simulation time: 0 hr 24 min 58 sec) 
Heartbeat CPU 0 instructions: 48000000 cycles: 21089392 heartbeat IPC: 2.33948 cumulative IPC: 2.27603 (Simulation time: 0 hr 25 min 32 sec) 
Heartbeat CPU 0 instructions: 49000001 cycles: 21516481 heartbeat IPC: 2.34143 cumulative IPC: 2.27732 (Simulation time: 0 hr 26 min 6 sec) 
Heartbeat CPU 0 instructions: 50000000 cycles: 21944508 heartbeat IPC: 2.3363 cumulative IPC: 2.27847 (Simulation time: 0 hr 26 min 40 sec) 

Warmup complete CPU 0 instructions: 50000003 cycles: 21944509 (Simulation time: 0 hr 26 min 40 sec) 

Heartbeat CPU 0 instructions: 51000002 cycles: 22635564 heartbeat IPC: 1.44706 cumulative IPC: 1.44706 (Simulation time: 0 hr 27 min 17 sec) 
Heartbeat CPU 0 instructions: 52000000 cycles: 23315909 heartbeat IPC: 1.46984 cumulative IPC: 1.45836 (Simulation time: 0 hr 27 min 53 sec) 
Heartbeat CPU 0 instructions: 53000001 cycles: 24008317 heartbeat IPC: 1.44424 cumulative IPC: 1.45362 (Simulation time: 0 hr 28 min 30 sec) 
Heartbeat CPU 0 instructions: 54000003 cycles: 24692099 heartbeat IPC: 1.46246 cumulative IPC: 1.45582 (Simulation time: 0 hr 29 min 9 sec) 
Heartbeat CPU 0 instructions: 55000003 cycles: 25379908 heartbeat IPC: 1.45389 cumulative IPC: 1.45544 (Simulation time: 0 hr 29 min 47 sec) 
Heartbeat CPU 0 instructions: 56000000 cycles: 26071969 heartbeat IPC: 1.44495 cumulative IPC: 1.45368 (Simulation time: 0 hr 30 min 26 sec) 
Heartbeat CPU 0 instructions: 57000003 cycles: 26753379 heartbeat IPC: 1.46755 cumulative IPC: 1.45564 (Simulation time: 0 hr 31 min 3 sec) 
Heartbeat CPU 0 instructions: 58000003 cycles: 27446126 heartbeat IPC: 1.44353 cumulative IPC: 1.45412 (Simulation time: 0 hr 31 min 40 sec) 
Heartbeat CPU 0 instructions: 59000000 cycles: 28130589 heartbeat IPC: 1.46099 cumulative IPC: 1.45488 (Simulation time: 0 hr 32 min 17 sec) 
Heartbeat CPU 0 instructions: 60000000 cycles: 28828213 heartbeat IPC: 1.43344 cumulative IPC: 1.45271 (Simulation time: 0 hr 32 min 54 sec) 
Heartbeat CPU 0 instructions: 61000000 cycles: 29511973 heartbeat IPC: 1.4625 cumulative IPC: 1.45359 (Simulation time: 0 hr 33 min 33 sec) 
Heartbeat CPU 0 instructions: 62000001 cycles: 30209220 heartbeat IPC: 1.43421 cumulative IPC: 1.45196 (Simulation time: 0 hr 34 min 10 sec) 
Heartbeat CPU 0 instructions: 63000001 cycles: 30895689 heartbeat IPC: 1.45673 cumulative IPC: 1.45232 (Simulation time: 0 hr 34 min 46 sec) 
Heartbeat CPU 0 instructions: 64000000 cycles: 31593811 heartbeat IPC: 1.43241 cumulative IPC: 1.45088 (Simulation time: 0 hr 35 min 22 sec) 
Heartbeat CPU 0 instructions: 65000003 cycles: 32276163 heartbeat IPC: 1.46552 cumulative IPC: 1.45185 (Simulation time: 0 hr 36 min 0 sec) 
Heartbeat CPU 0 instructions: 66000003 cycles: 32967734 heartbeat IPC: 1.44598 cumulative IPC: 1.45148 (Simulation time: 0 hr 36 min 38 sec) 
Heartbeat CPU 0 instructions: 67000000 cycles: 33650593 heartbeat IPC: 1.46443 cumulative IPC: 1.45224 (Simulation time: 0 hr 37 min 13 sec) 
Heartbeat CPU 0 instructions: 68000000 cycles: 34341561 heartbeat IPC: 1.44725 cumulative IPC: 1.45196 (Simulation time: 0 hr 37 min 46 sec) 
Heartbeat CPU 0 instructions: 69000000 cycles: 35026245 heartbeat IPC: 1.46053 cumulative IPC: 1.45241 (Simulation time: 0 hr 38 min 23 sec) 
Heartbeat CPU 0 instructions: 70000003 cycles: 35706153 heartbeat IPC: 1.47079 cumulative IPC: 1.45331 (Simulation time: 0 hr 39 min 1 sec) 
Heartbeat CPU 0 instructions: 71000003 cycles: 36398579 heartbeat IPC: 1.4442 cumulative IPC: 1.45288 (Simulation time: 0 hr 39 min 38 sec) 
Heartbeat CPU 0 instructions: 72000000 cycles: 37079080 heartbeat IPC: 1.4695 cumulative IPC: 1.45363 (Simulation time: 0 hr 40 min 13 sec) 
Heartbeat CPU 0 instructions: 73000002 cycles: 37772179 heartbeat IPC: 1.4428 cumulative IPC: 1.45315 (Simulation time: 0 hr 40 min 51 sec) 
Heartbeat CPU 0 instructions: 74000003 cycles: 38451779 heartbeat IPC: 1.47146 cumulative IPC: 1.4539 (Simulation time: 0 hr 41 min 28 sec) 
Heartbeat CPU 0 instructions: 75000003 cycles: 39143446 heartbeat IPC: 1.44578 cumulative IPC: 1.45358 (Simulation time: 0 hr 42 min 5 sec) 
Heartbeat CPU 0 instructions: 76000000 cycles: 39824660 heartbeat IPC: 1.46796 cumulative IPC: 1.45413 (Simulation time: 0 hr 42 min 41 sec) 
Heartbeat CPU 0 instructions: 77000003 cycles: 40521671 heartbeat IPC: 1.4347 cumulative IPC: 1.4534 (Simulation time: 0 hr 43 min 17 sec) 
Heartbeat CPU 0 instructions: 78000002 cycles: 41207509 heartbeat IPC: 1.45807 cumulative IPC: 1.45356 (Simulation time: 0 hr 43 min 54 sec) 
Heartbeat CPU 0 instructions: 79000000 cycles: 41900199 heartbeat IPC: 1.44364 cumulative IPC: 1.45322 (Simulation time: 0 hr 44 min 29 sec) 
Heartbeat CPU 0 instructions: 80000000 cycles: 42581672 heartbeat IPC: 1.46741 cumulative IPC: 1.45369 (Simulation time: 0 hr 45 min 6 sec) 
Heartbeat CPU 0 instructions: 81000003 cycles: 43278650 heartbeat IPC: 1.43477 cumulative IPC: 1.45307 (Simulation time: 0 hr 45 min 43 sec) 
Heartbeat CPU 0 instructions: 82000000 cycles: 43962946 heartbeat IPC: 1.46135 cumulative IPC: 1.45333 (Simulation time: 0 hr 46 min 21 sec) 
Heartbeat CPU 0 instructions: 83000002 cycles: 44643334 heartbeat IPC: 1.46975 cumulative IPC: 1.45382 (Simulation time: 0 hr 47 min 0 sec) 
Heartbeat CPU 0 instructions: 84000000 cycles: 45337171 heartbeat IPC: 1.44126 cumulative IPC: 1.45345 (Simulation time: 0 hr 47 min 39 sec) 
Heartbeat CPU 0 instructions: 85000001 cycles: 46017974 heartbeat IPC: 1.46886 cumulative IPC: 1.45388 (Simulation time: 0 hr 48 min 17 sec) 
Heartbeat CPU 0 instructions: 86000001 cycles: 46711550 heartbeat IPC: 1.4418 cumulative IPC: 1.45354 (Simulation time: 0 hr 48 min 54 sec) 
Heartbeat CPU 0 instructions: 87000001 cycles: 47394578 heartbeat IPC: 1.46407 cumulative IPC: 1.45383 (Simulation time: 0 hr 49 min 34 sec) 
Heartbeat CPU 0 instructions: 88000000 cycles: 48084952 heartbeat IPC: 1.44849 cumulative IPC: 1.45369 (Simulation time: 0 hr 50 min 11 sec) 
Heartbeat CPU 0 instructions: 89000003 cycles: 48766018 heartbeat IPC: 1.46829 cumulative IPC: 1.45406 (Simulation time: 0 hr 50 min 50 sec) 
Heartbeat CPU 0 instructions: 90000001 cycles: 49459136 heartbeat IPC: 1.44275 cumulative IPC: 1.45377 (Simulation time: 0 hr 51 min 28 sec) 
Heartbeat CPU 0 instructions: 91000003 cycles: 50145502 heartbeat IPC: 1.45695 cumulative IPC: 1.45385 (Simulation time: 0 hr 52 min 5 sec) 
Heartbeat CPU 0 instructions: 92000000 cycles: 50839532 heartbeat IPC: 1.44086 cumulative IPC: 1.45354 (Simulation time: 0 hr 52 min 42 sec) 
Heartbeat CPU 0 instructions: 93000001 cycles: 51521538 heartbeat IPC: 1.46626 cumulative IPC: 1.45383 (Simulation time: 0 hr 53 min 19 sec) 
Heartbeat CPU 0 instructions: 94000003 cycles: 52217494 heartbeat IPC: 1.43688 cumulative IPC: 1.45344 (Simulation time: 0 hr 53 min 56 sec) 
Heartbeat CPU 0 instructions: 95000003 cycles: 52905303 heartbeat IPC: 1.45389 cumulative IPC: 1.45345 (Simulation time: 0 hr 54 min 34 sec) 
Heartbeat CPU 0 instructions: 96000000 cycles: 53595484 heartbeat IPC: 1.44889 cumulative IPC: 1.45335 (Simulation time: 0 hr 55 min 12 sec) 
Heartbeat CPU 0 instructions: 97000000 cycles: 54286854 heartbeat IPC: 1.4464 cumulative IPC: 1.4532 (Simulation time: 0 hr 55 min 51 sec) 
Heartbeat CPU 0 instructions: 98000001 cycles: 54966661 heartbeat IPC: 1.47101 cumulative IPC: 1.45357 (Simulation time: 0 hr 56 min 30 sec) 
Heartbeat CPU 0 instructions: 99000001 cycles: 55671170 heartbeat IPC: 1.41943 cumulative IPC: 1.45286 (Simulation time: 0 hr 57 min 11 sec) 
Heartbeat CPU 0 instructions: 100000000 cycles: 56366261 heartbeat IPC: 1.43866 cumulative IPC: 1.45257 (Simulation time: 0 hr 57 min 49 sec) 
Heartbeat CPU 0 instructions: 101000002 cycles: 57070923 heartbeat IPC: 1.41912 cumulative IPC: 1.4519 (Simulation time: 0 hr 58 min 29 sec) 
Heartbeat CPU 0 instructions: 102000003 cycles: 57762165 heartbeat IPC: 1.44667 cumulative IPC: 1.4518 (Simulation time: 0 hr 59 min 9 sec) 
Heartbeat CPU 0 instructions: 103000001 cycles: 58473054 heartbeat IPC: 1.40669 cumulative IPC: 1.45092 (Simulation time: 0 hr 59 min 47 sec) 
Heartbeat CPU 0 instructions: 104000000 cycles: 59165284 heartbeat IPC: 1.44461 cumulative IPC: 1.4508 (Simulation time: 1 hr 0 min 24 sec) 
Heartbeat CPU 0 instructions: 105000003 cycles: 59870560 heartbeat IPC: 1.41789 cumulative IPC: 1.45019 (Simulation time: 1 hr 1 min 4 sec) 
Heartbeat CPU 0 instructions: 106000002 cycles: 60563978 heartbeat IPC: 1.44213 cumulative IPC: 1.45005 (Simulation time: 1 hr 1 min 43 sec) 
Heartbeat CPU 0 instructions: 107000000 cycles: 61266614 heartbeat IPC: 1.42321 cumulative IPC: 1.44957 (Simulation time: 1 hr 2 min 25 sec) 
Heartbeat CPU 0 instructions: 108000000 cycles: 61948714 heartbeat IPC: 1.46606 cumulative IPC: 1.44985 (Simulation time: 1 hr 3 min 4 sec) 
Heartbeat CPU 0 instructions: 109000002 cycles: 62632445 heartbeat IPC: 1.46257 cumulative IPC: 1.45006 (Simulation time: 1 hr 3 min 41 sec) 
Heartbeat CPU 0 instructions: 110000000 cycles: 63327035 heartbeat IPC: 1.4397 cumulative IPC: 1.44989 (Simulation time: 1 hr 4 min 19 sec) 
Heartbeat CPU 0 instructions: 111000002 cycles: 64009402 heartbeat IPC: 1.46549 cumulative IPC: 1.45014 (Simulation time: 1 hr 4 min 55 sec) 
Heartbeat CPU 0 instructions: 112000000 cycles: 64702360 heartbeat IPC: 1.44309 cumulative IPC: 1.45003 (Simulation time: 1 hr 5 min 32 sec) 
Heartbeat CPU 0 instructions: 113000001 cycles: 65384156 heartbeat IPC: 1.46672 cumulative IPC: 1.45029 (Simulation time: 1 hr 6 min 11 sec) 
Heartbeat CPU 0 instructions: 114000000 cycles: 66083221 heartbeat IPC: 1.43048 cumulative IPC: 1.44997 (Simulation time: 1 hr 6 min 49 sec) 
Heartbeat CPU 0 instructions: 115000000 cycles: 66768318 heartbeat IPC: 1.45965 cumulative IPC: 1.45012 (Simulation time: 1 hr 7 min 27 sec) 
Heartbeat CPU 0 instructions: 116000000 cycles: 67459374 heartbeat IPC: 1.44706 cumulative IPC: 1.45008 (Simulation time: 1 hr 8 min 6 sec) 
Heartbeat CPU 0 instructions: 117000003 cycles: 68139101 heartbeat IPC: 1.47118 cumulative IPC: 1.45039 (Simulation time: 1 hr 8 min 48 sec) 
Heartbeat CPU 0 instructions: 118000001 cycles: 68836988 heartbeat IPC: 1.43289 cumulative IPC: 1.45013 (Simulation time: 1 hr 9 min 27 sec) 
Heartbeat CPU 0 instructions: 119000003 cycles: 69520992 heartbeat IPC: 1.46198 cumulative IPC: 1.4503 (Simulation time: 1 hr 10 min 7 sec) 
Heartbeat CPU 0 instructions: 120000000 cycles: 70211339 heartbeat IPC: 1.44854 cumulative IPC: 1.45027 (Simulation time: 1 hr 10 min 46 sec) 
Heartbeat CPU 0 instructions: 121000000 cycles: 70890270 heartbeat IPC: 1.4729 cumulative IPC: 1.45059 (Simulation time: 1 hr 11 min 24 sec) 
Heartbeat CPU 0 instructions: 122000001 cycles: 71576755 heartbeat IPC: 1.4567 cumulative IPC: 1.45067 (Simulation time: 1 hr 12 min 5 sec) 
Heartbeat CPU 0 instructions: 123000001 cycles: 72268717 heartbeat IPC: 1.44517 cumulative IPC: 1.45059 (Simulation time: 1 hr 12 min 44 sec) 
Heartbeat CPU 0 instructions: 124000000 cycles: 72949009 heartbeat IPC: 1.46996 cumulative IPC: 1.45085 (Simulation time: 1 hr 13 min 27 sec) 
Heartbeat CPU 0 instructions: 125000002 cycles: 73638676 heartbeat IPC: 1.44998 cumulative IPC: 1.45084 (Simulation time: 1 hr 14 min 9 sec) 
Heartbeat CPU 0 instructions: 126000001 cycles: 74319146 heartbeat IPC: 1.46957 cumulative IPC: 1.45108 (Simulation time: 1 hr 14 min 49 sec) 
Heartbeat CPU 0 instructions: 127000002 cycles: 75009403 heartbeat IPC: 1.44874 cumulative IPC: 1.45105 (Simulation time: 1 hr 15 min 30 sec) 
Heartbeat CPU 0 instructions: 128000000 cycles: 75688994 heartbeat IPC: 1.47147 cumulative IPC: 1.45131 (Simulation time: 1 hr 16 min 8 sec) 
Heartbeat CPU 0 instructions: 129000001 cycles: 76379943 heartbeat IPC: 1.44729 cumulative IPC: 1.45126 (Simulation time: 1 hr 16 min 47 sec) 
Heartbeat CPU 0 instructions: 130000002 cycles: 77061703 heartbeat IPC: 1.46679 cumulative IPC: 1.45145 (Simulation time: 1 hr 17 min 24 sec) 
Heartbeat CPU 0 instructions: 131000000 cycles: 77754555 heartbeat IPC: 1.44331 cumulative IPC: 1.45135 (Simulation time: 1 hr 18 min 4 sec) 
Heartbeat CPU 0 instructions: 132000000 cycles: 78435015 heartbeat IPC: 1.46959 cumulative IPC: 1.45157 (Simulation time: 1 hr 18 min 46 sec) 
Heartbeat CPU 0 instructions: 133000001 cycles: 79129712 heartbeat IPC: 1.43948 cumulative IPC: 1.45142 (Simulation time: 1 hr 19 min 26 sec) 
Heartbeat CPU 0 instructions: 134000000 cycles: 79811844 heartbeat IPC: 1.46599 cumulative IPC: 1.4516 (Simulation time: 1 hr 20 min 6 sec) 
Heartbeat CPU 0 instructions: 135000001 cycles: 80500558 heartbeat IPC: 1.45198 cumulative IPC: 1.4516 (Simulation time: 1 hr 20 min 49 sec) 
Heartbeat CPU 0 instructions: 136000000 cycles: 81185277 heartbeat IPC: 1.46045 cumulative IPC: 1.4517 (Simulation time: 1 hr 21 min 29 sec) 
Heartbeat CPU 0 instructions: 137000001 cycles: 81866259 heartbeat IPC: 1.46847 cumulative IPC: 1.45189 (Simulation time: 1 hr 22 min 10 sec) 
Heartbeat CPU 0 instructions: 138000002 cycles: 82556763 heartbeat IPC: 1.44822 cumulative IPC: 1.45185 (Simulation time: 1 hr 22 min 52 sec) 
Heartbeat CPU 0 instructions: 139000001 cycles: 83238697 heartbeat IPC: 1.46642 cumulative IPC: 1.45201 (Simulation time: 1 hr 23 min 34 sec) 
Heartbeat CPU 0 instructions: 140000000 cycles: 83935791 heartbeat IPC: 1.43453 cumulative IPC: 1.45182 (Simulation time: 1 hr 24 min 14 sec) 
Heartbeat CPU 0 instructions: 141000001 cycles: 84614512 heartbeat IPC: 1.47336 cumulative IPC: 1.45205 (Simulation time: 1 hr 24 min 52 sec) 
Heartbeat CPU 0 instructions: 142000001 cycles: 85310510 heartbeat IPC: 1.43679 cumulative IPC: 1.45188 (Simulation time: 1 hr 25 min 31 sec) 
Heartbeat CPU 0 instructions: 143000000 cycles: 85992591 heartbeat IPC: 1.4661 cumulative IPC: 1.45203 (Simulation time: 1 hr 26 min 9 sec) 
Heartbeat CPU 0 instructions: 144000000 cycles: 86685932 heartbeat IPC: 1.44229 cumulative IPC: 1.45193 (Simulation time: 1 hr 26 min 46 sec) 
Heartbeat CPU 0 instructions: 145000001 cycles: 87363735 heartbeat IPC: 1.47536 cumulative IPC: 1.45217 (Simulation time: 1 hr 27 min 20 sec) 
Heartbeat CPU 0 instructions: 146000003 cycles: 88062652 heartbeat IPC: 1.43079 cumulative IPC: 1.45195 (Simulation time: 1 hr 27 min 55 sec) 
Heartbeat CPU 0 instructions: 147000002 cycles: 88746756 heartbeat IPC: 1.46176 cumulative IPC: 1.45205 (Simulation time: 1 hr 28 min 31 sec) 
Heartbeat CPU 0 instructions: 148000000 cycles: 89438805 heartbeat IPC: 1.44498 cumulative IPC: 1.45197 (Simulation time: 1 hr 29 min 3 sec) 
Heartbeat CPU 0 instructions: 149000001 cycles: 90126573 heartbeat IPC: 1.45398 cumulative IPC: 1.45199 (Simulation time: 1 hr 29 min 35 sec) 
Heartbeat CPU 0 instructions: 150000001 cycles: 90810738 heartbeat IPC: 1.46164 cumulative IPC: 1.45209 (Simulation time: 1 hr 30 min 7 sec) 
Finished CPU 0 instructions: 100000002 cycles: 68866230 cummulative IPC: 1.45209 (Simulation time: 1 hr 30 min 7 sec) 

ChampSim completed all CPUs

Region of Interest Statistics

CPU 0 cummulative IPC: 1.45209 instructions: 100000002 cycles: 68866230
LLC TOTAL     ACCESS:     824642  HIT:     149593  MISS:     675049
LLC LOAD      ACCESS:      16758  HIT:       7881  MISS:       8877
LLC RFO       ACCESS:     202231  HIT:       3721  MISS:     198510
LLC PREFETCH  ACCESS:     402989  HIT:     103239  MISS:     299750
LLC WRITEBACK ACCESS:     202664  HIT:      34752  MISS:     167912
OPTgen accesses: 2797
OPTgen hits: 679
OPTgen hit rate: 24.276


