
*** ChampSim Multicore Out-of-Order Simulator ***

Warmup Instructions: 50000000
Simulation Instructions: 100000000
Configuration: 2
Number of CPUs: 1
LLC sets: 2048
LLC ways: 16
Off-chip DRAM Channels: 1 Width: 64-bit Data Rate: 1600 MT/s

CPU 0 runs /datasets/cs240c-wi22-a00-public/data/Assignment2-gz/lbm_1004B.trace.gz
CPU 0 L1D next line prefetcher
CPU 0 L2C IP-based stride prefetcher
Initialize Hawkeye state
Heartbeat CPU 0 instructions: 1000002 cycles: 391414 heartbeat IPC: 2.55484 cumulative IPC: 2.55484 (Simulation time: 0 hr 0 min 37 sec) 
Heartbeat CPU 0 instructions: 2000001 cycles: 782838 heartbeat IPC: 2.55477 cumulative IPC: 2.55481 (Simulation time: 0 hr 1 min 14 sec) 
Heartbeat CPU 0 instructions: 3000001 cycles: 1174187 heartbeat IPC: 2.55526 cumulative IPC: 2.55496 (Simulation time: 0 hr 1 min 54 sec) 
Heartbeat CPU 0 instructions: 4000000 cycles: 1570369 heartbeat IPC: 2.52409 cumulative IPC: 2.54717 (Simulation time: 0 hr 2 min 33 sec) 
Heartbeat CPU 0 instructions: 5000002 cycles: 1961784 heartbeat IPC: 2.55484 cumulative IPC: 2.5487 (Simulation time: 0 hr 3 min 15 sec) 
Heartbeat CPU 0 instructions: 6000002 cycles: 2353152 heartbeat IPC: 2.55514 cumulative IPC: 2.54977 (Simulation time: 0 hr 3 min 57 sec) 
Heartbeat CPU 0 instructions: 7000003 cycles: 2749260 heartbeat IPC: 2.52457 cumulative IPC: 2.54614 (Simulation time: 0 hr 4 min 38 sec) 
Heartbeat CPU 0 instructions: 8000000 cycles: 3140614 heartbeat IPC: 2.55522 cumulative IPC: 2.54727 (Simulation time: 0 hr 5 min 19 sec) 
Heartbeat CPU 0 instructions: 9000003 cycles: 3532043 heartbeat IPC: 2.55475 cumulative IPC: 2.5481 (Simulation time: 0 hr 5 min 57 sec) 
Heartbeat CPU 0 instructions: 10000000 cycles: 3923409 heartbeat IPC: 2.55515 cumulative IPC: 2.5488 (Simulation time: 0 hr 6 min 41 sec) 
Heartbeat CPU 0 instructions: 11000000 cycles: 4319650 heartbeat IPC: 2.52372 cumulative IPC: 2.5465 (Simulation time: 0 hr 7 min 24 sec) 
Heartbeat CPU 0 instructions: 12000000 cycles: 4710973 heartbeat IPC: 2.55543 cumulative IPC: 2.54724 (Simulation time: 0 hr 8 min 13 sec) 
Heartbeat CPU 0 instructions: 13000002 cycles: 5102385 heartbeat IPC: 2.55486 cumulative IPC: 2.54783 (Simulation time: 0 hr 8 min 57 sec) 
Heartbeat CPU 0 instructions: 14000003 cycles: 5498562 heartbeat IPC: 2.52413 cumulative IPC: 2.54612 (Simulation time: 0 hr 9 min 42 sec) 
Heartbeat CPU 0 instructions: 15000003 cycles: 5889986 heartbeat IPC: 2.55477 cumulative IPC: 2.5467 (Simulation time: 0 hr 10 min 30 sec) 
Heartbeat CPU 0 instructions: 16000000 cycles: 6281365 heartbeat IPC: 2.55506 cumulative IPC: 2.54722 (Simulation time: 0 hr 11 min 18 sec) 
Heartbeat CPU 0 instructions: 17000000 cycles: 6677511 heartbeat IPC: 2.52432 cumulative IPC: 2.54586 (Simulation time: 0 hr 12 min 7 sec) 
Heartbeat CPU 0 instructions: 18000000 cycles: 7068877 heartbeat IPC: 2.55515 cumulative IPC: 2.54637 (Simulation time: 0 hr 12 min 55 sec) 
Heartbeat CPU 0 instructions: 19000003 cycles: 7460238 heartbeat IPC: 2.55519 cumulative IPC: 2.54684 (Simulation time: 0 hr 13 min 39 sec) 
Heartbeat CPU 0 instructions: 20000000 cycles: 7851636 heartbeat IPC: 2.55494 cumulative IPC: 2.54724 (Simulation time: 0 hr 14 min 25 sec) 
Heartbeat CPU 0 instructions: 21000003 cycles: 8247807 heartbeat IPC: 2.52417 cumulative IPC: 2.54613 (Simulation time: 0 hr 15 min 12 sec) 
Heartbeat CPU 0 instructions: 22000002 cycles: 8639252 heartbeat IPC: 2.55463 cumulative IPC: 2.54652 (Simulation time: 0 hr 16 min 2 sec) 
Heartbeat CPU 0 instructions: 23000001 cycles: 9030572 heartbeat IPC: 2.55545 cumulative IPC: 2.5469 (Simulation time: 0 hr 16 min 50 sec) 
Heartbeat CPU 0 instructions: 24000000 cycles: 9426768 heartbeat IPC: 2.524 cumulative IPC: 2.54594 (Simulation time: 0 hr 17 min 41 sec) 
Heartbeat CPU 0 instructions: 25000003 cycles: 9818170 heartbeat IPC: 2.55493 cumulative IPC: 2.5463 (Simulation time: 0 hr 18 min 32 sec) 
Heartbeat CPU 0 instructions: 26000002 cycles: 10209560 heartbeat IPC: 2.55499 cumulative IPC: 2.54663 (Simulation time: 0 hr 19 min 22 sec) 
Heartbeat CPU 0 instructions: 27000001 cycles: 10600927 heartbeat IPC: 2.55514 cumulative IPC: 2.54695 (Simulation time: 0 hr 20 min 11 sec) 
Heartbeat CPU 0 instructions: 28000000 cycles: 10997112 heartbeat IPC: 2.52407 cumulative IPC: 2.54612 (Simulation time: 0 hr 20 min 55 sec) 
Heartbeat CPU 0 instructions: 29000002 cycles: 11388513 heartbeat IPC: 2.55493 cumulative IPC: 2.54643 (Simulation time: 0 hr 21 min 37 sec) 
Heartbeat CPU 0 instructions: 30000003 cycles: 11779906 heartbeat IPC: 2.55498 cumulative IPC: 2.54671 (Simulation time: 0 hr 22 min 21 sec) 
Heartbeat CPU 0 instructions: 31000003 cycles: 12176132 heartbeat IPC: 2.52381 cumulative IPC: 2.54596 (Simulation time: 0 hr 23 min 6 sec) 
Heartbeat CPU 0 instructions: 32000000 cycles: 12567515 heartbeat IPC: 2.55503 cumulative IPC: 2.54625 (Simulation time: 0 hr 23 min 49 sec) 
Heartbeat CPU 0 instructions: 33000003 cycles: 12958952 heartbeat IPC: 2.5547 cumulative IPC: 2.5465 (Simulation time: 0 hr 24 min 32 sec) 
Heartbeat CPU 0 instructions: 34000002 cycles: 13355067 heartbeat IPC: 2.52452 cumulative IPC: 2.54585 (Simulation time: 0 hr 25 min 16 sec) 
Heartbeat CPU 0 instructions: 35000003 cycles: 13746486 heartbeat IPC: 2.55481 cumulative IPC: 2.54611 (Simulation time: 0 hr 25 min 55 sec) 
Heartbeat CPU 0 instructions: 36000000 cycles: 14137891 heartbeat IPC: 2.55489 cumulative IPC: 2.54635 (Simulation time: 0 hr 26 min 32 sec) 
Heartbeat CPU 0 instructions: 37000002 cycles: 14529301 heartbeat IPC: 2.55487 cumulative IPC: 2.54658 (Simulation time: 0 hr 27 min 12 sec) 
Heartbeat CPU 0 instructions: 38000000 cycles: 14925493 heartbeat IPC: 2.52402 cumulative IPC: 2.54598 (Simulation time: 0 hr 27 min 54 sec) 
Heartbeat CPU 0 instructions: 39000003 cycles: 15316816 heartbeat IPC: 2.55544 cumulative IPC: 2.54622 (Simulation time: 0 hr 28 min 35 sec) 
Heartbeat CPU 0 instructions: 40000000 cycles: 15708212 heartbeat IPC: 2.55495 cumulative IPC: 2.54644 (Simulation time: 0 hr 29 min 16 sec) 
Heartbeat CPU 0 instructions: 41000002 cycles: 16104417 heartbeat IPC: 2.52395 cumulative IPC: 2.54589 (Simulation time: 0 hr 29 min 58 sec) 
Heartbeat CPU 0 instructions: 42000003 cycles: 16495846 heartbeat IPC: 2.55474 cumulative IPC: 2.5461 (Simulation time: 0 hr 30 min 39 sec) 
Heartbeat CPU 0 instructions: 43000000 cycles: 16887205 heartbeat IPC: 2.55519 cumulative IPC: 2.54631 (Simulation time: 0 hr 31 min 16 sec) 
Heartbeat CPU 0 instructions: 44000000 cycles: 17283353 heartbeat IPC: 2.52431 cumulative IPC: 2.5458 (Simulation time: 0 hr 31 min 55 sec) 
Heartbeat CPU 0 instructions: 45000003 cycles: 17674737 heartbeat IPC: 2.55504 cumulative IPC: 2.54601 (Simulation time: 0 hr 32 min 35 sec) 
Heartbeat CPU 0 instructions: 46000003 cycles: 18066091 heartbeat IPC: 2.55523 cumulative IPC: 2.54621 (Simulation time: 0 hr 33 min 12 sec) 
Heartbeat CPU 0 instructions: 47000002 cycles: 18457490 heartbeat IPC: 2.55493 cumulative IPC: 2.54639 (Simulation time: 0 hr 33 min 49 sec) 
Heartbeat CPU 0 instructions: 48000000 cycles: 18853663 heartbeat IPC: 2.52414 cumulative IPC: 2.54592 (Simulation time: 0 hr 34 min 27 sec) 
Heartbeat CPU 0 instructions: 49000000 cycles: 19245089 heartbeat IPC: 2.55476 cumulative IPC: 2.5461 (Simulation time: 0 hr 35 min 6 sec) 
Heartbeat CPU 0 instructions: 50000003 cycles: 19636423 heartbeat IPC: 2.55537 cumulative IPC: 2.54629 (Simulation time: 0 hr 35 min 46 sec) 

Warmup complete CPU 0 instructions: 50000003 cycles: 19636423 (Simulation time: 0 hr 35 min 46 sec) 

Heartbeat CPU 0 instructions: 51000001 cycles: 21095206 heartbeat IPC: 0.685502 cumulative IPC: 0.685502 (Simulation time: 0 hr 36 min 36 sec) 
Heartbeat CPU 0 instructions: 52000000 cycles: 22469898 heartbeat IPC: 0.727435 cumulative IPC: 0.705846 (Simulation time: 0 hr 37 min 20 sec) 
Heartbeat CPU 0 instructions: 53000002 cycles: 23906384 heartbeat IPC: 0.696145 cumulative IPC: 0.702582 (Simulation time: 0 hr 38 min 4 sec) 
Heartbeat CPU 0 instructions: 54000002 cycles: 25384068 heartbeat IPC: 0.676735 cumulative IPC: 0.695937 (Simulation time: 0 hr 38 min 48 sec) 
Heartbeat CPU 0 instructions: 55000001 cycles: 26859609 heartbeat IPC: 0.677717 cumulative IPC: 0.692215 (Simulation time: 0 hr 39 min 34 sec) 
Heartbeat CPU 0 instructions: 56000000 cycles: 28279645 heartbeat IPC: 0.704207 cumulative IPC: 0.694185 (Simulation time: 0 hr 40 min 18 sec) 
Heartbeat CPU 0 instructions: 57000003 cycles: 29683083 heartbeat IPC: 0.712538 cumulative IPC: 0.696749 (Simulation time: 0 hr 41 min 1 sec) 
Heartbeat CPU 0 instructions: 58000003 cycles: 31181257 heartbeat IPC: 0.667479 cumulative IPC: 0.692951 (Simulation time: 0 hr 41 min 44 sec) 
Heartbeat CPU 0 instructions: 59000002 cycles: 32623786 heartbeat IPC: 0.693226 cumulative IPC: 0.692981 (Simulation time: 0 hr 42 min 28 sec) 
Heartbeat CPU 0 instructions: 60000000 cycles: 34075816 heartbeat IPC: 0.68869 cumulative IPC: 0.69255 (Simulation time: 0 hr 43 min 9 sec) 
Heartbeat CPU 0 instructions: 61000003 cycles: 35541352 heartbeat IPC: 0.682346 cumulative IPC: 0.69161 (Simulation time: 0 hr 43 min 53 sec) 
Heartbeat CPU 0 instructions: 62000001 cycles: 36943326 heartbeat IPC: 0.713279 cumulative IPC: 0.693365 (Simulation time: 0 hr 44 min 36 sec) 
Heartbeat CPU 0 instructions: 63000001 cycles: 38337936 heartbeat IPC: 0.717046 cumulative IPC: 0.695131 (Simulation time: 0 hr 45 min 20 sec) 
Heartbeat CPU 0 instructions: 64000000 cycles: 39733659 heartbeat IPC: 0.716474 cumulative IPC: 0.696613 (Simulation time: 0 hr 46 min 2 sec) 
Heartbeat CPU 0 instructions: 65000000 cycles: 41208016 heartbeat IPC: 0.678262 cumulative IPC: 0.695359 (Simulation time: 0 hr 46 min 47 sec) 
Heartbeat CPU 0 instructions: 66000000 cycles: 42634816 heartbeat IPC: 0.700869 cumulative IPC: 0.695701 (Simulation time: 0 hr 47 min 31 sec) 
Heartbeat CPU 0 instructions: 67000000 cycles: 44073270 heartbeat IPC: 0.695191 cumulative IPC: 0.695671 (Simulation time: 0 hr 48 min 16 sec) 
Heartbeat CPU 0 instructions: 68000000 cycles: 45533727 heartbeat IPC: 0.684717 cumulative IPC: 0.695053 (Simulation time: 0 hr 49 min 0 sec) 
Heartbeat CPU 0 instructions: 69000000 cycles: 46938753 heartbeat IPC: 0.711731 cumulative IPC: 0.695911 (Simulation time: 0 hr 49 min 43 sec) 
Heartbeat CPU 0 instructions: 70000000 cycles: 48343969 heartbeat IPC: 0.711634 cumulative IPC: 0.696681 (Simulation time: 0 hr 50 min 27 sec) 
Heartbeat CPU 0 instructions: 71000002 cycles: 49793349 heartbeat IPC: 0.689952 cumulative IPC: 0.696357 (Simulation time: 0 hr 51 min 15 sec) 
Heartbeat CPU 0 instructions: 72000000 cycles: 51947897 heartbeat IPC: 0.464134 cumulative IPC: 0.680873 (Simulation time: 0 hr 52 min 12 sec) 
Heartbeat CPU 0 instructions: 73000002 cycles: 55016431 heartbeat IPC: 0.325889 cumulative IPC: 0.650085 (Simulation time: 0 hr 53 min 22 sec) 
Heartbeat CPU 0 instructions: 74000002 cycles: 61164149 heartbeat IPC: 0.162662 cumulative IPC: 0.577927 (Simulation time: 0 hr 55 min 3 sec) 
Heartbeat CPU 0 instructions: 75000003 cycles: 63395427 heartbeat IPC: 0.448174 cumulative IPC: 0.571311 (Simulation time: 0 hr 55 min 59 sec) 
Heartbeat CPU 0 instructions: 76000000 cycles: 65398449 heartbeat IPC: 0.499244 cumulative IPC: 0.568157 (Simulation time: 0 hr 56 min 50 sec) 
Heartbeat CPU 0 instructions: 77000000 cycles: 66828774 heartbeat IPC: 0.699142 cumulative IPC: 0.572127 (Simulation time: 0 hr 57 min 33 sec) 
Heartbeat CPU 0 instructions: 78000002 cycles: 68282198 heartbeat IPC: 0.688032 cumulative IPC: 0.57559 (Simulation time: 0 hr 58 min 14 sec) 
Heartbeat CPU 0 instructions: 79000000 cycles: 69754286 heartbeat IPC: 0.679306 cumulative IPC: 0.578636 (Simulation time: 0 hr 58 min 58 sec) 
Heartbeat CPU 0 instructions: 80000000 cycles: 71179108 heartbeat IPC: 0.701842 cumulative IPC: 0.582042 (Simulation time: 0 hr 59 min 40 sec) 
Heartbeat CPU 0 instructions: 81000001 cycles: 72487868 heartbeat IPC: 0.764083 cumulative IPC: 0.58655 (Simulation time: 1 hr 0 min 22 sec) 
Heartbeat CPU 0 instructions: 82000002 cycles: 73860991 heartbeat IPC: 0.728268 cumulative IPC: 0.590138 (Simulation time: 1 hr 1 min 7 sec) 
Heartbeat CPU 0 instructions: 83000003 cycles: 75389881 heartbeat IPC: 0.65407 cumulative IPC: 0.591892 (Simulation time: 1 hr 1 min 54 sec) 
Heartbeat CPU 0 instructions: 84000000 cycles: 76872461 heartbeat IPC: 0.674498 cumulative IPC: 0.594031 (Simulation time: 1 hr 2 min 42 sec) 
Heartbeat CPU 0 instructions: 85000000 cycles: 78242394 heartbeat IPC: 0.729963 cumulative IPC: 0.597209 (Simulation time: 1 hr 3 min 25 sec) 
Heartbeat CPU 0 instructions: 86000000 cycles: 79737936 heartbeat IPC: 0.668654 cumulative IPC: 0.598987 (Simulation time: 1 hr 4 min 7 sec) 
Heartbeat CPU 0 instructions: 87000002 cycles: 81192425 heartbeat IPC: 0.687528 cumulative IPC: 0.601079 (Simulation time: 1 hr 4 min 49 sec) 
Heartbeat CPU 0 instructions: 88000000 cycles: 82572848 heartbeat IPC: 0.724414 cumulative IPC: 0.603784 (Simulation time: 1 hr 5 min 31 sec) 
Heartbeat CPU 0 instructions: 89000003 cycles: 83872773 heartbeat IPC: 0.769277 cumulative IPC: 0.607133 (Simulation time: 1 hr 6 min 14 sec) 
Heartbeat CPU 0 instructions: 90000002 cycles: 85301536 heartbeat IPC: 0.699905 cumulative IPC: 0.609151 (Simulation time: 1 hr 7 min 1 sec) 
Heartbeat CPU 0 instructions: 91000001 cycles: 86720433 heartbeat IPC: 0.704772 cumulative IPC: 0.611174 (Simulation time: 1 hr 7 min 51 sec) 
Heartbeat CPU 0 instructions: 92000000 cycles: 88090131 heartbeat IPC: 0.730087 cumulative IPC: 0.613553 (Simulation time: 1 hr 8 min 41 sec) 
Heartbeat CPU 0 instructions: 93000003 cycles: 89520865 heartbeat IPC: 0.698944 cumulative IPC: 0.615301 (Simulation time: 1 hr 9 min 34 sec) 
Heartbeat CPU 0 instructions: 94000003 cycles: 90920752 heartbeat IPC: 0.714343 cumulative IPC: 0.617246 (Simulation time: 1 hr 10 min 34 sec) 
Heartbeat CPU 0 instructions: 95000000 cycles: 92326541 heartbeat IPC: 0.711342 cumulative IPC: 0.619066 (Simulation time: 1 hr 11 min 30 sec) 
Heartbeat CPU 0 instructions: 96000000 cycles: 93803035 heartbeat IPC: 0.67728 cumulative IPC: 0.620225 (Simulation time: 1 hr 12 min 28 sec) 
Heartbeat CPU 0 instructions: 97000002 cycles: 95251767 heartbeat IPC: 0.69026 cumulative IPC: 0.621567 (Simulation time: 1 hr 13 min 22 sec) 
Heartbeat CPU 0 instructions: 98000001 cycles: 96684941 heartbeat IPC: 0.697751 cumulative IPC: 0.622984 (Simulation time: 1 hr 14 min 16 sec) 
Heartbeat CPU 0 instructions: 99000000 cycles: 98049162 heartbeat IPC: 0.733018 cumulative IPC: 0.624898 (Simulation time: 1 hr 15 min 7 sec) 
Heartbeat CPU 0 instructions: 100000000 cycles: 99490554 heartbeat IPC: 0.693774 cumulative IPC: 0.626142 (Simulation time: 1 hr 15 min 56 sec) 
Heartbeat CPU 0 instructions: 101000000 cycles: 100888126 heartbeat IPC: 0.715527 cumulative IPC: 0.627679 (Simulation time: 1 hr 16 min 47 sec) 
Heartbeat CPU 0 instructions: 102000000 cycles: 102310827 heartbeat IPC: 0.702888 cumulative IPC: 0.628973 (Simulation time: 1 hr 17 min 33 sec) 
Heartbeat CPU 0 instructions: 103000001 cycles: 103811655 heartbeat IPC: 0.6663 cumulative IPC: 0.629639 (Simulation time: 1 hr 18 min 23 sec) 
Heartbeat CPU 0 instructions: 104000000 cycles: 105206219 heartbeat IPC: 0.717069 cumulative IPC: 0.631064 (Simulation time: 1 hr 19 min 11 sec) 
Heartbeat CPU 0 instructions: 105000001 cycles: 106602951 heartbeat IPC: 0.715958 cumulative IPC: 0.632427 (Simulation time: 1 hr 19 min 58 sec) 
Heartbeat CPU 0 instructions: 106000000 cycles: 107923222 heartbeat IPC: 0.75742 cumulative IPC: 0.634296 (Simulation time: 1 hr 20 min 44 sec) 
Heartbeat CPU 0 instructions: 107000000 cycles: 109388095 heartbeat IPC: 0.682653 cumulative IPC: 0.635086 (Simulation time: 1 hr 21 min 32 sec) 
Heartbeat CPU 0 instructions: 108000000 cycles: 110817171 heartbeat IPC: 0.699753 cumulative IPC: 0.636099 (Simulation time: 1 hr 22 min 18 sec) 
Heartbeat CPU 0 instructions: 109000003 cycles: 112226191 heartbeat IPC: 0.709715 cumulative IPC: 0.637219 (Simulation time: 1 hr 23 min 2 sec) 
Heartbeat CPU 0 instructions: 110000001 cycles: 113700569 heartbeat IPC: 0.678251 cumulative IPC: 0.637863 (Simulation time: 1 hr 23 min 48 sec) 
Heartbeat CPU 0 instructions: 111000003 cycles: 115217786 heartbeat IPC: 0.659103 cumulative IPC: 0.6382 (Simulation time: 1 hr 24 min 34 sec) 
Heartbeat CPU 0 instructions: 112000000 cycles: 116632160 heartbeat IPC: 0.707024 cumulative IPC: 0.639203 (Simulation time: 1 hr 25 min 17 sec) 
Heartbeat CPU 0 instructions: 113000001 cycles: 118073214 heartbeat IPC: 0.693937 cumulative IPC: 0.640005 (Simulation time: 1 hr 25 min 59 sec) 
Heartbeat CPU 0 instructions: 114000001 cycles: 119596750 heartbeat IPC: 0.656368 cumulative IPC: 0.640254 (Simulation time: 1 hr 26 min 39 sec) 
Heartbeat CPU 0 instructions: 115000000 cycles: 121031076 heartbeat IPC: 0.697191 cumulative IPC: 0.641059 (Simulation time: 1 hr 27 min 17 sec) 
Heartbeat CPU 0 instructions: 116000000 cycles: 122520643 heartbeat IPC: 0.671336 cumulative IPC: 0.641498 (Simulation time: 1 hr 27 min 56 sec) 
Heartbeat CPU 0 instructions: 117000000 cycles: 124090935 heartbeat IPC: 0.636824 cumulative IPC: 0.641428 (Simulation time: 1 hr 28 min 36 sec) 
Heartbeat CPU 0 instructions: 118000002 cycles: 125546948 heartbeat IPC: 0.686808 cumulative IPC: 0.642051 (Simulation time: 1 hr 29 min 14 sec) 
Heartbeat CPU 0 instructions: 119000002 cycles: 126988534 heartbeat IPC: 0.69368 cumulative IPC: 0.642745 (Simulation time: 1 hr 29 min 50 sec) 
Heartbeat CPU 0 instructions: 120000000 cycles: 128546656 heartbeat IPC: 0.641797 cumulative IPC: 0.642731 (Simulation time: 1 hr 30 min 27 sec) 
Heartbeat CPU 0 instructions: 121000002 cycles: 130062780 heartbeat IPC: 0.659578 cumulative IPC: 0.642962 (Simulation time: 1 hr 31 min 4 sec) 
Heartbeat CPU 0 instructions: 122000002 cycles: 131454757 heartbeat IPC: 0.718403 cumulative IPC: 0.643902 (Simulation time: 1 hr 31 min 39 sec) 
Heartbeat CPU 0 instructions: 123000002 cycles: 132909880 heartbeat IPC: 0.687227 cumulative IPC: 0.644458 (Simulation time: 1 hr 32 min 17 sec) 
Heartbeat CPU 0 instructions: 124000000 cycles: 134495216 heartbeat IPC: 0.63078 cumulative IPC: 0.644269 (Simulation time: 1 hr 32 min 53 sec) 
Heartbeat CPU 0 instructions: 125000000 cycles: 135912861 heartbeat IPC: 0.705395 cumulative IPC: 0.645015 (Simulation time: 1 hr 33 min 27 sec) 
Heartbeat CPU 0 instructions: 126000002 cycles: 137358464 heartbeat IPC: 0.691754 cumulative IPC: 0.645589 (Simulation time: 1 hr 33 min 59 sec) 
Heartbeat CPU 0 instructions: 127000000 cycles: 138991800 heartbeat IPC: 0.612243 cumulative IPC: 0.645132 (Simulation time: 1 hr 34 min 32 sec) 
Heartbeat CPU 0 instructions: 128000000 cycles: 140378909 heartbeat IPC: 0.720924 cumulative IPC: 0.646003 (Simulation time: 1 hr 35 min 1 sec) 
Heartbeat CPU 0 instructions: 129000000 cycles: 141847443 heartbeat IPC: 0.680951 cumulative IPC: 0.646423 (Simulation time: 1 hr 35 min 31 sec) 
Heartbeat CPU 0 instructions: 130000000 cycles: 143482490 heartbeat IPC: 0.611603 cumulative IPC: 0.645963 (Simulation time: 1 hr 36 min 3 sec) 
Heartbeat CPU 0 instructions: 131000000 cycles: 144894150 heartbeat IPC: 0.708386 cumulative IPC: 0.646667 (Simulation time: 1 hr 36 min 32 sec) 
Heartbeat CPU 0 instructions: 132000000 cycles: 146333422 heartbeat IPC: 0.694796 cumulative IPC: 0.647213 (Simulation time: 1 hr 37 min 2 sec) 
Heartbeat CPU 0 instructions: 133000001 cycles: 148013057 heartbeat IPC: 0.595368 cumulative IPC: 0.646535 (Simulation time: 1 hr 37 min 32 sec) 
Heartbeat CPU 0 instructions: 134000000 cycles: 149390636 heartbeat IPC: 0.72591 cumulative IPC: 0.647378 (Simulation time: 1 hr 37 min 58 sec) 
Heartbeat CPU 0 instructions: 135000003 cycles: 150811999 heartbeat IPC: 0.703552 cumulative IPC: 0.647986 (Simulation time: 1 hr 38 min 25 sec) 
Heartbeat CPU 0 instructions: 136000000 cycles: 152485275 heartbeat IPC: 0.597628 cumulative IPC: 0.647352 (Simulation time: 1 hr 38 min 54 sec) 
Heartbeat CPU 0 instructions: 137000000 cycles: 153917016 heartbeat IPC: 0.69845 cumulative IPC: 0.647897 (Simulation time: 1 hr 39 min 18 sec) 
Heartbeat CPU 0 instructions: 138000003 cycles: 155407014 heartbeat IPC: 0.671144 cumulative IPC: 0.648152 (Simulation time: 1 hr 39 min 42 sec) 
Heartbeat CPU 0 instructions: 139000000 cycles: 157142178 heartbeat IPC: 0.576313 cumulative IPC: 0.647246 (Simulation time: 1 hr 40 min 7 sec) 
Heartbeat CPU 0 instructions: 140000000 cycles: 158635373 heartbeat IPC: 0.669705 cumulative IPC: 0.647487 (Simulation time: 1 hr 40 min 30 sec) 
Heartbeat CPU 0 instructions: 141000001 cycles: 160138145 heartbeat IPC: 0.665438 cumulative IPC: 0.647679 (Simulation time: 1 hr 40 min 51 sec) 
Heartbeat CPU 0 instructions: 142000003 cycles: 161867040 heartbeat IPC: 0.578405 cumulative IPC: 0.646837 (Simulation time: 1 hr 41 min 17 sec) 
Heartbeat CPU 0 instructions: 143000000 cycles: 163325168 heartbeat IPC: 0.685809 cumulative IPC: 0.647232 (Simulation time: 1 hr 41 min 40 sec) 
Heartbeat CPU 0 instructions: 144000000 cycles: 164809052 heartbeat IPC: 0.673907 cumulative IPC: 0.647505 (Simulation time: 1 hr 42 min 2 sec) 
Heartbeat CPU 0 instructions: 145000000 cycles: 166546260 heartbeat IPC: 0.575636 cumulative IPC: 0.646655 (Simulation time: 1 hr 42 min 28 sec) 
Heartbeat CPU 0 instructions: 146000003 cycles: 167978850 heartbeat IPC: 0.698039 cumulative IPC: 0.647151 (Simulation time: 1 hr 42 min 50 sec) 
Heartbeat CPU 0 instructions: 147000000 cycles: 169413036 heartbeat IPC: 0.697258 cumulative IPC: 0.647631 (Simulation time: 1 hr 43 min 11 sec) 
Heartbeat CPU 0 instructions: 148000000 cycles: 171139835 heartbeat IPC: 0.579106 cumulative IPC: 0.64685 (Simulation time: 1 hr 43 min 36 sec) 
Heartbeat CPU 0 instructions: 149000001 cycles: 172579064 heartbeat IPC: 0.694817 cumulative IPC: 0.647301 (Simulation time: 1 hr 43 min 57 sec) 
Heartbeat CPU 0 instructions: 150000000 cycles: 174063706 heartbeat IPC: 0.673562 cumulative IPC: 0.647554 (Simulation time: 1 hr 44 min 20 sec) 
Finished CPU 0 instructions: 100000003 cycles: 154427323 cummulative IPC: 0.647554 (Simulation time: 1 hr 44 min 20 sec) 

ChampSim completed all CPUs

Region of Interest Statistics

CPU 0 cummulative IPC: 0.647554 instructions: 100000003 cycles: 154427323
LLC TOTAL     ACCESS:    5978475  HIT:    1887987  MISS:    4090488
LLC LOAD      ACCESS:     435803  HIT:      18206  MISS:     417597
LLC RFO       ACCESS:    2551800  HIT:     664255  MISS:    1887545
LLC PREFETCH  ACCESS:     438771  HIT:      24447  MISS:     414324
LLC WRITEBACK ACCESS:    2552101  HIT:    1181079  MISS:    1371022
OPTgen accesses: 33594
OPTgen hits: 10860
OPTgen hit rate: 32.3272


