
*** ChampSim Multicore Out-of-Order Simulator ***

Warmup Instructions: 50000000
Simulation Instructions: 100000000
Configuration: 2
Number of CPUs: 1
LLC sets: 2048
LLC ways: 16
Off-chip DRAM Channels: 1 Width: 64-bit Data Rate: 1600 MT/s

CPU 0 runs /datasets/cs240c-wi22-a00-public/data/Assignment2-gz/calculix_3812B.trace.gz
CPU 0 L1D next line prefetcher
CPU 0 L2C IP-based stride prefetcher
Initialize Hawkeye state
Heartbeat CPU 0 instructions: 1000001 cycles: 478689 heartbeat IPC: 2.08904 cumulative IPC: 2.08904 (Simulation time: 0 hr 0 min 46 sec) 
Heartbeat CPU 0 instructions: 2000002 cycles: 956483 heartbeat IPC: 2.09295 cumulative IPC: 2.091 (Simulation time: 0 hr 1 min 30 sec) 
Heartbeat CPU 0 instructions: 3000002 cycles: 1434999 heartbeat IPC: 2.08979 cumulative IPC: 2.0906 (Simulation time: 0 hr 2 min 15 sec) 
Heartbeat CPU 0 instructions: 4000000 cycles: 1907482 heartbeat IPC: 2.11647 cumulative IPC: 2.09701 (Simulation time: 0 hr 3 min 0 sec) 
Heartbeat CPU 0 instructions: 5000000 cycles: 2356307 heartbeat IPC: 2.22804 cumulative IPC: 2.12196 (Simulation time: 0 hr 3 min 36 sec) 
Heartbeat CPU 0 instructions: 6000003 cycles: 2761688 heartbeat IPC: 2.46682 cumulative IPC: 2.17259 (Simulation time: 0 hr 4 min 6 sec) 
Heartbeat CPU 0 instructions: 7000002 cycles: 3154798 heartbeat IPC: 2.54381 cumulative IPC: 2.21884 (Simulation time: 0 hr 4 min 34 sec) 
Heartbeat CPU 0 instructions: 8000000 cycles: 3547939 heartbeat IPC: 2.54361 cumulative IPC: 2.25483 (Simulation time: 0 hr 5 min 1 sec) 
Heartbeat CPU 0 instructions: 9000000 cycles: 3940928 heartbeat IPC: 2.5446 cumulative IPC: 2.28373 (Simulation time: 0 hr 5 min 30 sec) 
Heartbeat CPU 0 instructions: 10000003 cycles: 4334017 heartbeat IPC: 2.54396 cumulative IPC: 2.30733 (Simulation time: 0 hr 5 min 59 sec) 
Heartbeat CPU 0 instructions: 11000000 cycles: 4726964 heartbeat IPC: 2.54486 cumulative IPC: 2.32708 (Simulation time: 0 hr 6 min 25 sec) 
Heartbeat CPU 0 instructions: 12000000 cycles: 5120150 heartbeat IPC: 2.54333 cumulative IPC: 2.34368 (Simulation time: 0 hr 6 min 50 sec) 
Heartbeat CPU 0 instructions: 13000003 cycles: 5513237 heartbeat IPC: 2.54397 cumulative IPC: 2.35796 (Simulation time: 0 hr 7 min 19 sec) 
Heartbeat CPU 0 instructions: 14000001 cycles: 5942143 heartbeat IPC: 2.33151 cumulative IPC: 2.35605 (Simulation time: 0 hr 7 min 56 sec) 
Heartbeat CPU 0 instructions: 15000000 cycles: 6335382 heartbeat IPC: 2.54298 cumulative IPC: 2.36766 (Simulation time: 0 hr 8 min 24 sec) 
Heartbeat CPU 0 instructions: 16000000 cycles: 6728574 heartbeat IPC: 2.54329 cumulative IPC: 2.37792 (Simulation time: 0 hr 8 min 51 sec) 
Heartbeat CPU 0 instructions: 17000002 cycles: 7121750 heartbeat IPC: 2.5434 cumulative IPC: 2.38705 (Simulation time: 0 hr 9 min 19 sec) 
Heartbeat CPU 0 instructions: 18000001 cycles: 7515077 heartbeat IPC: 2.54241 cumulative IPC: 2.39519 (Simulation time: 0 hr 9 min 49 sec) 
Heartbeat CPU 0 instructions: 19000001 cycles: 7908294 heartbeat IPC: 2.54313 cumulative IPC: 2.40254 (Simulation time: 0 hr 10 min 16 sec) 
Heartbeat CPU 0 instructions: 20000000 cycles: 8301268 heartbeat IPC: 2.5447 cumulative IPC: 2.40927 (Simulation time: 0 hr 10 min 46 sec) 
Heartbeat CPU 0 instructions: 21000000 cycles: 8694479 heartbeat IPC: 2.54316 cumulative IPC: 2.41533 (Simulation time: 0 hr 11 min 16 sec) 
Heartbeat CPU 0 instructions: 22000003 cycles: 9087728 heartbeat IPC: 2.54293 cumulative IPC: 2.42085 (Simulation time: 0 hr 11 min 45 sec) 
Heartbeat CPU 0 instructions: 23000002 cycles: 9480995 heartbeat IPC: 2.5428 cumulative IPC: 2.42591 (Simulation time: 0 hr 12 min 15 sec) 
Heartbeat CPU 0 instructions: 24000000 cycles: 9874253 heartbeat IPC: 2.54285 cumulative IPC: 2.43056 (Simulation time: 0 hr 12 min 43 sec) 
Heartbeat CPU 0 instructions: 25000003 cycles: 10262723 heartbeat IPC: 2.57421 cumulative IPC: 2.436 (Simulation time: 0 hr 13 min 14 sec) 
Heartbeat CPU 0 instructions: 26000003 cycles: 10649332 heartbeat IPC: 2.58659 cumulative IPC: 2.44147 (Simulation time: 0 hr 13 min 46 sec) 
Heartbeat CPU 0 instructions: 27000000 cycles: 11035434 heartbeat IPC: 2.58998 cumulative IPC: 2.44666 (Simulation time: 0 hr 14 min 18 sec) 
Heartbeat CPU 0 instructions: 28000000 cycles: 11422756 heartbeat IPC: 2.58183 cumulative IPC: 2.45125 (Simulation time: 0 hr 14 min 51 sec) 
Heartbeat CPU 0 instructions: 29000003 cycles: 11815304 heartbeat IPC: 2.54747 cumulative IPC: 2.45444 (Simulation time: 0 hr 15 min 23 sec) 
Heartbeat CPU 0 instructions: 30000001 cycles: 12202094 heartbeat IPC: 2.58538 cumulative IPC: 2.45859 (Simulation time: 0 hr 15 min 55 sec) 
Heartbeat CPU 0 instructions: 31000001 cycles: 12567509 heartbeat IPC: 2.73661 cumulative IPC: 2.46668 (Simulation time: 0 hr 16 min 27 sec) 
Heartbeat CPU 0 instructions: 32000000 cycles: 13033830 heartbeat IPC: 2.14444 cumulative IPC: 2.45515 (Simulation time: 0 hr 17 min 8 sec) 
Heartbeat CPU 0 instructions: 33000003 cycles: 13513411 heartbeat IPC: 2.08516 cumulative IPC: 2.44202 (Simulation time: 0 hr 17 min 49 sec) 
Heartbeat CPU 0 instructions: 34000000 cycles: 13993161 heartbeat IPC: 2.08441 cumulative IPC: 2.42976 (Simulation time: 0 hr 18 min 30 sec) 
Heartbeat CPU 0 instructions: 35000000 cycles: 14471852 heartbeat IPC: 2.08903 cumulative IPC: 2.41849 (Simulation time: 0 hr 19 min 9 sec) 
Heartbeat CPU 0 instructions: 36000000 cycles: 14948720 heartbeat IPC: 2.09702 cumulative IPC: 2.40823 (Simulation time: 0 hr 19 min 50 sec) 
Heartbeat CPU 0 instructions: 37000003 cycles: 15427171 heartbeat IPC: 2.09008 cumulative IPC: 2.39837 (Simulation time: 0 hr 20 min 29 sec) 
Heartbeat CPU 0 instructions: 38000003 cycles: 15900976 heartbeat IPC: 2.11057 cumulative IPC: 2.38979 (Simulation time: 0 hr 21 min 8 sec) 
Heartbeat CPU 0 instructions: 39000001 cycles: 16324330 heartbeat IPC: 2.36208 cumulative IPC: 2.38907 (Simulation time: 0 hr 21 min 43 sec) 
Heartbeat CPU 0 instructions: 40000000 cycles: 16759421 heartbeat IPC: 2.29837 cumulative IPC: 2.38672 (Simulation time: 0 hr 22 min 19 sec) 
Heartbeat CPU 0 instructions: 41000002 cycles: 17202704 heartbeat IPC: 2.2559 cumulative IPC: 2.38335 (Simulation time: 0 hr 22 min 54 sec) 
Heartbeat CPU 0 instructions: 42000003 cycles: 17578924 heartbeat IPC: 2.65802 cumulative IPC: 2.38923 (Simulation time: 0 hr 23 min 30 sec) 
Heartbeat CPU 0 instructions: 43000000 cycles: 17974088 heartbeat IPC: 2.53059 cumulative IPC: 2.39233 (Simulation time: 0 hr 24 min 8 sec) 
Heartbeat CPU 0 instructions: 44000000 cycles: 18451875 heartbeat IPC: 2.09298 cumulative IPC: 2.38458 (Simulation time: 0 hr 24 min 50 sec) 
Heartbeat CPU 0 instructions: 45000002 cycles: 18927214 heartbeat IPC: 2.10377 cumulative IPC: 2.37753 (Simulation time: 0 hr 25 min 30 sec) 
Heartbeat CPU 0 instructions: 46000002 cycles: 19405118 heartbeat IPC: 2.09247 cumulative IPC: 2.37051 (Simulation time: 0 hr 26 min 8 sec) 
Heartbeat CPU 0 instructions: 47000002 cycles: 19841087 heartbeat IPC: 2.29374 cumulative IPC: 2.36882 (Simulation time: 0 hr 26 min 40 sec) 
Heartbeat CPU 0 instructions: 48000000 cycles: 20235001 heartbeat IPC: 2.53862 cumulative IPC: 2.37213 (Simulation time: 0 hr 27 min 7 sec) 
Heartbeat CPU 0 instructions: 49000001 cycles: 20628494 heartbeat IPC: 2.54134 cumulative IPC: 2.37536 (Simulation time: 0 hr 27 min 35 sec) 
Heartbeat CPU 0 instructions: 50000000 cycles: 21023589 heartbeat IPC: 2.53103 cumulative IPC: 2.37828 (Simulation time: 0 hr 28 min 2 sec) 

Warmup complete CPU 0 instructions: 50000004 cycles: 21023590 (Simulation time: 0 hr 28 min 2 sec) 

Heartbeat CPU 0 instructions: 51000000 cycles: 21620319 heartbeat IPC: 1.6758 cumulative IPC: 1.6758 (Simulation time: 0 hr 28 min 37 sec) 
Heartbeat CPU 0 instructions: 52000000 cycles: 22210871 heartbeat IPC: 1.69333 cumulative IPC: 1.68452 (Simulation time: 0 hr 29 min 12 sec) 
Heartbeat CPU 0 instructions: 53000000 cycles: 22657226 heartbeat IPC: 2.24037 cumulative IPC: 1.83639 (Simulation time: 0 hr 29 min 46 sec) 
Heartbeat CPU 0 instructions: 54000003 cycles: 23100314 heartbeat IPC: 2.25689 cumulative IPC: 1.92611 (Simulation time: 0 hr 30 min 17 sec) 
Heartbeat CPU 0 instructions: 55000001 cycles: 23539846 heartbeat IPC: 2.27514 cumulative IPC: 1.98708 (Simulation time: 0 hr 30 min 50 sec) 
Heartbeat CPU 0 instructions: 56000000 cycles: 23979706 heartbeat IPC: 2.27345 cumulative IPC: 2.02969 (Simulation time: 0 hr 31 min 31 sec) 
Heartbeat CPU 0 instructions: 57000003 cycles: 24420347 heartbeat IPC: 2.26943 cumulative IPC: 2.06079 (Simulation time: 0 hr 32 min 13 sec) 
Heartbeat CPU 0 instructions: 58000000 cycles: 24882848 heartbeat IPC: 2.16215 cumulative IPC: 2.07294 (Simulation time: 0 hr 32 min 54 sec) 
Heartbeat CPU 0 instructions: 59000001 cycles: 25472241 heartbeat IPC: 1.69666 cumulative IPC: 2.02308 (Simulation time: 0 hr 33 min 32 sec) 
Heartbeat CPU 0 instructions: 60000000 cycles: 25908850 heartbeat IPC: 2.29038 cumulative IPC: 2.04697 (Simulation time: 0 hr 34 min 14 sec) 
Heartbeat CPU 0 instructions: 61000003 cycles: 26346533 heartbeat IPC: 2.28477 cumulative IPC: 2.06653 (Simulation time: 0 hr 34 min 52 sec) 
Heartbeat CPU 0 instructions: 62000002 cycles: 26783585 heartbeat IPC: 2.28805 cumulative IPC: 2.08333 (Simulation time: 0 hr 35 min 34 sec) 
Heartbeat CPU 0 instructions: 63000003 cycles: 27221704 heartbeat IPC: 2.28249 cumulative IPC: 2.09741 (Simulation time: 0 hr 36 min 14 sec) 
Heartbeat CPU 0 instructions: 64000000 cycles: 27659211 heartbeat IPC: 2.28567 cumulative IPC: 2.10982 (Simulation time: 0 hr 36 min 52 sec) 
Heartbeat CPU 0 instructions: 65000000 cycles: 28288442 heartbeat IPC: 1.58924 cumulative IPC: 2.06474 (Simulation time: 0 hr 37 min 32 sec) 
Heartbeat CPU 0 instructions: 66000002 cycles: 28849829 heartbeat IPC: 1.78131 cumulative IPC: 2.0444 (Simulation time: 0 hr 38 min 11 sec) 
Heartbeat CPU 0 instructions: 67000002 cycles: 29287635 heartbeat IPC: 2.28412 cumulative IPC: 2.0571 (Simulation time: 0 hr 38 min 46 sec) 
Heartbeat CPU 0 instructions: 68000000 cycles: 29724039 heartbeat IPC: 2.29145 cumulative IPC: 2.06886 (Simulation time: 0 hr 39 min 23 sec) 
Heartbeat CPU 0 instructions: 69000001 cycles: 30275028 heartbeat IPC: 1.81492 cumulative IPC: 2.05373 (Simulation time: 0 hr 39 min 58 sec) 
Heartbeat CPU 0 instructions: 70000000 cycles: 30713557 heartbeat IPC: 2.28035 cumulative IPC: 2.06399 (Simulation time: 0 hr 40 min 36 sec) 
Heartbeat CPU 0 instructions: 71000000 cycles: 31154045 heartbeat IPC: 2.27021 cumulative IPC: 2.07296 (Simulation time: 0 hr 41 min 15 sec) 
Heartbeat CPU 0 instructions: 72000000 cycles: 31635832 heartbeat IPC: 2.07561 cumulative IPC: 2.07308 (Simulation time: 0 hr 41 min 54 sec) 
Heartbeat CPU 0 instructions: 73000001 cycles: 32199626 heartbeat IPC: 1.7737 cumulative IPC: 2.05797 (Simulation time: 0 hr 42 min 29 sec) 
Heartbeat CPU 0 instructions: 74000002 cycles: 32845626 heartbeat IPC: 1.54799 cumulative IPC: 2.03011 (Simulation time: 0 hr 43 min 9 sec) 
Heartbeat CPU 0 instructions: 75000000 cycles: 33397320 heartbeat IPC: 1.8126 cumulative IPC: 2.02041 (Simulation time: 0 hr 43 min 42 sec) 
Heartbeat CPU 0 instructions: 76000000 cycles: 34142618 heartbeat IPC: 1.34175 cumulative IPC: 1.98185 (Simulation time: 0 hr 44 min 21 sec) 
Heartbeat CPU 0 instructions: 77000000 cycles: 34863581 heartbeat IPC: 1.38703 cumulative IPC: 1.95087 (Simulation time: 0 hr 45 min 2 sec) 
Heartbeat CPU 0 instructions: 78000003 cycles: 35582357 heartbeat IPC: 1.39126 cumulative IPC: 1.92324 (Simulation time: 0 hr 45 min 41 sec) 
Heartbeat CPU 0 instructions: 79000000 cycles: 36293258 heartbeat IPC: 1.40666 cumulative IPC: 1.89919 (Simulation time: 0 hr 46 min 21 sec) 
Heartbeat CPU 0 instructions: 80000000 cycles: 36978340 heartbeat IPC: 1.45968 cumulative IPC: 1.88032 (Simulation time: 0 hr 47 min 0 sec) 
Heartbeat CPU 0 instructions: 81000001 cycles: 37642672 heartbeat IPC: 1.50527 cumulative IPC: 1.86533 (Simulation time: 0 hr 47 min 39 sec) 
Heartbeat CPU 0 instructions: 82000002 cycles: 38285630 heartbeat IPC: 1.55531 cumulative IPC: 1.85378 (Simulation time: 0 hr 48 min 16 sec) 
Heartbeat CPU 0 instructions: 83000002 cycles: 39124731 heartbeat IPC: 1.19175 cumulative IPC: 1.82309 (Simulation time: 0 hr 48 min 54 sec) 
Heartbeat CPU 0 instructions: 84000000 cycles: 39713112 heartbeat IPC: 1.69958 cumulative IPC: 1.8192 (Simulation time: 0 hr 49 min 27 sec) 
Heartbeat CPU 0 instructions: 85000000 cycles: 40168205 heartbeat IPC: 2.19735 cumulative IPC: 1.82819 (Simulation time: 0 hr 49 min 58 sec) 
Heartbeat CPU 0 instructions: 86000001 cycles: 40620782 heartbeat IPC: 2.20957 cumulative IPC: 1.837 (Simulation time: 0 hr 50 min 29 sec) 
Heartbeat CPU 0 instructions: 87000002 cycles: 41076403 heartbeat IPC: 2.19481 cumulative IPC: 1.84513 (Simulation time: 0 hr 51 min 0 sec) 
Heartbeat CPU 0 instructions: 88000000 cycles: 41527451 heartbeat IPC: 2.21705 cumulative IPC: 1.85331 (Simulation time: 0 hr 51 min 30 sec) 
Heartbeat CPU 0 instructions: 89000003 cycles: 41976996 heartbeat IPC: 2.22448 cumulative IPC: 1.86127 (Simulation time: 0 hr 52 min 2 sec) 
Heartbeat CPU 0 instructions: 90000003 cycles: 42426969 heartbeat IPC: 2.22236 cumulative IPC: 1.86886 (Simulation time: 0 hr 52 min 33 sec) 
Heartbeat CPU 0 instructions: 91000001 cycles: 42890687 heartbeat IPC: 2.15648 cumulative IPC: 1.87496 (Simulation time: 0 hr 53 min 7 sec) 
Heartbeat CPU 0 instructions: 92000000 cycles: 43386477 heartbeat IPC: 2.01698 cumulative IPC: 1.87811 (Simulation time: 0 hr 53 min 40 sec) 
Heartbeat CPU 0 instructions: 93000000 cycles: 43832370 heartbeat IPC: 2.24269 cumulative IPC: 1.88524 (Simulation time: 0 hr 54 min 12 sec) 
Heartbeat CPU 0 instructions: 94000003 cycles: 44277510 heartbeat IPC: 2.24649 cumulative IPC: 1.89215 (Simulation time: 0 hr 54 min 45 sec) 
Heartbeat CPU 0 instructions: 95000001 cycles: 44907050 heartbeat IPC: 1.58846 cumulative IPC: 1.88415 (Simulation time: 0 hr 55 min 17 sec) 
Heartbeat CPU 0 instructions: 96000000 cycles: 45502507 heartbeat IPC: 1.67938 cumulative IPC: 1.87917 (Simulation time: 0 hr 55 min 49 sec) 
Heartbeat CPU 0 instructions: 97000000 cycles: 45942197 heartbeat IPC: 2.27433 cumulative IPC: 1.88614 (Simulation time: 0 hr 56 min 19 sec) 
Heartbeat CPU 0 instructions: 98000003 cycles: 46382437 heartbeat IPC: 2.2715 cumulative IPC: 1.89283 (Simulation time: 0 hr 56 min 50 sec) 
Heartbeat CPU 0 instructions: 99000000 cycles: 46822083 heartbeat IPC: 2.27455 cumulative IPC: 1.89934 (Simulation time: 0 hr 57 min 21 sec) 
Heartbeat CPU 0 instructions: 100000000 cycles: 47262282 heartbeat IPC: 2.2717 cumulative IPC: 1.90558 (Simulation time: 0 hr 57 min 52 sec) 
Heartbeat CPU 0 instructions: 101000003 cycles: 47701866 heartbeat IPC: 2.27488 cumulative IPC: 1.91167 (Simulation time: 0 hr 58 min 25 sec) 
Heartbeat CPU 0 instructions: 102000002 cycles: 48252871 heartbeat IPC: 1.81486 cumulative IPC: 1.90971 (Simulation time: 0 hr 58 min 57 sec) 
Heartbeat CPU 0 instructions: 103000000 cycles: 48689359 heartbeat IPC: 2.29101 cumulative IPC: 1.91572 (Simulation time: 0 hr 59 min 28 sec) 
Heartbeat CPU 0 instructions: 104000000 cycles: 49126386 heartbeat IPC: 2.28819 cumulative IPC: 1.92152 (Simulation time: 1 hr 0 min 0 sec) 
Heartbeat CPU 0 instructions: 105000000 cycles: 49563681 heartbeat IPC: 2.28679 cumulative IPC: 1.92711 (Simulation time: 1 hr 0 min 30 sec) 
Heartbeat CPU 0 instructions: 106000003 cycles: 50000601 heartbeat IPC: 2.28876 cumulative IPC: 1.93257 (Simulation time: 1 hr 1 min 0 sec) 
Heartbeat CPU 0 instructions: 107000003 cycles: 50438691 heartbeat IPC: 2.28264 cumulative IPC: 1.93778 (Simulation time: 1 hr 1 min 32 sec) 
Heartbeat CPU 0 instructions: 108000000 cycles: 50952152 heartbeat IPC: 1.94756 cumulative IPC: 1.93795 (Simulation time: 1 hr 2 min 3 sec) 
Heartbeat CPU 0 instructions: 109000002 cycles: 51602083 heartbeat IPC: 1.53863 cumulative IPC: 1.92946 (Simulation time: 1 hr 2 min 38 sec) 
Heartbeat CPU 0 instructions: 110000003 cycles: 52036794 heartbeat IPC: 2.30038 cumulative IPC: 1.93466 (Simulation time: 1 hr 3 min 7 sec) 
Heartbeat CPU 0 instructions: 111000001 cycles: 52472547 heartbeat IPC: 2.29487 cumulative IPC: 1.93965 (Simulation time: 1 hr 3 min 37 sec) 
Heartbeat CPU 0 instructions: 112000000 cycles: 52959950 heartbeat IPC: 2.05169 cumulative IPC: 1.94136 (Simulation time: 1 hr 4 min 8 sec) 
Heartbeat CPU 0 instructions: 113000003 cycles: 53430667 heartbeat IPC: 2.12443 cumulative IPC: 1.94402 (Simulation time: 1 hr 4 min 39 sec) 
Heartbeat CPU 0 instructions: 114000003 cycles: 53867426 heartbeat IPC: 2.28959 cumulative IPC: 1.94862 (Simulation time: 1 hr 5 min 10 sec) 
Heartbeat CPU 0 instructions: 115000002 cycles: 54302628 heartbeat IPC: 2.29778 cumulative IPC: 1.95318 (Simulation time: 1 hr 5 min 42 sec) 
Heartbeat CPU 0 instructions: 116000000 cycles: 54806473 heartbeat IPC: 1.98473 cumulative IPC: 1.95365 (Simulation time: 1 hr 6 min 13 sec) 
Heartbeat CPU 0 instructions: 117000000 cycles: 55362192 heartbeat IPC: 1.79947 cumulative IPC: 1.95116 (Simulation time: 1 hr 6 min 47 sec) 
Heartbeat CPU 0 instructions: 118000001 cycles: 55988189 heartbeat IPC: 1.59745 cumulative IPC: 1.94482 (Simulation time: 1 hr 7 min 21 sec) 
Heartbeat CPU 0 instructions: 119000003 cycles: 56734035 heartbeat IPC: 1.34076 cumulative IPC: 1.93221 (Simulation time: 1 hr 7 min 57 sec) 
Heartbeat CPU 0 instructions: 120000000 cycles: 57451018 heartbeat IPC: 1.39473 cumulative IPC: 1.92163 (Simulation time: 1 hr 8 min 34 sec) 
Heartbeat CPU 0 instructions: 121000001 cycles: 58166003 heartbeat IPC: 1.39863 cumulative IPC: 1.91156 (Simulation time: 1 hr 9 min 10 sec) 
Heartbeat CPU 0 instructions: 122000002 cycles: 58871822 heartbeat IPC: 1.4168 cumulative IPC: 1.90233 (Simulation time: 1 hr 9 min 45 sec) 
Heartbeat CPU 0 instructions: 123000002 cycles: 59554268 heartbeat IPC: 1.46532 cumulative IPC: 1.89459 (Simulation time: 1 hr 10 min 22 sec) 
Heartbeat CPU 0 instructions: 124000000 cycles: 60217771 heartbeat IPC: 1.50715 cumulative IPC: 1.88804 (Simulation time: 1 hr 10 min 59 sec) 
Heartbeat CPU 0 instructions: 125000002 cycles: 60865929 heartbeat IPC: 1.54284 cumulative IPC: 1.88242 (Simulation time: 1 hr 11 min 40 sec) 
Heartbeat CPU 0 instructions: 126000001 cycles: 61795156 heartbeat IPC: 1.07616 cumulative IPC: 1.86404 (Simulation time: 1 hr 12 min 19 sec) 
Heartbeat CPU 0 instructions: 127000003 cycles: 62374770 heartbeat IPC: 1.72529 cumulative IPC: 1.8621 (Simulation time: 1 hr 12 min 51 sec) 
Heartbeat CPU 0 instructions: 128000000 cycles: 62836282 heartbeat IPC: 2.16678 cumulative IPC: 1.86546 (Simulation time: 1 hr 13 min 18 sec) 
Heartbeat CPU 0 instructions: 129000002 cycles: 63291766 heartbeat IPC: 2.19547 cumulative IPC: 1.86902 (Simulation time: 1 hr 13 min 47 sec) 
Heartbeat CPU 0 instructions: 130000001 cycles: 63740393 heartbeat IPC: 2.22902 cumulative IPC: 1.8728 (Simulation time: 1 hr 14 min 16 sec) 
Heartbeat CPU 0 instructions: 131000000 cycles: 64188844 heartbeat IPC: 2.2299 cumulative IPC: 1.87651 (Simulation time: 1 hr 14 min 45 sec) 
Heartbeat CPU 0 instructions: 132000000 cycles: 64642437 heartbeat IPC: 2.20462 cumulative IPC: 1.87992 (Simulation time: 1 hr 15 min 14 sec) 
Heartbeat CPU 0 instructions: 133000000 cycles: 65097972 heartbeat IPC: 2.19522 cumulative IPC: 1.88318 (Simulation time: 1 hr 15 min 44 sec) 
Heartbeat CPU 0 instructions: 134000000 cycles: 65629662 heartbeat IPC: 1.8808 cumulative IPC: 1.88315 (Simulation time: 1 hr 16 min 14 sec) 
Heartbeat CPU 0 instructions: 135000003 cycles: 66123203 heartbeat IPC: 2.02618 cumulative IPC: 1.88472 (Simulation time: 1 hr 16 min 43 sec) 
Heartbeat CPU 0 instructions: 136000000 cycles: 66571035 heartbeat IPC: 2.23297 cumulative IPC: 1.88814 (Simulation time: 1 hr 17 min 14 sec) 
Heartbeat CPU 0 instructions: 137000002 cycles: 67022359 heartbeat IPC: 2.21571 cumulative IPC: 1.89135 (Simulation time: 1 hr 17 min 46 sec) 
Heartbeat CPU 0 instructions: 138000002 cycles: 67475337 heartbeat IPC: 2.20761 cumulative IPC: 1.89444 (Simulation time: 1 hr 18 min 20 sec) 
Heartbeat CPU 0 instructions: 139000000 cycles: 67931663 heartbeat IPC: 2.19141 cumulative IPC: 1.89733 (Simulation time: 1 hr 18 min 52 sec) 
Heartbeat CPU 0 instructions: 140000000 cycles: 68382989 heartbeat IPC: 2.21569 cumulative IPC: 1.90036 (Simulation time: 1 hr 19 min 23 sec) 
Heartbeat CPU 0 instructions: 141000000 cycles: 68835933 heartbeat IPC: 2.20778 cumulative IPC: 1.90327 (Simulation time: 1 hr 19 min 54 sec) 
Heartbeat CPU 0 instructions: 142000003 cycles: 69350575 heartbeat IPC: 1.9431 cumulative IPC: 1.9037 (Simulation time: 1 hr 20 min 24 sec) 
Heartbeat CPU 0 instructions: 143000002 cycles: 69793877 heartbeat IPC: 2.2558 cumulative IPC: 1.9069 (Simulation time: 1 hr 20 min 57 sec) 
Heartbeat CPU 0 instructions: 144000000 cycles: 70244787 heartbeat IPC: 2.21773 cumulative IPC: 1.90975 (Simulation time: 1 hr 21 min 27 sec) 
Heartbeat CPU 0 instructions: 145000001 cycles: 70901883 heartbeat IPC: 1.52185 cumulative IPC: 1.90464 (Simulation time: 1 hr 22 min 2 sec) 
Heartbeat CPU 0 instructions: 146000003 cycles: 71499577 heartbeat IPC: 1.6731 cumulative IPC: 1.90189 (Simulation time: 1 hr 22 min 33 sec) 
Heartbeat CPU 0 instructions: 147000002 cycles: 71938087 heartbeat IPC: 2.28045 cumulative IPC: 1.90515 (Simulation time: 1 hr 23 min 4 sec) 
Heartbeat CPU 0 instructions: 148000000 cycles: 72375416 heartbeat IPC: 2.2866 cumulative IPC: 1.9084 (Simulation time: 1 hr 23 min 34 sec) 
Heartbeat CPU 0 instructions: 149000002 cycles: 72814963 heartbeat IPC: 2.27507 cumulative IPC: 1.91152 (Simulation time: 1 hr 24 min 3 sec) 
Heartbeat CPU 0 instructions: 150000003 cycles: 73253167 heartbeat IPC: 2.28204 cumulative IPC: 1.91462 (Simulation time: 1 hr 24 min 32 sec) 
Finished CPU 0 instructions: 100000003 cycles: 52229578 cummulative IPC: 1.91462 (Simulation time: 1 hr 24 min 32 sec) 

ChampSim completed all CPUs

Region of Interest Statistics

CPU 0 cummulative IPC: 1.91462 instructions: 100000003 cycles: 52229578
LLC TOTAL     ACCESS:    1256071  HIT:    1178673  MISS:      77398
LLC LOAD      ACCESS:     149432  HIT:     140487  MISS:       8945
LLC RFO       ACCESS:      37525  HIT:      18661  MISS:      18864
LLC PREFETCH  ACCESS:     776770  HIT:     727487  MISS:      49283
LLC WRITEBACK ACCESS:     292344  HIT:     292038  MISS:        306
OPTgen accesses: 2796
OPTgen hits: 6668
OPTgen hit rate: 238.484


