
*** ChampSim Multicore Out-of-Order Simulator ***

Warmup Instructions: 50000000
Simulation Instructions: 100000000
Configuration: 2
Number of CPUs: 1
LLC sets: 2048
LLC ways: 16
Off-chip DRAM Channels: 1 Width: 64-bit Data Rate: 1600 MT/s

CPU 0 runs /datasets/cs240c-wi22-a00-public/data/Assignment2-gz/bzip2_281B.trace.gz
CPU 0 L1D next line prefetcher
CPU 0 L2C IP-based stride prefetcher
Initialize Hawkeye state
Heartbeat CPU 0 instructions: 1000000 cycles: 445877 heartbeat IPC: 2.24277 cumulative IPC: 2.24277 (Simulation time: 0 hr 0 min 41 sec) 
Heartbeat CPU 0 instructions: 2000003 cycles: 900175 heartbeat IPC: 2.20121 cumulative IPC: 2.22179 (Simulation time: 0 hr 1 min 21 sec) 
Heartbeat CPU 0 instructions: 3000002 cycles: 1315025 heartbeat IPC: 2.41051 cumulative IPC: 2.28133 (Simulation time: 0 hr 1 min 56 sec) 
Heartbeat CPU 0 instructions: 4000000 cycles: 1753524 heartbeat IPC: 2.2805 cumulative IPC: 2.28112 (Simulation time: 0 hr 2 min 31 sec) 
Heartbeat CPU 0 instructions: 5000002 cycles: 2175515 heartbeat IPC: 2.36972 cumulative IPC: 2.29831 (Simulation time: 0 hr 3 min 5 sec) 
Heartbeat CPU 0 instructions: 6000000 cycles: 2666164 heartbeat IPC: 2.03811 cumulative IPC: 2.25042 (Simulation time: 0 hr 3 min 43 sec) 
Heartbeat CPU 0 instructions: 7000001 cycles: 3193434 heartbeat IPC: 1.89656 cumulative IPC: 2.192 (Simulation time: 0 hr 4 min 23 sec) 
Heartbeat CPU 0 instructions: 8000000 cycles: 3726027 heartbeat IPC: 1.8776 cumulative IPC: 2.14706 (Simulation time: 0 hr 5 min 4 sec) 
Heartbeat CPU 0 instructions: 9000000 cycles: 4232443 heartbeat IPC: 1.97466 cumulative IPC: 2.12643 (Simulation time: 0 hr 5 min 41 sec) 
Heartbeat CPU 0 instructions: 10000002 cycles: 4685388 heartbeat IPC: 2.20778 cumulative IPC: 2.1343 (Simulation time: 0 hr 6 min 14 sec) 
Heartbeat CPU 0 instructions: 11000000 cycles: 5132820 heartbeat IPC: 2.23497 cumulative IPC: 2.14307 (Simulation time: 0 hr 6 min 46 sec) 
Heartbeat CPU 0 instructions: 12000000 cycles: 5613878 heartbeat IPC: 2.07875 cumulative IPC: 2.13756 (Simulation time: 0 hr 7 min 25 sec) 
Heartbeat CPU 0 instructions: 13000001 cycles: 6025294 heartbeat IPC: 2.43063 cumulative IPC: 2.15757 (Simulation time: 0 hr 8 min 0 sec) 
Heartbeat CPU 0 instructions: 14000003 cycles: 6483728 heartbeat IPC: 2.18134 cumulative IPC: 2.15925 (Simulation time: 0 hr 8 min 35 sec) 
Heartbeat CPU 0 instructions: 15000003 cycles: 6944100 heartbeat IPC: 2.17216 cumulative IPC: 2.16011 (Simulation time: 0 hr 9 min 9 sec) 
Heartbeat CPU 0 instructions: 16000000 cycles: 7340118 heartbeat IPC: 2.52513 cumulative IPC: 2.1798 (Simulation time: 0 hr 9 min 42 sec) 
Heartbeat CPU 0 instructions: 17000000 cycles: 7729327 heartbeat IPC: 2.56931 cumulative IPC: 2.19942 (Simulation time: 0 hr 10 min 14 sec) 
Heartbeat CPU 0 instructions: 18000002 cycles: 8185346 heartbeat IPC: 2.1929 cumulative IPC: 2.19905 (Simulation time: 0 hr 10 min 48 sec) 
Heartbeat CPU 0 instructions: 19000000 cycles: 8631279 heartbeat IPC: 2.24248 cumulative IPC: 2.2013 (Simulation time: 0 hr 11 min 22 sec) 
Heartbeat CPU 0 instructions: 20000000 cycles: 9076293 heartbeat IPC: 2.24712 cumulative IPC: 2.20354 (Simulation time: 0 hr 11 min 57 sec) 
Heartbeat CPU 0 instructions: 21000000 cycles: 9463381 heartbeat IPC: 2.58339 cumulative IPC: 2.21908 (Simulation time: 0 hr 12 min 31 sec) 
Heartbeat CPU 0 instructions: 22000003 cycles: 9839089 heartbeat IPC: 2.66165 cumulative IPC: 2.23598 (Simulation time: 0 hr 13 min 2 sec) 
Heartbeat CPU 0 instructions: 23000001 cycles: 10292061 heartbeat IPC: 2.20764 cumulative IPC: 2.23473 (Simulation time: 0 hr 13 min 37 sec) 
Heartbeat CPU 0 instructions: 24000000 cycles: 10746749 heartbeat IPC: 2.19931 cumulative IPC: 2.23323 (Simulation time: 0 hr 14 min 11 sec) 
Heartbeat CPU 0 instructions: 25000001 cycles: 11090244 heartbeat IPC: 2.91125 cumulative IPC: 2.25423 (Simulation time: 0 hr 14 min 43 sec) 
Heartbeat CPU 0 instructions: 26000003 cycles: 11527893 heartbeat IPC: 2.28494 cumulative IPC: 2.2554 (Simulation time: 0 hr 15 min 20 sec) 
Heartbeat CPU 0 instructions: 27000003 cycles: 12000525 heartbeat IPC: 2.11581 cumulative IPC: 2.2499 (Simulation time: 0 hr 15 min 53 sec) 
Heartbeat CPU 0 instructions: 28000000 cycles: 12327034 heartbeat IPC: 3.06269 cumulative IPC: 2.27143 (Simulation time: 0 hr 16 min 21 sec) 
Heartbeat CPU 0 instructions: 29000001 cycles: 12623911 heartbeat IPC: 3.3684 cumulative IPC: 2.29723 (Simulation time: 0 hr 16 min 48 sec) 
Heartbeat CPU 0 instructions: 30000000 cycles: 12920785 heartbeat IPC: 3.36843 cumulative IPC: 2.32184 (Simulation time: 0 hr 17 min 19 sec) 
Heartbeat CPU 0 instructions: 31000000 cycles: 13263168 heartbeat IPC: 2.92071 cumulative IPC: 2.3373 (Simulation time: 0 hr 17 min 49 sec) 
Heartbeat CPU 0 instructions: 32000000 cycles: 13609701 heartbeat IPC: 2.88573 cumulative IPC: 2.35126 (Simulation time: 0 hr 18 min 19 sec) 
Heartbeat CPU 0 instructions: 33000001 cycles: 13968217 heartbeat IPC: 2.78928 cumulative IPC: 2.36251 (Simulation time: 0 hr 18 min 48 sec) 
Heartbeat CPU 0 instructions: 34000001 cycles: 14311816 heartbeat IPC: 2.91037 cumulative IPC: 2.37566 (Simulation time: 0 hr 19 min 14 sec) 
Heartbeat CPU 0 instructions: 35000003 cycles: 14652905 heartbeat IPC: 2.93179 cumulative IPC: 2.38861 (Simulation time: 0 hr 19 min 41 sec) 
Heartbeat CPU 0 instructions: 36000000 cycles: 14991268 heartbeat IPC: 2.9554 cumulative IPC: 2.4014 (Simulation time: 0 hr 20 min 8 sec) 
Heartbeat CPU 0 instructions: 37000000 cycles: 15330386 heartbeat IPC: 2.94883 cumulative IPC: 2.41351 (Simulation time: 0 hr 20 min 35 sec) 
Heartbeat CPU 0 instructions: 38000002 cycles: 15672460 heartbeat IPC: 2.92335 cumulative IPC: 2.42464 (Simulation time: 0 hr 21 min 0 sec) 
Heartbeat CPU 0 instructions: 39000001 cycles: 16012168 heartbeat IPC: 2.9437 cumulative IPC: 2.43565 (Simulation time: 0 hr 21 min 28 sec) 
Heartbeat CPU 0 instructions: 40000000 cycles: 16368508 heartbeat IPC: 2.80631 cumulative IPC: 2.44372 (Simulation time: 0 hr 21 min 56 sec) 
Heartbeat CPU 0 instructions: 41000000 cycles: 16711980 heartbeat IPC: 2.91145 cumulative IPC: 2.45333 (Simulation time: 0 hr 22 min 23 sec) 
Heartbeat CPU 0 instructions: 42000002 cycles: 17053601 heartbeat IPC: 2.92723 cumulative IPC: 2.46282 (Simulation time: 0 hr 22 min 49 sec) 
Heartbeat CPU 0 instructions: 43000000 cycles: 17389643 heartbeat IPC: 2.97581 cumulative IPC: 2.47274 (Simulation time: 0 hr 23 min 17 sec) 
Heartbeat CPU 0 instructions: 44000000 cycles: 17730386 heartbeat IPC: 2.93476 cumulative IPC: 2.48162 (Simulation time: 0 hr 23 min 45 sec) 
Heartbeat CPU 0 instructions: 45000001 cycles: 18067160 heartbeat IPC: 2.96935 cumulative IPC: 2.49071 (Simulation time: 0 hr 24 min 13 sec) 
Heartbeat CPU 0 instructions: 46000000 cycles: 18420595 heartbeat IPC: 2.82937 cumulative IPC: 2.4972 (Simulation time: 0 hr 24 min 40 sec) 
Heartbeat CPU 0 instructions: 47000003 cycles: 18770258 heartbeat IPC: 2.85991 cumulative IPC: 2.50396 (Simulation time: 0 hr 25 min 3 sec) 
Heartbeat CPU 0 instructions: 48000000 cycles: 19120180 heartbeat IPC: 2.85777 cumulative IPC: 2.51044 (Simulation time: 0 hr 25 min 31 sec) 
Heartbeat CPU 0 instructions: 49000003 cycles: 19475576 heartbeat IPC: 2.81377 cumulative IPC: 2.51597 (Simulation time: 0 hr 26 min 2 sec) 
Heartbeat CPU 0 instructions: 50000003 cycles: 19823859 heartbeat IPC: 2.87123 cumulative IPC: 2.52221 (Simulation time: 0 hr 26 min 29 sec) 

Warmup complete CPU 0 instructions: 50000003 cycles: 19823859 (Simulation time: 0 hr 26 min 29 sec) 

Heartbeat CPU 0 instructions: 51000002 cycles: 20780964 heartbeat IPC: 1.04482 cumulative IPC: 1.04482 (Simulation time: 0 hr 27 min 2 sec) 
Heartbeat CPU 0 instructions: 52000000 cycles: 21746470 heartbeat IPC: 1.03572 cumulative IPC: 1.04025 (Simulation time: 0 hr 27 min 36 sec) 
Heartbeat CPU 0 instructions: 53000001 cycles: 22724646 heartbeat IPC: 1.02231 cumulative IPC: 1.0342 (Simulation time: 0 hr 28 min 8 sec) 
Heartbeat CPU 0 instructions: 54000003 cycles: 23705531 heartbeat IPC: 1.01949 cumulative IPC: 1.03048 (Simulation time: 0 hr 28 min 42 sec) 
Heartbeat CPU 0 instructions: 55000000 cycles: 24670164 heartbeat IPC: 1.03666 cumulative IPC: 1.03171 (Simulation time: 0 hr 29 min 17 sec) 
Heartbeat CPU 0 instructions: 56000000 cycles: 25646196 heartbeat IPC: 1.02456 cumulative IPC: 1.03051 (Simulation time: 0 hr 29 min 52 sec) 
Heartbeat CPU 0 instructions: 57000002 cycles: 26613771 heartbeat IPC: 1.03351 cumulative IPC: 1.03094 (Simulation time: 0 hr 30 min 26 sec) 
Heartbeat CPU 0 instructions: 58000003 cycles: 27586566 heartbeat IPC: 1.02797 cumulative IPC: 1.03057 (Simulation time: 0 hr 30 min 59 sec) 
Heartbeat CPU 0 instructions: 59000003 cycles: 28615306 heartbeat IPC: 0.972063 cumulative IPC: 1.02372 (Simulation time: 0 hr 31 min 34 sec) 
Heartbeat CPU 0 instructions: 60000000 cycles: 29823738 heartbeat IPC: 0.827516 cumulative IPC: 1.00001 (Simulation time: 0 hr 32 min 16 sec) 
Heartbeat CPU 0 instructions: 61000000 cycles: 31031093 heartbeat IPC: 0.828257 cumulative IPC: 0.981509 (Simulation time: 0 hr 32 min 57 sec) 
Heartbeat CPU 0 instructions: 62000003 cycles: 32255903 heartbeat IPC: 0.816456 cumulative IPC: 0.965248 (Simulation time: 0 hr 33 min 36 sec) 
Heartbeat CPU 0 instructions: 63000001 cycles: 33487725 heartbeat IPC: 0.811804 cumulative IPC: 0.951414 (Simulation time: 0 hr 34 min 16 sec) 
Heartbeat CPU 0 instructions: 64000000 cycles: 34808640 heartbeat IPC: 0.75705 cumulative IPC: 0.934281 (Simulation time: 0 hr 34 min 52 sec) 
Heartbeat CPU 0 instructions: 65000001 cycles: 36012694 heartbeat IPC: 0.830528 cumulative IPC: 0.926564 (Simulation time: 0 hr 35 min 34 sec) 
Heartbeat CPU 0 instructions: 66000003 cycles: 37214441 heartbeat IPC: 0.832124 cumulative IPC: 0.920038 (Simulation time: 0 hr 36 min 17 sec) 
Heartbeat CPU 0 instructions: 67000000 cycles: 38425608 heartbeat IPC: 0.825647 cumulative IPC: 0.913892 (Simulation time: 0 hr 36 min 58 sec) 
Heartbeat CPU 0 instructions: 68000000 cycles: 39739250 heartbeat IPC: 0.761242 cumulative IPC: 0.903823 (Simulation time: 0 hr 37 min 35 sec) 
Heartbeat CPU 0 instructions: 69000000 cycles: 40935707 heartbeat IPC: 0.835801 cumulative IPC: 0.899968 (Simulation time: 0 hr 38 min 19 sec) 
Heartbeat CPU 0 instructions: 70000002 cycles: 42137921 heartbeat IPC: 0.8318 cumulative IPC: 0.896296 (Simulation time: 0 hr 39 min 2 sec) 
Heartbeat CPU 0 instructions: 71000003 cycles: 43344551 heartbeat IPC: 0.828755 cumulative IPC: 0.892831 (Simulation time: 0 hr 39 min 44 sec) 
Heartbeat CPU 0 instructions: 72000000 cycles: 44552552 heartbeat IPC: 0.827811 cumulative IPC: 0.889655 (Simulation time: 0 hr 40 min 26 sec) 
Heartbeat CPU 0 instructions: 73000002 cycles: 45855947 heartbeat IPC: 0.767229 cumulative IPC: 0.883525 (Simulation time: 0 hr 41 min 5 sec) 
Heartbeat CPU 0 instructions: 74000000 cycles: 47055436 heartbeat IPC: 0.833687 cumulative IPC: 0.88133 (Simulation time: 0 hr 41 min 48 sec) 
Heartbeat CPU 0 instructions: 75000001 cycles: 48256825 heartbeat IPC: 0.832371 cumulative IPC: 0.879261 (Simulation time: 0 hr 42 min 32 sec) 
Heartbeat CPU 0 instructions: 76000000 cycles: 49466122 heartbeat IPC: 0.826926 cumulative IPC: 0.877126 (Simulation time: 0 hr 43 min 14 sec) 
Heartbeat CPU 0 instructions: 77000001 cycles: 50723226 heartbeat IPC: 0.79548 cumulative IPC: 0.873804 (Simulation time: 0 hr 43 min 56 sec) 
Heartbeat CPU 0 instructions: 78000003 cycles: 51889280 heartbeat IPC: 0.857595 cumulative IPC: 0.873215 (Simulation time: 0 hr 44 min 26 sec) 
Heartbeat CPU 0 instructions: 79000000 cycles: 52808161 heartbeat IPC: 1.08828 cumulative IPC: 0.879206 (Simulation time: 0 hr 44 min 59 sec) 
Heartbeat CPU 0 instructions: 80000000 cycles: 53711610 heartbeat IPC: 1.10687 cumulative IPC: 0.885276 (Simulation time: 0 hr 45 min 31 sec) 
Heartbeat CPU 0 instructions: 81000000 cycles: 54557350 heartbeat IPC: 1.1824 cumulative IPC: 0.89251 (Simulation time: 0 hr 46 min 4 sec) 
Heartbeat CPU 0 instructions: 82000001 cycles: 55449184 heartbeat IPC: 1.12129 cumulative IPC: 0.898237 (Simulation time: 0 hr 46 min 36 sec) 
Heartbeat CPU 0 instructions: 83000000 cycles: 56373259 heartbeat IPC: 1.08216 cumulative IPC: 0.902888 (Simulation time: 0 hr 47 min 8 sec) 
Heartbeat CPU 0 instructions: 84000000 cycles: 57289944 heartbeat IPC: 1.09089 cumulative IPC: 0.907487 (Simulation time: 0 hr 47 min 39 sec) 
Heartbeat CPU 0 instructions: 85000002 cycles: 58225104 heartbeat IPC: 1.06934 cumulative IPC: 0.911429 (Simulation time: 0 hr 48 min 21 sec) 
Heartbeat CPU 0 instructions: 86000002 cycles: 59154127 heartbeat IPC: 1.0764 cumulative IPC: 0.915326 (Simulation time: 0 hr 49 min 4 sec) 
Heartbeat CPU 0 instructions: 87000002 cycles: 60083136 heartbeat IPC: 1.07642 cumulative IPC: 0.919043 (Simulation time: 0 hr 49 min 49 sec) 
Heartbeat CPU 0 instructions: 88000000 cycles: 61131357 heartbeat IPC: 0.953995 cumulative IPC: 0.91993 (Simulation time: 0 hr 50 min 33 sec) 
Heartbeat CPU 0 instructions: 89000002 cycles: 62224444 heartbeat IPC: 0.914842 cumulative IPC: 0.919799 (Simulation time: 0 hr 51 min 13 sec) 
Heartbeat CPU 0 instructions: 90000001 cycles: 63313100 heartbeat IPC: 0.918563 cumulative IPC: 0.919768 (Simulation time: 0 hr 51 min 53 sec) 
Heartbeat CPU 0 instructions: 91000001 cycles: 64408166 heartbeat IPC: 0.913187 cumulative IPC: 0.919606 (Simulation time: 0 hr 52 min 33 sec) 
Heartbeat CPU 0 instructions: 92000000 cycles: 65494318 heartbeat IPC: 0.920681 cumulative IPC: 0.919632 (Simulation time: 0 hr 53 min 16 sec) 
Heartbeat CPU 0 instructions: 93000001 cycles: 66577196 heartbeat IPC: 0.923466 cumulative IPC: 0.91972 (Simulation time: 0 hr 53 min 56 sec) 
Heartbeat CPU 0 instructions: 94000001 cycles: 67657331 heartbeat IPC: 0.92581 cumulative IPC: 0.919858 (Simulation time: 0 hr 54 min 38 sec) 
Heartbeat CPU 0 instructions: 95000000 cycles: 68742492 heartbeat IPC: 0.921521 cumulative IPC: 0.919895 (Simulation time: 0 hr 55 min 18 sec) 
Heartbeat CPU 0 instructions: 96000000 cycles: 69823047 heartbeat IPC: 0.92545 cumulative IPC: 0.920015 (Simulation time: 0 hr 55 min 59 sec) 
Heartbeat CPU 0 instructions: 97000002 cycles: 70905676 heartbeat IPC: 0.923679 cumulative IPC: 0.920093 (Simulation time: 0 hr 56 min 39 sec) 
Heartbeat CPU 0 instructions: 98000002 cycles: 71988239 heartbeat IPC: 0.923734 cumulative IPC: 0.920168 (Simulation time: 0 hr 57 min 20 sec) 
Heartbeat CPU 0 instructions: 99000000 cycles: 73071998 heartbeat IPC: 0.922713 cumulative IPC: 0.92022 (Simulation time: 0 hr 58 min 2 sec) 
Heartbeat CPU 0 instructions: 100000000 cycles: 74158026 heartbeat IPC: 0.920787 cumulative IPC: 0.920231 (Simulation time: 0 hr 58 min 40 sec) 
Heartbeat CPU 0 instructions: 101000000 cycles: 75245740 heartbeat IPC: 0.919359 cumulative IPC: 0.920214 (Simulation time: 0 hr 59 min 22 sec) 
Heartbeat CPU 0 instructions: 102000000 cycles: 76337540 heartbeat IPC: 0.915919 cumulative IPC: 0.920131 (Simulation time: 1 hr 0 min 6 sec) 
Heartbeat CPU 0 instructions: 103000002 cycles: 77427921 heartbeat IPC: 0.917112 cumulative IPC: 0.920074 (Simulation time: 1 hr 0 min 45 sec) 
Heartbeat CPU 0 instructions: 104000000 cycles: 78519135 heartbeat IPC: 0.916409 cumulative IPC: 0.920006 (Simulation time: 1 hr 1 min 27 sec) 
Heartbeat CPU 0 instructions: 105000003 cycles: 79613693 heartbeat IPC: 0.913614 cumulative IPC: 0.919889 (Simulation time: 1 hr 2 min 10 sec) 
Heartbeat CPU 0 instructions: 106000002 cycles: 80712212 heartbeat IPC: 0.910316 cumulative IPC: 0.919716 (Simulation time: 1 hr 2 min 52 sec) 
Heartbeat CPU 0 instructions: 107000001 cycles: 81797407 heartbeat IPC: 0.921492 cumulative IPC: 0.919747 (Simulation time: 1 hr 3 min 33 sec) 
Heartbeat CPU 0 instructions: 108000000 cycles: 82893365 heartbeat IPC: 0.912443 cumulative IPC: 0.91962 (Simulation time: 1 hr 4 min 15 sec) 
Heartbeat CPU 0 instructions: 109000001 cycles: 83990539 heartbeat IPC: 0.911433 cumulative IPC: 0.91948 (Simulation time: 1 hr 4 min 57 sec) 
Heartbeat CPU 0 instructions: 110000002 cycles: 85090095 heartbeat IPC: 0.909459 cumulative IPC: 0.919311 (Simulation time: 1 hr 5 min 40 sec) 
Heartbeat CPU 0 instructions: 111000000 cycles: 86178439 heartbeat IPC: 0.918825 cumulative IPC: 0.919303 (Simulation time: 1 hr 6 min 22 sec) 
Heartbeat CPU 0 instructions: 112000000 cycles: 87270525 heartbeat IPC: 0.915679 cumulative IPC: 0.919245 (Simulation time: 1 hr 7 min 4 sec) 
Heartbeat CPU 0 instructions: 113000002 cycles: 88362629 heartbeat IPC: 0.915666 cumulative IPC: 0.919188 (Simulation time: 1 hr 7 min 43 sec) 
Heartbeat CPU 0 instructions: 114000001 cycles: 89459027 heartbeat IPC: 0.912077 cumulative IPC: 0.919076 (Simulation time: 1 hr 8 min 21 sec) 
Heartbeat CPU 0 instructions: 115000001 cycles: 90547168 heartbeat IPC: 0.918999 cumulative IPC: 0.919075 (Simulation time: 1 hr 9 min 0 sec) 
Heartbeat CPU 0 instructions: 116000000 cycles: 91637495 heartbeat IPC: 0.917155 cumulative IPC: 0.919045 (Simulation time: 1 hr 9 min 39 sec) 
Heartbeat CPU 0 instructions: 117000001 cycles: 92729741 heartbeat IPC: 0.915546 cumulative IPC: 0.918993 (Simulation time: 1 hr 10 min 18 sec) 
Heartbeat CPU 0 instructions: 118000000 cycles: 93820306 heartbeat IPC: 0.916955 cumulative IPC: 0.918963 (Simulation time: 1 hr 11 min 0 sec) 
Heartbeat CPU 0 instructions: 119000000 cycles: 94915154 heartbeat IPC: 0.913369 cumulative IPC: 0.918881 (Simulation time: 1 hr 11 min 40 sec) 
Heartbeat CPU 0 instructions: 120000000 cycles: 96008476 heartbeat IPC: 0.914644 cumulative IPC: 0.918821 (Simulation time: 1 hr 12 min 21 sec) 
Heartbeat CPU 0 instructions: 121000000 cycles: 97099392 heartbeat IPC: 0.916661 cumulative IPC: 0.91879 (Simulation time: 1 hr 13 min 0 sec) 
Heartbeat CPU 0 instructions: 122000000 cycles: 98197098 heartbeat IPC: 0.910991 cumulative IPC: 0.918681 (Simulation time: 1 hr 13 min 41 sec) 
Heartbeat CPU 0 instructions: 123000001 cycles: 99294971 heartbeat IPC: 0.910853 cumulative IPC: 0.918573 (Simulation time: 1 hr 14 min 23 sec) 
Heartbeat CPU 0 instructions: 124000000 cycles: 100397161 heartbeat IPC: 0.907284 cumulative IPC: 0.918418 (Simulation time: 1 hr 15 min 3 sec) 
Heartbeat CPU 0 instructions: 125000002 cycles: 101491950 heartbeat IPC: 0.91342 cumulative IPC: 0.918351 (Simulation time: 1 hr 15 min 41 sec) 
Heartbeat CPU 0 instructions: 126000002 cycles: 102584468 heartbeat IPC: 0.915317 cumulative IPC: 0.918311 (Simulation time: 1 hr 16 min 21 sec) 
Heartbeat CPU 0 instructions: 127000003 cycles: 103675777 heartbeat IPC: 0.916332 cumulative IPC: 0.918285 (Simulation time: 1 hr 17 min 1 sec) 
Heartbeat CPU 0 instructions: 128000000 cycles: 104765696 heartbeat IPC: 0.917497 cumulative IPC: 0.918275 (Simulation time: 1 hr 17 min 47 sec) 
Heartbeat CPU 0 instructions: 129000001 cycles: 105853744 heartbeat IPC: 0.919078 cumulative IPC: 0.918286 (Simulation time: 1 hr 18 min 34 sec) 
Heartbeat CPU 0 instructions: 130000001 cycles: 106943115 heartbeat IPC: 0.917961 cumulative IPC: 0.918281 (Simulation time: 1 hr 19 min 17 sec) 
Heartbeat CPU 0 instructions: 131000001 cycles: 108033827 heartbeat IPC: 0.916832 cumulative IPC: 0.918264 (Simulation time: 1 hr 20 min 2 sec) 
Heartbeat CPU 0 instructions: 132000000 cycles: 109126251 heartbeat IPC: 0.915395 cumulative IPC: 0.918228 (Simulation time: 1 hr 20 min 51 sec) 
Heartbeat CPU 0 instructions: 133000002 cycles: 110234659 heartbeat IPC: 0.902197 cumulative IPC: 0.918032 (Simulation time: 1 hr 21 min 39 sec) 
Heartbeat CPU 0 instructions: 134000000 cycles: 111330880 heartbeat IPC: 0.912223 cumulative IPC: 0.917962 (Simulation time: 1 hr 22 min 28 sec) 
Heartbeat CPU 0 instructions: 135000003 cycles: 112431311 heartbeat IPC: 0.908738 cumulative IPC: 0.917853 (Simulation time: 1 hr 23 min 13 sec) 
Heartbeat CPU 0 instructions: 136000000 cycles: 113532887 heartbeat IPC: 0.907788 cumulative IPC: 0.917734 (Simulation time: 1 hr 23 min 55 sec) 
Heartbeat CPU 0 instructions: 137000001 cycles: 114632623 heartbeat IPC: 0.90931 cumulative IPC: 0.917637 (Simulation time: 1 hr 24 min 38 sec) 
Heartbeat CPU 0 instructions: 138000000 cycles: 115752281 heartbeat IPC: 0.893129 cumulative IPC: 0.917351 (Simulation time: 1 hr 25 min 17 sec) 
Heartbeat CPU 0 instructions: 139000002 cycles: 116408916 heartbeat IPC: 1.52292 cumulative IPC: 0.921468 (Simulation time: 1 hr 25 min 53 sec) 
Heartbeat CPU 0 instructions: 140000000 cycles: 117056876 heartbeat IPC: 1.5433 cumulative IPC: 0.925611 (Simulation time: 1 hr 26 min 28 sec) 
Heartbeat CPU 0 instructions: 141000000 cycles: 117692145 heartbeat IPC: 1.57414 cumulative IPC: 0.929821 (Simulation time: 1 hr 27 min 3 sec) 
Heartbeat CPU 0 instructions: 142000002 cycles: 118325449 heartbeat IPC: 1.57902 cumulative IPC: 0.933995 (Simulation time: 1 hr 27 min 41 sec) 
Heartbeat CPU 0 instructions: 143000002 cycles: 118964762 heartbeat IPC: 1.56418 cumulative IPC: 0.938059 (Simulation time: 1 hr 28 min 18 sec) 
Heartbeat CPU 0 instructions: 144000000 cycles: 119606956 heartbeat IPC: 1.55716 cumulative IPC: 0.942043 (Simulation time: 1 hr 28 min 55 sec) 
Heartbeat CPU 0 instructions: 145000001 cycles: 120250428 heartbeat IPC: 1.55407 cumulative IPC: 0.945965 (Simulation time: 1 hr 29 min 30 sec) 
Heartbeat CPU 0 instructions: 146000002 cycles: 120894074 heartbeat IPC: 1.55365 cumulative IPC: 0.949835 (Simulation time: 1 hr 30 min 1 sec) 
Heartbeat CPU 0 instructions: 147000002 cycles: 122254736 heartbeat IPC: 0.734936 cumulative IPC: 0.94698 (Simulation time: 1 hr 30 min 41 sec) 
Heartbeat CPU 0 instructions: 148000000 cycles: 122771443 heartbeat IPC: 1.93533 cumulative IPC: 0.951941 (Simulation time: 1 hr 31 min 14 sec) 
Heartbeat CPU 0 instructions: 149000000 cycles: 123284549 heartbeat IPC: 1.94892 cumulative IPC: 0.956885 (Simulation time: 1 hr 31 min 46 sec) 
Heartbeat CPU 0 instructions: 150000003 cycles: 123799099 heartbeat IPC: 1.94345 cumulative IPC: 0.961767 (Simulation time: 1 hr 32 min 16 sec) 
Finished CPU 0 instructions: 100000000 cycles: 103975240 cummulative IPC: 0.961767 (Simulation time: 1 hr 32 min 16 sec) 

ChampSim completed all CPUs

Region of Interest Statistics

CPU 0 cummulative IPC: 0.961767 instructions: 100000000 cycles: 103975240
LLC TOTAL     ACCESS:     678828  HIT:     536586  MISS:     142242
LLC LOAD      ACCESS:     201692  HIT:     199823  MISS:       1869
LLC RFO       ACCESS:      77431  HIT:      12212  MISS:      65219
LLC PREFETCH  ACCESS:     319037  HIT:     260648  MISS:      58389
LLC WRITEBACK ACCESS:      80668  HIT:      63903  MISS:      16765
OPTgen accesses: 8776
OPTgen hits: 10385
OPTgen hit rate: 118.334


