
*** ChampSim Multicore Out-of-Order Simulator ***

Warmup Instructions: 50000000
Simulation Instructions: 100000000
Configuration: 2
Number of CPUs: 1
LLC sets: 2048
LLC ways: 16
Off-chip DRAM Channels: 1 Width: 64-bit Data Rate: 1600 MT/s

CPU 0 runs /datasets/cs240c-wi22-a00-public/data/Assignment2-gz/sphinx3_883B.trace.gz
CPU 0 L1D next line prefetcher
CPU 0 L2C IP-based stride prefetcher
Initialize Hawkeye state
Heartbeat CPU 0 instructions: 1000003 cycles: 414365 heartbeat IPC: 2.41334 cumulative IPC: 2.41334 (Simulation time: 0 hr 0 min 35 sec) 
Heartbeat CPU 0 instructions: 2000000 cycles: 823894 heartbeat IPC: 2.44182 cumulative IPC: 2.4275 (Simulation time: 0 hr 1 min 9 sec) 
Heartbeat CPU 0 instructions: 3000003 cycles: 1298700 heartbeat IPC: 2.10613 cumulative IPC: 2.31 (Simulation time: 0 hr 1 min 40 sec) 
Heartbeat CPU 0 instructions: 4000000 cycles: 1637590 heartbeat IPC: 2.9508 cumulative IPC: 2.44261 (Simulation time: 0 hr 2 min 9 sec) 
Heartbeat CPU 0 instructions: 5000000 cycles: 1992257 heartbeat IPC: 2.81955 cumulative IPC: 2.50972 (Simulation time: 0 hr 2 min 41 sec) 
Heartbeat CPU 0 instructions: 6000003 cycles: 2406693 heartbeat IPC: 2.41293 cumulative IPC: 2.49305 (Simulation time: 0 hr 3 min 14 sec) 
Heartbeat CPU 0 instructions: 7000002 cycles: 2815459 heartbeat IPC: 2.44638 cumulative IPC: 2.48627 (Simulation time: 0 hr 3 min 51 sec) 
Heartbeat CPU 0 instructions: 8000000 cycles: 3291270 heartbeat IPC: 2.10167 cumulative IPC: 2.43067 (Simulation time: 0 hr 4 min 20 sec) 
Heartbeat CPU 0 instructions: 9000001 cycles: 3630267 heartbeat IPC: 2.94988 cumulative IPC: 2.47916 (Simulation time: 0 hr 4 min 50 sec) 
Heartbeat CPU 0 instructions: 10000000 cycles: 3984364 heartbeat IPC: 2.82408 cumulative IPC: 2.50981 (Simulation time: 0 hr 5 min 19 sec) 
Heartbeat CPU 0 instructions: 11000000 cycles: 4398679 heartbeat IPC: 2.41362 cumulative IPC: 2.50075 (Simulation time: 0 hr 5 min 55 sec) 
Heartbeat CPU 0 instructions: 12000000 cycles: 4811425 heartbeat IPC: 2.4228 cumulative IPC: 2.49406 (Simulation time: 0 hr 6 min 28 sec) 
Heartbeat CPU 0 instructions: 13000001 cycles: 5276797 heartbeat IPC: 2.14882 cumulative IPC: 2.46362 (Simulation time: 0 hr 6 min 59 sec) 
Heartbeat CPU 0 instructions: 14000001 cycles: 5630610 heartbeat IPC: 2.82635 cumulative IPC: 2.48641 (Simulation time: 0 hr 7 min 29 sec) 
Heartbeat CPU 0 instructions: 15000000 cycles: 5977228 heartbeat IPC: 2.88502 cumulative IPC: 2.50952 (Simulation time: 0 hr 8 min 0 sec) 
Heartbeat CPU 0 instructions: 16000000 cycles: 6390684 heartbeat IPC: 2.41864 cumulative IPC: 2.50364 (Simulation time: 0 hr 8 min 39 sec) 
Heartbeat CPU 0 instructions: 17000000 cycles: 6802763 heartbeat IPC: 2.42672 cumulative IPC: 2.49898 (Simulation time: 0 hr 9 min 11 sec) 
Heartbeat CPU 0 instructions: 18000000 cycles: 7219102 heartbeat IPC: 2.40189 cumulative IPC: 2.49338 (Simulation time: 0 hr 9 min 45 sec) 
Heartbeat CPU 0 instructions: 19000003 cycles: 7633636 heartbeat IPC: 2.41235 cumulative IPC: 2.48898 (Simulation time: 0 hr 10 min 15 sec) 
Heartbeat CPU 0 instructions: 20000000 cycles: 7972589 heartbeat IPC: 2.95025 cumulative IPC: 2.5086 (Simulation time: 0 hr 10 min 45 sec) 
Heartbeat CPU 0 instructions: 21000000 cycles: 8382212 heartbeat IPC: 2.44127 cumulative IPC: 2.50531 (Simulation time: 0 hr 11 min 18 sec) 
Heartbeat CPU 0 instructions: 22000003 cycles: 8795718 heartbeat IPC: 2.41835 cumulative IPC: 2.50122 (Simulation time: 0 hr 11 min 51 sec) 
Heartbeat CPU 0 instructions: 23000003 cycles: 9205845 heartbeat IPC: 2.43827 cumulative IPC: 2.49841 (Simulation time: 0 hr 12 min 26 sec) 
Heartbeat CPU 0 instructions: 24000000 cycles: 9656532 heartbeat IPC: 2.21883 cumulative IPC: 2.48536 (Simulation time: 0 hr 12 min 57 sec) 
Heartbeat CPU 0 instructions: 25000000 cycles: 9995569 heartbeat IPC: 2.94953 cumulative IPC: 2.50111 (Simulation time: 0 hr 13 min 31 sec) 
Heartbeat CPU 0 instructions: 26000001 cycles: 10372739 heartbeat IPC: 2.65133 cumulative IPC: 2.50657 (Simulation time: 0 hr 14 min 11 sec) 
Heartbeat CPU 0 instructions: 27000001 cycles: 10787749 heartbeat IPC: 2.40958 cumulative IPC: 2.50284 (Simulation time: 0 hr 14 min 56 sec) 
Heartbeat CPU 0 instructions: 28000000 cycles: 11202597 heartbeat IPC: 2.41052 cumulative IPC: 2.49942 (Simulation time: 0 hr 15 min 35 sec) 
Heartbeat CPU 0 instructions: 29000003 cycles: 11665920 heartbeat IPC: 2.15833 cumulative IPC: 2.48587 (Simulation time: 0 hr 16 min 8 sec) 
Heartbeat CPU 0 instructions: 30000000 cycles: 12004842 heartbeat IPC: 2.95052 cumulative IPC: 2.49899 (Simulation time: 0 hr 16 min 38 sec) 
Heartbeat CPU 0 instructions: 31000003 cycles: 12368166 heartbeat IPC: 2.75237 cumulative IPC: 2.50643 (Simulation time: 0 hr 17 min 9 sec) 
Heartbeat CPU 0 instructions: 32000000 cycles: 12783214 heartbeat IPC: 2.40935 cumulative IPC: 2.50328 (Simulation time: 0 hr 17 min 45 sec) 
Heartbeat CPU 0 instructions: 33000001 cycles: 13192777 heartbeat IPC: 2.44163 cumulative IPC: 2.50137 (Simulation time: 0 hr 18 min 21 sec) 
Heartbeat CPU 0 instructions: 34000000 cycles: 13666944 heartbeat IPC: 2.10896 cumulative IPC: 2.48775 (Simulation time: 0 hr 18 min 53 sec) 
Heartbeat CPU 0 instructions: 35000000 cycles: 14005903 heartbeat IPC: 2.95021 cumulative IPC: 2.49895 (Simulation time: 0 hr 19 min 27 sec) 
Heartbeat CPU 0 instructions: 36000000 cycles: 14364195 heartbeat IPC: 2.79102 cumulative IPC: 2.50623 (Simulation time: 0 hr 20 min 1 sec) 
Heartbeat CPU 0 instructions: 37000001 cycles: 14780243 heartbeat IPC: 2.40357 cumulative IPC: 2.50334 (Simulation time: 0 hr 20 min 36 sec) 
Heartbeat CPU 0 instructions: 38000000 cycles: 15189849 heartbeat IPC: 2.44137 cumulative IPC: 2.50167 (Simulation time: 0 hr 21 min 11 sec) 
Heartbeat CPU 0 instructions: 39000002 cycles: 15664877 heartbeat IPC: 2.10514 cumulative IPC: 2.48965 (Simulation time: 0 hr 21 min 44 sec) 
Heartbeat CPU 0 instructions: 40000000 cycles: 16003855 heartbeat IPC: 2.95004 cumulative IPC: 2.4994 (Simulation time: 0 hr 22 min 13 sec) 
Heartbeat CPU 0 instructions: 41000003 cycles: 16361175 heartbeat IPC: 2.79862 cumulative IPC: 2.50593 (Simulation time: 0 hr 22 min 44 sec) 
Heartbeat CPU 0 instructions: 42000000 cycles: 16777271 heartbeat IPC: 2.40328 cumulative IPC: 2.50339 (Simulation time: 0 hr 23 min 19 sec) 
Heartbeat CPU 0 instructions: 43000001 cycles: 17188642 heartbeat IPC: 2.4309 cumulative IPC: 2.50165 (Simulation time: 0 hr 23 min 53 sec) 
Heartbeat CPU 0 instructions: 44000000 cycles: 17659340 heartbeat IPC: 2.1245 cumulative IPC: 2.4916 (Simulation time: 0 hr 24 min 22 sec) 
Heartbeat CPU 0 instructions: 45000001 cycles: 17998330 heartbeat IPC: 2.94994 cumulative IPC: 2.50023 (Simulation time: 0 hr 24 min 51 sec) 
Heartbeat CPU 0 instructions: 46000001 cycles: 18358673 heartbeat IPC: 2.77513 cumulative IPC: 2.50563 (Simulation time: 0 hr 25 min 21 sec) 
Heartbeat CPU 0 instructions: 47000003 cycles: 18773268 heartbeat IPC: 2.412 cumulative IPC: 2.50356 (Simulation time: 0 hr 25 min 56 sec) 
Heartbeat CPU 0 instructions: 48000000 cycles: 19189050 heartbeat IPC: 2.4051 cumulative IPC: 2.50143 (Simulation time: 0 hr 26 min 31 sec) 
Heartbeat CPU 0 instructions: 49000001 cycles: 19647128 heartbeat IPC: 2.18304 cumulative IPC: 2.494 (Simulation time: 0 hr 26 min 59 sec) 
Heartbeat CPU 0 instructions: 50000003 cycles: 19986081 heartbeat IPC: 2.95027 cumulative IPC: 2.50174 (Simulation time: 0 hr 27 min 29 sec) 

Warmup complete CPU 0 instructions: 50000003 cycles: 19986081 (Simulation time: 0 hr 27 min 29 sec) 

Heartbeat CPU 0 instructions: 51000003 cycles: 21106605 heartbeat IPC: 0.89244 cumulative IPC: 0.89244 (Simulation time: 0 hr 28 min 6 sec) 
Heartbeat CPU 0 instructions: 52000000 cycles: 22675052 heartbeat IPC: 0.637571 cumulative IPC: 0.743778 (Simulation time: 0 hr 28 min 45 sec) 
Heartbeat CPU 0 instructions: 53000000 cycles: 24443310 heartbeat IPC: 0.565528 cumulative IPC: 0.673063 (Simulation time: 0 hr 29 min 26 sec) 
Heartbeat CPU 0 instructions: 54000003 cycles: 25722417 heartbeat IPC: 0.781798 cumulative IPC: 0.697309 (Simulation time: 0 hr 30 min 3 sec) 
Heartbeat CPU 0 instructions: 55000003 cycles: 26628944 heartbeat IPC: 1.10311 cumulative IPC: 0.752688 (Simulation time: 0 hr 30 min 38 sec) 
Heartbeat CPU 0 instructions: 56000000 cycles: 27530561 heartbeat IPC: 1.10912 cumulative IPC: 0.795283 (Simulation time: 0 hr 31 min 15 sec) 
Heartbeat CPU 0 instructions: 57000002 cycles: 28705560 heartbeat IPC: 0.851066 cumulative IPC: 0.8028 (Simulation time: 0 hr 31 min 53 sec) 
Heartbeat CPU 0 instructions: 58000001 cycles: 29730631 heartbeat IPC: 0.975541 cumulative IPC: 0.820971 (Simulation time: 0 hr 32 min 30 sec) 
Heartbeat CPU 0 instructions: 59000003 cycles: 30609865 heartbeat IPC: 1.13736 cumulative IPC: 0.847156 (Simulation time: 0 hr 33 min 7 sec) 
Heartbeat CPU 0 instructions: 60000000 cycles: 31509589 heartbeat IPC: 1.11145 cumulative IPC: 0.867791 (Simulation time: 0 hr 33 min 44 sec) 
Heartbeat CPU 0 instructions: 61000001 cycles: 32672815 heartbeat IPC: 0.859679 cumulative IPC: 0.867047 (Simulation time: 0 hr 34 min 21 sec) 
Heartbeat CPU 0 instructions: 62000001 cycles: 33544334 heartbeat IPC: 1.14742 cumulative IPC: 0.88507 (Simulation time: 0 hr 34 min 55 sec) 
Heartbeat CPU 0 instructions: 63000003 cycles: 34398570 heartbeat IPC: 1.17064 cumulative IPC: 0.901995 (Simulation time: 0 hr 35 min 32 sec) 
Heartbeat CPU 0 instructions: 64000000 cycles: 35608293 heartbeat IPC: 0.826633 cumulative IPC: 0.89616 (Simulation time: 0 hr 36 min 11 sec) 
Heartbeat CPU 0 instructions: 65000003 cycles: 36481635 heartbeat IPC: 1.14503 cumulative IPC: 0.909336 (Simulation time: 0 hr 36 min 48 sec) 
Heartbeat CPU 0 instructions: 66000002 cycles: 37358108 heartbeat IPC: 1.14094 cumulative IPC: 0.921021 (Simulation time: 0 hr 37 min 25 sec) 
Heartbeat CPU 0 instructions: 67000000 cycles: 38580194 heartbeat IPC: 0.818271 cumulative IPC: 0.914268 (Simulation time: 0 hr 38 min 5 sec) 
Heartbeat CPU 0 instructions: 68000000 cycles: 40202111 heartbeat IPC: 0.616554 cumulative IPC: 0.890382 (Simulation time: 0 hr 38 min 45 sec) 
Heartbeat CPU 0 instructions: 69000003 cycles: 41070603 heartbeat IPC: 1.15142 cumulative IPC: 0.901135 (Simulation time: 0 hr 39 min 24 sec) 
Heartbeat CPU 0 instructions: 70000000 cycles: 41955761 heartbeat IPC: 1.12974 cumulative IPC: 0.910345 (Simulation time: 0 hr 40 min 2 sec) 
Heartbeat CPU 0 instructions: 71000000 cycles: 43087110 heartbeat IPC: 0.883901 cumulative IPC: 0.90905 (Simulation time: 0 hr 40 min 42 sec) 
Heartbeat CPU 0 instructions: 72000000 cycles: 44510774 heartbeat IPC: 0.702413 cumulative IPC: 0.897055 (Simulation time: 0 hr 41 min 22 sec) 
Heartbeat CPU 0 instructions: 73000000 cycles: 45377933 heartbeat IPC: 1.15319 cumulative IPC: 0.905802 (Simulation time: 0 hr 41 min 58 sec) 
Heartbeat CPU 0 instructions: 74000000 cycles: 46261996 heartbeat IPC: 1.13114 cumulative IPC: 0.913384 (Simulation time: 0 hr 42 min 37 sec) 
Heartbeat CPU 0 instructions: 75000000 cycles: 47435196 heartbeat IPC: 0.85237 cumulative IPC: 0.910776 (Simulation time: 0 hr 43 min 16 sec) 
Heartbeat CPU 0 instructions: 76000000 cycles: 48703480 heartbeat IPC: 0.788467 cumulative IPC: 0.905374 (Simulation time: 0 hr 43 min 55 sec) 
Heartbeat CPU 0 instructions: 77000003 cycles: 49609670 heartbeat IPC: 1.10352 cumulative IPC: 0.911436 (Simulation time: 0 hr 44 min 34 sec) 
Heartbeat CPU 0 instructions: 78000000 cycles: 50549973 heartbeat IPC: 1.06348 cumulative IPC: 0.916114 (Simulation time: 0 hr 45 min 12 sec) 
Heartbeat CPU 0 instructions: 79000001 cycles: 51930544 heartbeat IPC: 0.724339 cumulative IPC: 0.907825 (Simulation time: 0 hr 45 min 55 sec) 
Heartbeat CPU 0 instructions: 80000000 cycles: 53119865 heartbeat IPC: 0.840815 cumulative IPC: 0.90542 (Simulation time: 0 hr 46 min 35 sec) 
Heartbeat CPU 0 instructions: 81000000 cycles: 53978731 heartbeat IPC: 1.16433 cumulative IPC: 0.911962 (Simulation time: 0 hr 47 min 15 sec) 
Heartbeat CPU 0 instructions: 82000000 cycles: 54726573 heartbeat IPC: 1.33718 cumulative IPC: 0.921115 (Simulation time: 0 hr 47 min 52 sec) 
Heartbeat CPU 0 instructions: 83000000 cycles: 56121066 heartbeat IPC: 0.717107 cumulative IPC: 0.913242 (Simulation time: 0 hr 48 min 33 sec) 
Heartbeat CPU 0 instructions: 84000000 cycles: 57041468 heartbeat IPC: 1.08648 cumulative IPC: 0.917545 (Simulation time: 0 hr 49 min 13 sec) 
Heartbeat CPU 0 instructions: 85000001 cycles: 57853519 heartbeat IPC: 1.23145 cumulative IPC: 0.924277 (Simulation time: 0 hr 49 min 59 sec) 
Heartbeat CPU 0 instructions: 86000001 cycles: 58856490 heartbeat IPC: 0.997038 cumulative IPC: 0.926154 (Simulation time: 0 hr 50 min 47 sec) 
Heartbeat CPU 0 instructions: 87000000 cycles: 60049402 heartbeat IPC: 0.838284 cumulative IPC: 0.923538 (Simulation time: 0 hr 51 min 32 sec) 
Heartbeat CPU 0 instructions: 88000000 cycles: 60936526 heartbeat IPC: 1.12724 cumulative IPC: 0.927951 (Simulation time: 0 hr 52 min 20 sec) 
Heartbeat CPU 0 instructions: 89000000 cycles: 61731552 heartbeat IPC: 1.25782 cumulative IPC: 0.934233 (Simulation time: 0 hr 53 min 7 sec) 
Heartbeat CPU 0 instructions: 90000000 cycles: 63004558 heartbeat IPC: 0.785542 cumulative IPC: 0.929833 (Simulation time: 0 hr 53 min 56 sec) 
Heartbeat CPU 0 instructions: 91000003 cycles: 64250831 heartbeat IPC: 0.802395 cumulative IPC: 0.926245 (Simulation time: 0 hr 54 min 48 sec) 
Heartbeat CPU 0 instructions: 92000000 cycles: 65205462 heartbeat IPC: 1.04752 cumulative IPC: 0.928805 (Simulation time: 0 hr 55 min 35 sec) 
Heartbeat CPU 0 instructions: 93000000 cycles: 66026386 heartbeat IPC: 1.21814 cumulative IPC: 0.933964 (Simulation time: 0 hr 56 min 22 sec) 
Heartbeat CPU 0 instructions: 94000002 cycles: 66832826 heartbeat IPC: 1.24002 cumulative IPC: 0.939233 (Simulation time: 0 hr 57 min 7 sec) 
Heartbeat CPU 0 instructions: 95000001 cycles: 68242578 heartbeat IPC: 0.709344 cumulative IPC: 0.932517 (Simulation time: 0 hr 57 min 59 sec) 
Heartbeat CPU 0 instructions: 96000000 cycles: 69072696 heartbeat IPC: 1.20465 cumulative IPC: 0.937119 (Simulation time: 0 hr 58 min 49 sec) 
Heartbeat CPU 0 instructions: 97000000 cycles: 69879279 heartbeat IPC: 1.2398 cumulative IPC: 0.942012 (Simulation time: 0 hr 59 min 39 sec) 
Heartbeat CPU 0 instructions: 98000003 cycles: 71037750 heartbeat IPC: 0.863209 cumulative IPC: 0.940224 (Simulation time: 1 hr 0 min 29 sec) 
Heartbeat CPU 0 instructions: 99000000 cycles: 72106145 heartbeat IPC: 0.935981 cumulative IPC: 0.940137 (Simulation time: 1 hr 1 min 18 sec) 
Heartbeat CPU 0 instructions: 100000000 cycles: 72848679 heartbeat IPC: 1.34674 cumulative IPC: 0.945848 (Simulation time: 1 hr 2 min 4 sec) 
Heartbeat CPU 0 instructions: 101000000 cycles: 73641051 heartbeat IPC: 1.26203 cumulative IPC: 0.950518 (Simulation time: 1 hr 2 min 48 sec) 
Heartbeat CPU 0 instructions: 102000003 cycles: 75115374 heartbeat IPC: 0.678279 cumulative IPC: 0.943237 (Simulation time: 1 hr 3 min 36 sec) 
Heartbeat CPU 0 instructions: 103000000 cycles: 76050537 heartbeat IPC: 1.06933 cumulative IPC: 0.94534 (Simulation time: 1 hr 4 min 23 sec) 
Heartbeat CPU 0 instructions: 104000000 cycles: 76842548 heartbeat IPC: 1.26261 cumulative IPC: 0.94976 (Simulation time: 1 hr 5 min 6 sec) 
Heartbeat CPU 0 instructions: 105000002 cycles: 77898073 heartbeat IPC: 0.947398 cumulative IPC: 0.949717 (Simulation time: 1 hr 5 min 51 sec) 
Heartbeat CPU 0 instructions: 106000003 cycles: 79371268 heartbeat IPC: 0.678797 cumulative IPC: 0.942996 (Simulation time: 1 hr 6 min 41 sec) 
Heartbeat CPU 0 instructions: 107000001 cycles: 80246713 heartbeat IPC: 1.14227 cumulative IPC: 0.945891 (Simulation time: 1 hr 7 min 21 sec) 
Heartbeat CPU 0 instructions: 108000000 cycles: 81083541 heartbeat IPC: 1.19499 cumulative IPC: 0.949303 (Simulation time: 1 hr 8 min 11 sec) 
Heartbeat CPU 0 instructions: 109000001 cycles: 82215776 heartbeat IPC: 0.88321 cumulative IPC: 0.9481 (Simulation time: 1 hr 8 min 58 sec) 
Heartbeat CPU 0 instructions: 110000000 cycles: 83579223 heartbeat IPC: 0.733434 cumulative IPC: 0.943498 (Simulation time: 1 hr 9 min 49 sec) 
Heartbeat CPU 0 instructions: 111000003 cycles: 84440745 heartbeat IPC: 1.16074 cumulative IPC: 0.946402 (Simulation time: 1 hr 10 min 38 sec) 
Heartbeat CPU 0 instructions: 112000000 cycles: 85284060 heartbeat IPC: 1.18579 cumulative IPC: 0.949493 (Simulation time: 1 hr 11 min 29 sec) 
Heartbeat CPU 0 instructions: 113000002 cycles: 86530659 heartbeat IPC: 0.802184 cumulative IPC: 0.946734 (Simulation time: 1 hr 12 min 22 sec) 
Heartbeat CPU 0 instructions: 114000001 cycles: 87775917 heartbeat IPC: 0.803046 cumulative IPC: 0.944094 (Simulation time: 1 hr 13 min 12 sec) 
Heartbeat CPU 0 instructions: 115000002 cycles: 88662999 heartbeat IPC: 1.12729 cumulative IPC: 0.946461 (Simulation time: 1 hr 14 min 3 sec) 
Heartbeat CPU 0 instructions: 116000000 cycles: 89412600 heartbeat IPC: 1.33404 cumulative IPC: 0.950645 (Simulation time: 1 hr 14 min 51 sec) 
Heartbeat CPU 0 instructions: 117000002 cycles: 90786819 heartbeat IPC: 0.727688 cumulative IPC: 0.946318 (Simulation time: 1 hr 15 min 44 sec) 
Heartbeat CPU 0 instructions: 118000002 cycles: 91779258 heartbeat IPC: 1.00762 cumulative IPC: 0.947165 (Simulation time: 1 hr 16 min 32 sec) 
Heartbeat CPU 0 instructions: 119000002 cycles: 92627447 heartbeat IPC: 1.17898 cumulative IPC: 0.949872 (Simulation time: 1 hr 17 min 23 sec) 
Heartbeat CPU 0 instructions: 120000000 cycles: 93532539 heartbeat IPC: 1.10486 cumulative IPC: 0.951779 (Simulation time: 1 hr 18 min 12 sec) 
Heartbeat CPU 0 instructions: 121000000 cycles: 94999611 heartbeat IPC: 0.68163 cumulative IPC: 0.946496 (Simulation time: 1 hr 18 min 59 sec) 
Heartbeat CPU 0 instructions: 122000003 cycles: 95875237 heartbeat IPC: 1.14204 cumulative IPC: 0.948752 (Simulation time: 1 hr 19 min 47 sec) 
Heartbeat CPU 0 instructions: 123000001 cycles: 96704019 heartbeat IPC: 1.20659 cumulative IPC: 0.951538 (Simulation time: 1 hr 20 min 34 sec) 
Heartbeat CPU 0 instructions: 124000000 cycles: 97801075 heartbeat IPC: 0.91153 cumulative IPC: 0.950974 (Simulation time: 1 hr 21 min 20 sec) 
Heartbeat CPU 0 instructions: 125000003 cycles: 99157667 heartbeat IPC: 0.737144 cumulative IPC: 0.94731 (Simulation time: 1 hr 22 min 10 sec) 
Heartbeat CPU 0 instructions: 126000001 cycles: 100041022 heartbeat IPC: 1.13205 cumulative IPC: 0.949348 (Simulation time: 1 hr 22 min 54 sec) 
Heartbeat CPU 0 instructions: 127000000 cycles: 100912803 heartbeat IPC: 1.14708 cumulative IPC: 0.951478 (Simulation time: 1 hr 23 min 41 sec) 
Heartbeat CPU 0 instructions: 128000000 cycles: 102271837 heartbeat IPC: 0.735817 cumulative IPC: 0.947916 (Simulation time: 1 hr 24 min 33 sec) 
Heartbeat CPU 0 instructions: 129000002 cycles: 103673190 heartbeat IPC: 0.713597 cumulative IPC: 0.943992 (Simulation time: 1 hr 25 min 21 sec) 
Heartbeat CPU 0 instructions: 130000002 cycles: 104533153 heartbeat IPC: 1.16284 cumulative IPC: 0.946218 (Simulation time: 1 hr 26 min 6 sec) 
Heartbeat CPU 0 instructions: 131000001 cycles: 105295748 heartbeat IPC: 1.31131 cumulative IPC: 0.949482 (Simulation time: 1 hr 26 min 49 sec) 
Heartbeat CPU 0 instructions: 132000000 cycles: 106575035 heartbeat IPC: 0.781685 cumulative IPC: 0.947003 (Simulation time: 1 hr 27 min 33 sec) 
Heartbeat CPU 0 instructions: 133000001 cycles: 107994443 heartbeat IPC: 0.70452 cumulative IPC: 0.943092 (Simulation time: 1 hr 28 min 17 sec) 
Heartbeat CPU 0 instructions: 134000002 cycles: 108847031 heartbeat IPC: 1.1729 cumulative IPC: 0.945297 (Simulation time: 1 hr 28 min 56 sec) 
Heartbeat CPU 0 instructions: 135000001 cycles: 109648802 heartbeat IPC: 1.24724 cumulative IPC: 0.947997 (Simulation time: 1 hr 29 min 33 sec) 
Heartbeat CPU 0 instructions: 136000000 cycles: 110875574 heartbeat IPC: 0.815147 cumulative IPC: 0.946204 (Simulation time: 1 hr 30 min 16 sec) 
Heartbeat CPU 0 instructions: 137000001 cycles: 112214698 heartbeat IPC: 0.746758 cumulative IPC: 0.943308 (Simulation time: 1 hr 31 min 3 sec) 
Heartbeat CPU 0 instructions: 138000002 cycles: 113087479 heartbeat IPC: 1.14576 cumulative IPC: 0.945206 (Simulation time: 1 hr 31 min 48 sec) 
Heartbeat CPU 0 instructions: 139000001 cycles: 113891746 heartbeat IPC: 1.24337 cumulative IPC: 0.94776 (Simulation time: 1 hr 32 min 34 sec) 
Heartbeat CPU 0 instructions: 140000000 cycles: 115183556 heartbeat IPC: 0.774107 cumulative IPC: 0.945403 (Simulation time: 1 hr 33 min 18 sec) 
Heartbeat CPU 0 instructions: 141000000 cycles: 116694340 heartbeat IPC: 0.661908 cumulative IPC: 0.940974 (Simulation time: 1 hr 33 min 59 sec) 
Heartbeat CPU 0 instructions: 142000002 cycles: 117827495 heartbeat IPC: 0.882494 cumulative IPC: 0.940297 (Simulation time: 1 hr 34 min 41 sec) 
Heartbeat CPU 0 instructions: 143000003 cycles: 118677706 heartbeat IPC: 1.17618 cumulative IPC: 0.942329 (Simulation time: 1 hr 35 min 21 sec) 
Heartbeat CPU 0 instructions: 144000000 cycles: 119499159 heartbeat IPC: 1.21735 cumulative IPC: 0.944599 (Simulation time: 1 hr 35 min 54 sec) 
Heartbeat CPU 0 instructions: 145000000 cycles: 120620576 heartbeat IPC: 0.891729 cumulative IPC: 0.94401 (Simulation time: 1 hr 36 min 35 sec) 
Heartbeat CPU 0 instructions: 146000001 cycles: 122066380 heartbeat IPC: 0.691657 cumulative IPC: 0.940436 (Simulation time: 1 hr 37 min 13 sec) 
Heartbeat CPU 0 instructions: 147000002 cycles: 122927806 heartbeat IPC: 1.16087 cumulative IPC: 0.942281 (Simulation time: 1 hr 37 min 46 sec) 
Heartbeat CPU 0 instructions: 148000000 cycles: 123751631 heartbeat IPC: 1.21385 cumulative IPC: 0.944437 (Simulation time: 1 hr 38 min 16 sec) 
Heartbeat CPU 0 instructions: 149000001 cycles: 124912446 heartbeat IPC: 0.861465 cumulative IPC: 0.943519 (Simulation time: 1 hr 38 min 49 sec) 
Heartbeat CPU 0 instructions: 150000000 cycles: 126247823 heartbeat IPC: 0.748851 cumulative IPC: 0.941072 (Simulation time: 1 hr 39 min 21 sec) 
Finished CPU 0 instructions: 100000001 cycles: 106261743 cummulative IPC: 0.941072 (Simulation time: 1 hr 39 min 21 sec) 

ChampSim completed all CPUs

Region of Interest Statistics

CPU 0 cummulative IPC: 0.941072 instructions: 100000001 cycles: 106261743
LLC TOTAL     ACCESS:    1706363  HIT:     735203  MISS:     971160
LLC LOAD      ACCESS:     272409  HIT:     219566  MISS:      52843
LLC RFO       ACCESS:     107606  HIT:      92224  MISS:      15382
LLC PREFETCH  ACCESS:    1186762  HIT:     286218  MISS:     900544
LLC WRITEBACK ACCESS:     139586  HIT:     137195  MISS:       2391
OPTgen accesses: 5273
OPTgen hits: 4533
OPTgen hit rate: 85.9662


