
*** ChampSim Multicore Out-of-Order Simulator ***

Warmup Instructions: 50000000
Simulation Instructions: 100000000
Configuration: 2
Number of CPUs: 1
LLC sets: 2048
LLC ways: 16
Off-chip DRAM Channels: 1 Width: 64-bit Data Rate: 1600 MT/s

CPU 0 runs /datasets/cs240c-wi22-a00-public/data/Assignment2-gz/omnetpp_17B.trace.gz
CPU 0 L1D next line prefetcher
CPU 0 L2C IP-based stride prefetcher
Initialize Hawkeye state
Heartbeat CPU 0 instructions: 1000000 cycles: 559548 heartbeat IPC: 1.78716 cumulative IPC: 1.78716 (Simulation time: 0 hr 0 min 43 sec) 
Heartbeat CPU 0 instructions: 2000002 cycles: 1133688 heartbeat IPC: 1.74174 cumulative IPC: 1.76416 (Simulation time: 0 hr 1 min 28 sec) 
Heartbeat CPU 0 instructions: 3000001 cycles: 1769000 heartbeat IPC: 1.57403 cumulative IPC: 1.69587 (Simulation time: 0 hr 2 min 5 sec) 
Heartbeat CPU 0 instructions: 4000000 cycles: 2333922 heartbeat IPC: 1.77015 cumulative IPC: 1.71385 (Simulation time: 0 hr 2 min 45 sec) 
Heartbeat CPU 0 instructions: 5000002 cycles: 2892952 heartbeat IPC: 1.78882 cumulative IPC: 1.72834 (Simulation time: 0 hr 3 min 22 sec) 
Heartbeat CPU 0 instructions: 6000000 cycles: 3471525 heartbeat IPC: 1.72839 cumulative IPC: 1.72835 (Simulation time: 0 hr 3 min 57 sec) 
Heartbeat CPU 0 instructions: 7000000 cycles: 4035915 heartbeat IPC: 1.77182 cumulative IPC: 1.73443 (Simulation time: 0 hr 4 min 34 sec) 
Heartbeat CPU 0 instructions: 8000000 cycles: 4697649 heartbeat IPC: 1.51118 cumulative IPC: 1.70298 (Simulation time: 0 hr 5 min 6 sec) 
Heartbeat CPU 0 instructions: 9000000 cycles: 5359454 heartbeat IPC: 1.51102 cumulative IPC: 1.67928 (Simulation time: 0 hr 5 min 38 sec) 
Heartbeat CPU 0 instructions: 10000001 cycles: 6021023 heartbeat IPC: 1.51156 cumulative IPC: 1.66085 (Simulation time: 0 hr 6 min 10 sec) 
Heartbeat CPU 0 instructions: 11000001 cycles: 6682413 heartbeat IPC: 1.51197 cumulative IPC: 1.64611 (Simulation time: 0 hr 6 min 42 sec) 
Heartbeat CPU 0 instructions: 12000000 cycles: 7343189 heartbeat IPC: 1.51337 cumulative IPC: 1.63417 (Simulation time: 0 hr 7 min 15 sec) 
Heartbeat CPU 0 instructions: 13000001 cycles: 8001889 heartbeat IPC: 1.51814 cumulative IPC: 1.62462 (Simulation time: 0 hr 7 min 47 sec) 
Heartbeat CPU 0 instructions: 14000000 cycles: 8663177 heartbeat IPC: 1.5122 cumulative IPC: 1.61604 (Simulation time: 0 hr 8 min 19 sec) 
Heartbeat CPU 0 instructions: 15000000 cycles: 9324891 heartbeat IPC: 1.51123 cumulative IPC: 1.6086 (Simulation time: 0 hr 8 min 52 sec) 
Heartbeat CPU 0 instructions: 16000000 cycles: 9986802 heartbeat IPC: 1.51078 cumulative IPC: 1.60211 (Simulation time: 0 hr 9 min 25 sec) 
Heartbeat CPU 0 instructions: 17000000 cycles: 10652528 heartbeat IPC: 1.50212 cumulative IPC: 1.59587 (Simulation time: 0 hr 9 min 57 sec) 
Heartbeat CPU 0 instructions: 18000001 cycles: 11319085 heartbeat IPC: 1.50025 cumulative IPC: 1.59023 (Simulation time: 0 hr 10 min 33 sec) 
Heartbeat CPU 0 instructions: 19000002 cycles: 11987892 heartbeat IPC: 1.4952 cumulative IPC: 1.58493 (Simulation time: 0 hr 11 min 4 sec) 
Heartbeat CPU 0 instructions: 20000000 cycles: 12559694 heartbeat IPC: 1.74885 cumulative IPC: 1.5924 (Simulation time: 0 hr 11 min 39 sec) 
Heartbeat CPU 0 instructions: 21000000 cycles: 13148789 heartbeat IPC: 1.69752 cumulative IPC: 1.59711 (Simulation time: 0 hr 12 min 15 sec) 
Heartbeat CPU 0 instructions: 22000001 cycles: 13760717 heartbeat IPC: 1.63418 cumulative IPC: 1.59875 (Simulation time: 0 hr 12 min 48 sec) 
Heartbeat CPU 0 instructions: 23000000 cycles: 14318602 heartbeat IPC: 1.79248 cumulative IPC: 1.6063 (Simulation time: 0 hr 13 min 24 sec) 
Heartbeat CPU 0 instructions: 24000000 cycles: 14878286 heartbeat IPC: 1.78672 cumulative IPC: 1.61309 (Simulation time: 0 hr 14 min 0 sec) 
Heartbeat CPU 0 instructions: 25000001 cycles: 15461845 heartbeat IPC: 1.71362 cumulative IPC: 1.61688 (Simulation time: 0 hr 14 min 32 sec) 
Heartbeat CPU 0 instructions: 26000001 cycles: 16078712 heartbeat IPC: 1.62109 cumulative IPC: 1.61705 (Simulation time: 0 hr 15 min 4 sec) 
Heartbeat CPU 0 instructions: 27000000 cycles: 16638352 heartbeat IPC: 1.78686 cumulative IPC: 1.62276 (Simulation time: 0 hr 15 min 40 sec) 
Heartbeat CPU 0 instructions: 28000000 cycles: 17196704 heartbeat IPC: 1.79098 cumulative IPC: 1.62822 (Simulation time: 0 hr 16 min 16 sec) 
Heartbeat CPU 0 instructions: 29000000 cycles: 17775446 heartbeat IPC: 1.72789 cumulative IPC: 1.63146 (Simulation time: 0 hr 16 min 49 sec) 
Heartbeat CPU 0 instructions: 30000000 cycles: 18397992 heartbeat IPC: 1.60631 cumulative IPC: 1.63061 (Simulation time: 0 hr 17 min 22 sec) 
Heartbeat CPU 0 instructions: 31000000 cycles: 18959429 heartbeat IPC: 1.78114 cumulative IPC: 1.63507 (Simulation time: 0 hr 17 min 58 sec) 
Heartbeat CPU 0 instructions: 32000000 cycles: 19516742 heartbeat IPC: 1.79432 cumulative IPC: 1.63962 (Simulation time: 0 hr 18 min 34 sec) 
Heartbeat CPU 0 instructions: 33000001 cycles: 20088575 heartbeat IPC: 1.74876 cumulative IPC: 1.64272 (Simulation time: 0 hr 19 min 9 sec) 
Heartbeat CPU 0 instructions: 34000001 cycles: 20724302 heartbeat IPC: 1.573 cumulative IPC: 1.64059 (Simulation time: 0 hr 19 min 41 sec) 
Heartbeat CPU 0 instructions: 35000002 cycles: 21289534 heartbeat IPC: 1.76919 cumulative IPC: 1.644 (Simulation time: 0 hr 20 min 17 sec) 
Heartbeat CPU 0 instructions: 36000000 cycles: 21849301 heartbeat IPC: 1.78645 cumulative IPC: 1.64765 (Simulation time: 0 hr 20 min 52 sec) 
Heartbeat CPU 0 instructions: 37000001 cycles: 22427495 heartbeat IPC: 1.72953 cumulative IPC: 1.64976 (Simulation time: 0 hr 21 min 27 sec) 
Heartbeat CPU 0 instructions: 38000002 cycles: 23056531 heartbeat IPC: 1.58974 cumulative IPC: 1.64812 (Simulation time: 0 hr 21 min 59 sec) 
Heartbeat CPU 0 instructions: 39000000 cycles: 23619267 heartbeat IPC: 1.77703 cumulative IPC: 1.65119 (Simulation time: 0 hr 22 min 34 sec) 
Heartbeat CPU 0 instructions: 40000000 cycles: 24179407 heartbeat IPC: 1.78527 cumulative IPC: 1.6543 (Simulation time: 0 hr 23 min 9 sec) 
Heartbeat CPU 0 instructions: 41000002 cycles: 24762472 heartbeat IPC: 1.71508 cumulative IPC: 1.65573 (Simulation time: 0 hr 23 min 44 sec) 
Heartbeat CPU 0 instructions: 42000000 cycles: 25389453 heartbeat IPC: 1.59494 cumulative IPC: 1.65423 (Simulation time: 0 hr 24 min 15 sec) 
Heartbeat CPU 0 instructions: 43000001 cycles: 25876892 heartbeat IPC: 2.05154 cumulative IPC: 1.66171 (Simulation time: 0 hr 24 min 54 sec) 
Heartbeat CPU 0 instructions: 44000000 cycles: 26537589 heartbeat IPC: 1.51355 cumulative IPC: 1.65803 (Simulation time: 0 hr 25 min 25 sec) 
Heartbeat CPU 0 instructions: 45000003 cycles: 27199232 heartbeat IPC: 1.51139 cumulative IPC: 1.65446 (Simulation time: 0 hr 25 min 57 sec) 
Heartbeat CPU 0 instructions: 46000000 cycles: 27861610 heartbeat IPC: 1.50971 cumulative IPC: 1.65102 (Simulation time: 0 hr 26 min 27 sec) 
Heartbeat CPU 0 instructions: 47000001 cycles: 28524627 heartbeat IPC: 1.50826 cumulative IPC: 1.6477 (Simulation time: 0 hr 26 min 58 sec) 
Heartbeat CPU 0 instructions: 48000000 cycles: 29187378 heartbeat IPC: 1.50886 cumulative IPC: 1.64455 (Simulation time: 0 hr 27 min 29 sec) 
Heartbeat CPU 0 instructions: 49000000 cycles: 29848876 heartbeat IPC: 1.51172 cumulative IPC: 1.6416 (Simulation time: 0 hr 27 min 59 sec) 
Heartbeat CPU 0 instructions: 50000000 cycles: 30511067 heartbeat IPC: 1.51014 cumulative IPC: 1.63875 (Simulation time: 0 hr 28 min 30 sec) 

Warmup complete CPU 0 instructions: 50000002 cycles: 30511068 (Simulation time: 0 hr 28 min 30 sec) 

Heartbeat CPU 0 instructions: 51000002 cycles: 31554420 heartbeat IPC: 0.95845 cumulative IPC: 0.958449 (Simulation time: 0 hr 29 min 1 sec) 
Heartbeat CPU 0 instructions: 52000000 cycles: 32598679 heartbeat IPC: 0.957615 cumulative IPC: 0.958032 (Simulation time: 0 hr 29 min 30 sec) 
Heartbeat CPU 0 instructions: 53000001 cycles: 33641391 heartbeat IPC: 0.959039 cumulative IPC: 0.958367 (Simulation time: 0 hr 30 min 4 sec) 
Heartbeat CPU 0 instructions: 54000002 cycles: 34709736 heartbeat IPC: 0.936028 cumulative IPC: 0.952683 (Simulation time: 0 hr 30 min 34 sec) 
Heartbeat CPU 0 instructions: 55000003 cycles: 35750141 heartbeat IPC: 0.961165 cumulative IPC: 0.954368 (Simulation time: 0 hr 31 min 6 sec) 
Heartbeat CPU 0 instructions: 56000000 cycles: 38068402 heartbeat IPC: 0.431357 cumulative IPC: 0.793931 (Simulation time: 0 hr 31 min 42 sec) 
Heartbeat CPU 0 instructions: 57000003 cycles: 40147891 heartbeat IPC: 0.480889 cumulative IPC: 0.726381 (Simulation time: 0 hr 32 min 17 sec) 
Heartbeat CPU 0 instructions: 58000000 cycles: 43536286 heartbeat IPC: 0.295124 cumulative IPC: 0.614193 (Simulation time: 0 hr 32 min 58 sec) 
Heartbeat CPU 0 instructions: 59000003 cycles: 46879914 heartbeat IPC: 0.299077 cumulative IPC: 0.549825 (Simulation time: 0 hr 33 min 40 sec) 
Heartbeat CPU 0 instructions: 60000000 cycles: 49355500 heartbeat IPC: 0.403944 cumulative IPC: 0.530661 (Simulation time: 0 hr 34 min 15 sec) 
Heartbeat CPU 0 instructions: 61000001 cycles: 51255412 heartbeat IPC: 0.526341 cumulative IPC: 0.530265 (Simulation time: 0 hr 34 min 49 sec) 
Heartbeat CPU 0 instructions: 62000001 cycles: 54605501 heartbeat IPC: 0.2985 cumulative IPC: 0.49804 (Simulation time: 0 hr 35 min 30 sec) 
Heartbeat CPU 0 instructions: 63000000 cycles: 57964551 heartbeat IPC: 0.297703 cumulative IPC: 0.473528 (Simulation time: 0 hr 36 min 11 sec) 
Heartbeat CPU 0 instructions: 64000000 cycles: 60621989 heartbeat IPC: 0.376302 cumulative IPC: 0.464948 (Simulation time: 0 hr 36 min 49 sec) 
Heartbeat CPU 0 instructions: 65000000 cycles: 62347033 heartbeat IPC: 0.579695 cumulative IPC: 0.471165 (Simulation time: 0 hr 37 min 23 sec) 
Heartbeat CPU 0 instructions: 66000000 cycles: 65703103 heartbeat IPC: 0.297968 cumulative IPC: 0.454648 (Simulation time: 0 hr 38 min 3 sec) 
Heartbeat CPU 0 instructions: 67000001 cycles: 69065673 heartbeat IPC: 0.297392 cumulative IPC: 0.440933 (Simulation time: 0 hr 38 min 45 sec) 
Heartbeat CPU 0 instructions: 68000000 cycles: 71909817 heartbeat IPC: 0.351599 cumulative IPC: 0.434796 (Simulation time: 0 hr 39 min 23 sec) 
Heartbeat CPU 0 instructions: 69000001 cycles: 73448855 heartbeat IPC: 0.649757 cumulative IPC: 0.442501 (Simulation time: 0 hr 39 min 55 sec) 
Heartbeat CPU 0 instructions: 70000001 cycles: 76800080 heartbeat IPC: 0.298398 cumulative IPC: 0.432068 (Simulation time: 0 hr 40 min 35 sec) 
Heartbeat CPU 0 instructions: 71000001 cycles: 80161656 heartbeat IPC: 0.29748 cumulative IPC: 0.422956 (Simulation time: 0 hr 41 min 16 sec) 
Heartbeat CPU 0 instructions: 72000000 cycles: 83022215 heartbeat IPC: 0.349582 cumulative IPC: 0.418959 (Simulation time: 0 hr 41 min 54 sec) 
Heartbeat CPU 0 instructions: 73000000 cycles: 84567412 heartbeat IPC: 0.647167 cumulative IPC: 0.425482 (Simulation time: 0 hr 42 min 27 sec) 
Heartbeat CPU 0 instructions: 74000003 cycles: 87934413 heartbeat IPC: 0.297001 cumulative IPC: 0.417949 (Simulation time: 0 hr 43 min 10 sec) 
Heartbeat CPU 0 instructions: 75000001 cycles: 91299042 heartbeat IPC: 0.297209 cumulative IPC: 0.411266 (Simulation time: 0 hr 43 min 49 sec) 
Heartbeat CPU 0 instructions: 76000000 cycles: 94045615 heartbeat IPC: 0.36409 cumulative IPC: 0.409226 (Simulation time: 0 hr 44 min 27 sec) 
Heartbeat CPU 0 instructions: 77000001 cycles: 95693099 heartbeat IPC: 0.606987 cumulative IPC: 0.414225 (Simulation time: 0 hr 45 min 0 sec) 
Heartbeat CPU 0 instructions: 78000000 cycles: 99042418 heartbeat IPC: 0.298568 cumulative IPC: 0.408572 (Simulation time: 0 hr 45 min 41 sec) 
Heartbeat CPU 0 instructions: 79000000 cycles: 102571095 heartbeat IPC: 0.283392 cumulative IPC: 0.402442 (Simulation time: 0 hr 46 min 25 sec) 
Heartbeat CPU 0 instructions: 80000000 cycles: 104468084 heartbeat IPC: 0.527151 cumulative IPC: 0.405641 (Simulation time: 0 hr 47 min 0 sec) 
Heartbeat CPU 0 instructions: 81000001 cycles: 106956783 heartbeat IPC: 0.401817 cumulative IPC: 0.405517 (Simulation time: 0 hr 47 min 36 sec) 
Heartbeat CPU 0 instructions: 82000000 cycles: 110309572 heartbeat IPC: 0.298259 cumulative IPC: 0.40101 (Simulation time: 0 hr 48 min 13 sec) 
Heartbeat CPU 0 instructions: 83000000 cycles: 113659016 heartbeat IPC: 0.298557 cumulative IPC: 0.396883 (Simulation time: 0 hr 48 min 51 sec) 
Heartbeat CPU 0 instructions: 84000000 cycles: 115510372 heartbeat IPC: 0.540145 cumulative IPC: 0.400003 (Simulation time: 0 hr 49 min 25 sec) 
Heartbeat CPU 0 instructions: 85000003 cycles: 118015632 heartbeat IPC: 0.399161 cumulative IPC: 0.399979 (Simulation time: 0 hr 50 min 4 sec) 
Heartbeat CPU 0 instructions: 86000001 cycles: 121381693 heartbeat IPC: 0.297083 cumulative IPC: 0.396168 (Simulation time: 0 hr 50 min 44 sec) 
Heartbeat CPU 0 instructions: 87000000 cycles: 124734982 heartbeat IPC: 0.298214 cumulative IPC: 0.392682 (Simulation time: 0 hr 51 min 29 sec) 
Heartbeat CPU 0 instructions: 88000000 cycles: 126473657 heartbeat IPC: 0.575151 cumulative IPC: 0.395988 (Simulation time: 0 hr 52 min 2 sec) 
Heartbeat CPU 0 instructions: 89000000 cycles: 131289642 heartbeat IPC: 0.207642 cumulative IPC: 0.386987 (Simulation time: 0 hr 52 min 49 sec) 
Heartbeat CPU 0 instructions: 90000002 cycles: 132333271 heartbeat IPC: 0.958197 cumulative IPC: 0.392842 (Simulation time: 0 hr 53 min 19 sec) 
Heartbeat CPU 0 instructions: 91000001 cycles: 133377664 heartbeat IPC: 0.957493 cumulative IPC: 0.398574 (Simulation time: 0 hr 53 min 52 sec) 
Heartbeat CPU 0 instructions: 92000000 cycles: 134421420 heartbeat IPC: 0.958077 cumulative IPC: 0.404195 (Simulation time: 0 hr 54 min 22 sec) 
Heartbeat CPU 0 instructions: 93000002 cycles: 135465980 heartbeat IPC: 0.957343 cumulative IPC: 0.4097 (Simulation time: 0 hr 54 min 55 sec) 
Heartbeat CPU 0 instructions: 94000001 cycles: 136509827 heartbeat IPC: 0.957994 cumulative IPC: 0.415099 (Simulation time: 0 hr 55 min 23 sec) 
Heartbeat CPU 0 instructions: 95000000 cycles: 137554112 heartbeat IPC: 0.957592 cumulative IPC: 0.420392 (Simulation time: 0 hr 55 min 52 sec) 
Heartbeat CPU 0 instructions: 96000000 cycles: 138599092 heartbeat IPC: 0.956956 cumulative IPC: 0.425579 (Simulation time: 0 hr 56 min 21 sec) 
Heartbeat CPU 0 instructions: 97000002 cycles: 139670094 heartbeat IPC: 0.933707 cumulative IPC: 0.430564 (Simulation time: 0 hr 56 min 50 sec) 
Heartbeat CPU 0 instructions: 98000000 cycles: 140715959 heartbeat IPC: 0.956144 cumulative IPC: 0.435552 (Simulation time: 0 hr 57 min 18 sec) 
Heartbeat CPU 0 instructions: 99000003 cycles: 141754627 heartbeat IPC: 0.962774 cumulative IPC: 0.440475 (Simulation time: 0 hr 57 min 48 sec) 
Heartbeat CPU 0 instructions: 100000000 cycles: 142791321 heartbeat IPC: 0.964602 cumulative IPC: 0.445314 (Simulation time: 0 hr 58 min 18 sec) 
Heartbeat CPU 0 instructions: 101000001 cycles: 143832596 heartbeat IPC: 0.960362 cumulative IPC: 0.450047 (Simulation time: 0 hr 58 min 47 sec) 
Heartbeat CPU 0 instructions: 102000001 cycles: 147144488 heartbeat IPC: 0.301942 cumulative IPC: 0.445841 (Simulation time: 0 hr 59 min 27 sec) 
Heartbeat CPU 0 instructions: 103000001 cycles: 148579976 heartbeat IPC: 0.696627 cumulative IPC: 0.44889 (Simulation time: 0 hr 59 min 59 sec) 
Heartbeat CPU 0 instructions: 104000000 cycles: 151606744 heartbeat IPC: 0.330385 cumulative IPC: 0.445928 (Simulation time: 1 hr 0 min 45 sec) 
Heartbeat CPU 0 instructions: 105000000 cycles: 154932873 heartbeat IPC: 0.30065 cumulative IPC: 0.442045 (Simulation time: 1 hr 1 min 27 sec) 
Heartbeat CPU 0 instructions: 106000000 cycles: 158213807 heartbeat IPC: 0.304791 cumulative IPC: 0.438518 (Simulation time: 1 hr 2 min 12 sec) 
Heartbeat CPU 0 instructions: 107000001 cycles: 159798305 heartbeat IPC: 0.631115 cumulative IPC: 0.440879 (Simulation time: 1 hr 2 min 44 sec) 
Heartbeat CPU 0 instructions: 108000000 cycles: 162651119 heartbeat IPC: 0.350531 cumulative IPC: 0.438928 (Simulation time: 1 hr 3 min 22 sec) 
Heartbeat CPU 0 instructions: 109000000 cycles: 166001879 heartbeat IPC: 0.29844 cumulative IPC: 0.435454 (Simulation time: 1 hr 4 min 1 sec) 
Heartbeat CPU 0 instructions: 110000000 cycles: 169334132 heartbeat IPC: 0.300097 cumulative IPC: 0.432205 (Simulation time: 1 hr 4 min 40 sec) 
Heartbeat CPU 0 instructions: 111000000 cycles: 171065886 heartbeat IPC: 0.577449 cumulative IPC: 0.433994 (Simulation time: 1 hr 5 min 14 sec) 
Heartbeat CPU 0 instructions: 112000000 cycles: 173732341 heartbeat IPC: 0.37503 cumulative IPC: 0.432897 (Simulation time: 1 hr 5 min 51 sec) 
Heartbeat CPU 0 instructions: 113000001 cycles: 177102269 heartbeat IPC: 0.296743 cumulative IPC: 0.429767 (Simulation time: 1 hr 6 min 34 sec) 
Heartbeat CPU 0 instructions: 114000001 cycles: 180467393 heartbeat IPC: 0.297166 cumulative IPC: 0.426791 (Simulation time: 1 hr 7 min 15 sec) 
Heartbeat CPU 0 instructions: 115000002 cycles: 182394601 heartbeat IPC: 0.518886 cumulative IPC: 0.42796 (Simulation time: 1 hr 7 min 48 sec) 
Heartbeat CPU 0 instructions: 116000000 cycles: 184872804 heartbeat IPC: 0.403517 cumulative IPC: 0.427567 (Simulation time: 1 hr 8 min 22 sec) 
Heartbeat CPU 0 instructions: 117000000 cycles: 188220884 heartbeat IPC: 0.298679 cumulative IPC: 0.424831 (Simulation time: 1 hr 9 min 1 sec) 
Heartbeat CPU 0 instructions: 118000001 cycles: 191617349 heartbeat IPC: 0.294424 cumulative IPC: 0.422082 (Simulation time: 1 hr 9 min 39 sec) 
Heartbeat CPU 0 instructions: 119000002 cycles: 193435848 heartbeat IPC: 0.549905 cumulative IPC: 0.423508 (Simulation time: 1 hr 10 min 11 sec) 
Heartbeat CPU 0 instructions: 120000000 cycles: 196013248 heartbeat IPC: 0.387987 cumulative IPC: 0.422955 (Simulation time: 1 hr 10 min 48 sec) 
Heartbeat CPU 0 instructions: 121000000 cycles: 199375095 heartbeat IPC: 0.297456 cumulative IPC: 0.420457 (Simulation time: 1 hr 11 min 27 sec) 
Heartbeat CPU 0 instructions: 122000000 cycles: 202736914 heartbeat IPC: 0.297458 cumulative IPC: 0.418056 (Simulation time: 1 hr 12 min 6 sec) 
Heartbeat CPU 0 instructions: 123000002 cycles: 204459902 heartbeat IPC: 0.580388 cumulative IPC: 0.419664 (Simulation time: 1 hr 12 min 36 sec) 
Heartbeat CPU 0 instructions: 124000000 cycles: 207122069 heartbeat IPC: 0.375633 cumulative IPC: 0.419 (Simulation time: 1 hr 13 min 11 sec) 
Heartbeat CPU 0 instructions: 125000000 cycles: 210630115 heartbeat IPC: 0.285059 cumulative IPC: 0.416391 (Simulation time: 1 hr 13 min 53 sec) 
Heartbeat CPU 0 instructions: 126000001 cycles: 213860217 heartbeat IPC: 0.309588 cumulative IPC: 0.41451 (Simulation time: 1 hr 14 min 33 sec) 
Heartbeat CPU 0 instructions: 127000002 cycles: 215019691 heartbeat IPC: 0.862461 cumulative IPC: 0.417325 (Simulation time: 1 hr 15 min 1 sec) 
Heartbeat CPU 0 instructions: 128000000 cycles: 218388479 heartbeat IPC: 0.296842 cumulative IPC: 0.415164 (Simulation time: 1 hr 15 min 39 sec) 
Heartbeat CPU 0 instructions: 129000000 cycles: 221751045 heartbeat IPC: 0.297392 cumulative IPC: 0.413094 (Simulation time: 1 hr 16 min 19 sec) 
Heartbeat CPU 0 instructions: 130000001 cycles: 224947096 heartbeat IPC: 0.312886 cumulative IPC: 0.411446 (Simulation time: 1 hr 16 min 58 sec) 
Heartbeat CPU 0 instructions: 131000002 cycles: 226143434 heartbeat IPC: 0.835885 cumulative IPC: 0.414042 (Simulation time: 1 hr 17 min 31 sec) 
Heartbeat CPU 0 instructions: 132000000 cycles: 229506985 heartbeat IPC: 0.297304 cumulative IPC: 0.412069 (Simulation time: 1 hr 18 min 14 sec) 
Heartbeat CPU 0 instructions: 133000000 cycles: 232850621 heartbeat IPC: 0.299076 cumulative IPC: 0.410202 (Simulation time: 1 hr 18 min 55 sec) 
Heartbeat CPU 0 instructions: 134000000 cycles: 235918985 heartbeat IPC: 0.325907 cumulative IPC: 0.408942 (Simulation time: 1 hr 19 min 36 sec) 
Heartbeat CPU 0 instructions: 135000001 cycles: 239432088 heartbeat IPC: 0.284649 cumulative IPC: 0.406852 (Simulation time: 1 hr 20 min 18 sec) 
Heartbeat CPU 0 instructions: 136000000 cycles: 240476259 heartbeat IPC: 0.957697 cumulative IPC: 0.409592 (Simulation time: 1 hr 20 min 48 sec) 
Heartbeat CPU 0 instructions: 137000001 cycles: 241521444 heartbeat IPC: 0.956769 cumulative IPC: 0.412302 (Simulation time: 1 hr 21 min 20 sec) 
Heartbeat CPU 0 instructions: 138000001 cycles: 242566148 heartbeat IPC: 0.957209 cumulative IPC: 0.414987 (Simulation time: 1 hr 21 min 53 sec) 
Heartbeat CPU 0 instructions: 139000001 cycles: 243611549 heartbeat IPC: 0.956571 cumulative IPC: 0.417643 (Simulation time: 1 hr 22 min 24 sec) 
Heartbeat CPU 0 instructions: 140000000 cycles: 244658073 heartbeat IPC: 0.955543 cumulative IPC: 0.420272 (Simulation time: 1 hr 22 min 55 sec) 
Heartbeat CPU 0 instructions: 141000001 cycles: 245728508 heartbeat IPC: 0.934201 cumulative IPC: 0.422828 (Simulation time: 1 hr 23 min 27 sec) 
Heartbeat CPU 0 instructions: 142000002 cycles: 246772382 heartbeat IPC: 0.957971 cumulative IPC: 0.425411 (Simulation time: 1 hr 23 min 58 sec) 
Heartbeat CPU 0 instructions: 143000001 cycles: 247817536 heartbeat IPC: 0.956796 cumulative IPC: 0.427967 (Simulation time: 1 hr 24 min 29 sec) 
Heartbeat CPU 0 instructions: 144000000 cycles: 248861318 heartbeat IPC: 0.958054 cumulative IPC: 0.430501 (Simulation time: 1 hr 24 min 58 sec) 
Heartbeat CPU 0 instructions: 145000003 cycles: 249904047 heartbeat IPC: 0.959025 cumulative IPC: 0.433013 (Simulation time: 1 hr 25 min 26 sec) 
Heartbeat CPU 0 instructions: 146000001 cycles: 250945373 heartbeat IPC: 0.960312 cumulative IPC: 0.435504 (Simulation time: 1 hr 25 min 55 sec) 
Heartbeat CPU 0 instructions: 147000000 cycles: 251987190 heartbeat IPC: 0.959861 cumulative IPC: 0.43797 (Simulation time: 1 hr 26 min 22 sec) 
Heartbeat CPU 0 instructions: 148000000 cycles: 255334193 heartbeat IPC: 0.298775 cumulative IPC: 0.435898 (Simulation time: 1 hr 26 min 57 sec) 
Heartbeat CPU 0 instructions: 149000000 cycles: 258036731 heartbeat IPC: 0.370023 cumulative IPC: 0.435116 (Simulation time: 1 hr 27 min 29 sec) 
Heartbeat CPU 0 instructions: 150000000 cycles: 259714055 heartbeat IPC: 0.596188 cumulative IPC: 0.436294 (Simulation time: 1 hr 27 min 57 sec) 
Finished CPU 0 instructions: 100000002 cycles: 229202993 cummulative IPC: 0.436294 (Simulation time: 1 hr 27 min 57 sec) 

ChampSim completed all CPUs

Region of Interest Statistics

CPU 0 cummulative IPC: 0.436294 instructions: 100000002 cycles: 229202993
LLC TOTAL     ACCESS:    3408654  HIT:    1117630  MISS:    2291024
LLC LOAD      ACCESS:    1622443  HIT:    1057081  MISS:     565362
LLC RFO       ACCESS:       5352  HIT:       2011  MISS:       3341
LLC PREFETCH  ACCESS:    1763458  HIT:      46353  MISS:    1717105
LLC WRITEBACK ACCESS:      17401  HIT:      12185  MISS:       5216
OPTgen accesses: 19350
OPTgen hits: 16000
OPTgen hit rate: 82.6873


