
*** ChampSim Multicore Out-of-Order Simulator ***

Warmup Instructions: 50000000
Simulation Instructions: 100000000
Configuration: 2
Number of CPUs: 1
LLC sets: 2048
LLC ways: 16
Off-chip DRAM Channels: 1 Width: 64-bit Data Rate: 1600 MT/s

CPU 0 runs /datasets/cs240c-wi22-a00-public/data/Assignment2-gz/gcc_13B.trace.gz
CPU 0 L1D next line prefetcher
CPU 0 L2C IP-based stride prefetcher
Initialize Hawkeye state
Heartbeat CPU 0 instructions: 1000000 cycles: 633311 heartbeat IPC: 1.579 cumulative IPC: 1.579 (Simulation time: 0 hr 0 min 47 sec) 
Heartbeat CPU 0 instructions: 2000001 cycles: 1243578 heartbeat IPC: 1.63863 cumulative IPC: 1.60826 (Simulation time: 0 hr 1 min 32 sec) 
Heartbeat CPU 0 instructions: 3000001 cycles: 1717442 heartbeat IPC: 2.11031 cumulative IPC: 1.74678 (Simulation time: 0 hr 2 min 17 sec) 
Heartbeat CPU 0 instructions: 4000000 cycles: 2191036 heartbeat IPC: 2.11151 cumulative IPC: 1.82562 (Simulation time: 0 hr 3 min 1 sec) 
Heartbeat CPU 0 instructions: 5000002 cycles: 2665153 heartbeat IPC: 2.10919 cumulative IPC: 1.87607 (Simulation time: 0 hr 3 min 46 sec) 
Heartbeat CPU 0 instructions: 6000002 cycles: 3139019 heartbeat IPC: 2.1103 cumulative IPC: 1.91143 (Simulation time: 0 hr 4 min 31 sec) 
Heartbeat CPU 0 instructions: 7000001 cycles: 3614395 heartbeat IPC: 2.1036 cumulative IPC: 1.9367 (Simulation time: 0 hr 5 min 16 sec) 
Heartbeat CPU 0 instructions: 8000000 cycles: 4091404 heartbeat IPC: 2.09639 cumulative IPC: 1.95532 (Simulation time: 0 hr 6 min 0 sec) 
Heartbeat CPU 0 instructions: 9000001 cycles: 4832360 heartbeat IPC: 1.34961 cumulative IPC: 1.86244 (Simulation time: 0 hr 6 min 50 sec) 
Heartbeat CPU 0 instructions: 10000001 cycles: 5537220 heartbeat IPC: 1.41872 cumulative IPC: 1.80596 (Simulation time: 0 hr 7 min 42 sec) 
Heartbeat CPU 0 instructions: 11000002 cycles: 6158327 heartbeat IPC: 1.61003 cumulative IPC: 1.7862 (Simulation time: 0 hr 8 min 35 sec) 
Heartbeat CPU 0 instructions: 12000000 cycles: 6772394 heartbeat IPC: 1.62848 cumulative IPC: 1.7719 (Simulation time: 0 hr 9 min 30 sec) 
Heartbeat CPU 0 instructions: 13000000 cycles: 7378578 heartbeat IPC: 1.64966 cumulative IPC: 1.76186 (Simulation time: 0 hr 10 min 21 sec) 
Heartbeat CPU 0 instructions: 14000000 cycles: 8018170 heartbeat IPC: 1.5635 cumulative IPC: 1.74603 (Simulation time: 0 hr 11 min 11 sec) 
Heartbeat CPU 0 instructions: 15000001 cycles: 8617384 heartbeat IPC: 1.66885 cumulative IPC: 1.74067 (Simulation time: 0 hr 12 min 0 sec) 
Heartbeat CPU 0 instructions: 16000000 cycles: 9090523 heartbeat IPC: 2.11354 cumulative IPC: 1.76007 (Simulation time: 0 hr 12 min 46 sec) 
Heartbeat CPU 0 instructions: 17000000 cycles: 9564182 heartbeat IPC: 2.11122 cumulative IPC: 1.77747 (Simulation time: 0 hr 13 min 32 sec) 
Heartbeat CPU 0 instructions: 18000000 cycles: 10037803 heartbeat IPC: 2.11139 cumulative IPC: 1.79322 (Simulation time: 0 hr 14 min 17 sec) 
Heartbeat CPU 0 instructions: 19000002 cycles: 10511444 heartbeat IPC: 2.11131 cumulative IPC: 1.80755 (Simulation time: 0 hr 15 min 4 sec) 
Heartbeat CPU 0 instructions: 20000000 cycles: 10987058 heartbeat IPC: 2.10254 cumulative IPC: 1.82032 (Simulation time: 0 hr 15 min 50 sec) 
Heartbeat CPU 0 instructions: 21000001 cycles: 11467835 heartbeat IPC: 2.07997 cumulative IPC: 1.83121 (Simulation time: 0 hr 16 min 40 sec) 
Heartbeat CPU 0 instructions: 22000000 cycles: 12204541 heartbeat IPC: 1.35739 cumulative IPC: 1.80261 (Simulation time: 0 hr 17 min 34 sec) 
Heartbeat CPU 0 instructions: 23000002 cycles: 12901681 heartbeat IPC: 1.43444 cumulative IPC: 1.78271 (Simulation time: 0 hr 18 min 23 sec) 
Heartbeat CPU 0 instructions: 24000000 cycles: 13521325 heartbeat IPC: 1.61383 cumulative IPC: 1.77497 (Simulation time: 0 hr 19 min 15 sec) 
Heartbeat CPU 0 instructions: 25000000 cycles: 14136096 heartbeat IPC: 1.62662 cumulative IPC: 1.76852 (Simulation time: 0 hr 20 min 5 sec) 
Heartbeat CPU 0 instructions: 26000002 cycles: 14742941 heartbeat IPC: 1.64787 cumulative IPC: 1.76356 (Simulation time: 0 hr 20 min 53 sec) 
Heartbeat CPU 0 instructions: 27000001 cycles: 15393340 heartbeat IPC: 1.53752 cumulative IPC: 1.75401 (Simulation time: 0 hr 21 min 39 sec) 
Heartbeat CPU 0 instructions: 28000000 cycles: 15975823 heartbeat IPC: 1.71679 cumulative IPC: 1.75265 (Simulation time: 0 hr 22 min 29 sec) 
Heartbeat CPU 0 instructions: 29000001 cycles: 16449244 heartbeat IPC: 2.11229 cumulative IPC: 1.763 (Simulation time: 0 hr 23 min 12 sec) 
Heartbeat CPU 0 instructions: 30000000 cycles: 16922608 heartbeat IPC: 2.11254 cumulative IPC: 1.77278 (Simulation time: 0 hr 24 min 0 sec) 
Heartbeat CPU 0 instructions: 31000000 cycles: 17396319 heartbeat IPC: 2.11099 cumulative IPC: 1.78199 (Simulation time: 0 hr 24 min 46 sec) 
Heartbeat CPU 0 instructions: 32000000 cycles: 17870001 heartbeat IPC: 2.11112 cumulative IPC: 1.79071 (Simulation time: 0 hr 25 min 30 sec) 
Heartbeat CPU 0 instructions: 33000002 cycles: 18345415 heartbeat IPC: 2.10343 cumulative IPC: 1.79881 (Simulation time: 0 hr 26 min 15 sec) 
Heartbeat CPU 0 instructions: 34000001 cycles: 18818602 heartbeat IPC: 2.11333 cumulative IPC: 1.80672 (Simulation time: 0 hr 27 min 3 sec) 
Heartbeat CPU 0 instructions: 35000000 cycles: 19463262 heartbeat IPC: 1.5512 cumulative IPC: 1.79826 (Simulation time: 0 hr 27 min 55 sec) 
Heartbeat CPU 0 instructions: 36000000 cycles: 20147781 heartbeat IPC: 1.46088 cumulative IPC: 1.7868 (Simulation time: 0 hr 28 min 42 sec) 
Heartbeat CPU 0 instructions: 37000003 cycles: 20832544 heartbeat IPC: 1.46036 cumulative IPC: 1.77607 (Simulation time: 0 hr 29 min 30 sec) 
Heartbeat CPU 0 instructions: 38000000 cycles: 21517785 heartbeat IPC: 1.45934 cumulative IPC: 1.76598 (Simulation time: 0 hr 30 min 19 sec) 
Heartbeat CPU 0 instructions: 39000002 cycles: 22202496 heartbeat IPC: 1.46047 cumulative IPC: 1.75656 (Simulation time: 0 hr 31 min 10 sec) 
Heartbeat CPU 0 instructions: 40000000 cycles: 22887789 heartbeat IPC: 1.45923 cumulative IPC: 1.74766 (Simulation time: 0 hr 32 min 0 sec) 
Heartbeat CPU 0 instructions: 41000000 cycles: 23572822 heartbeat IPC: 1.45978 cumulative IPC: 1.73929 (Simulation time: 0 hr 32 min 48 sec) 
Heartbeat CPU 0 instructions: 42000000 cycles: 24257383 heartbeat IPC: 1.46079 cumulative IPC: 1.73143 (Simulation time: 0 hr 33 min 35 sec) 
Heartbeat CPU 0 instructions: 43000002 cycles: 24942453 heartbeat IPC: 1.45971 cumulative IPC: 1.72397 (Simulation time: 0 hr 34 min 26 sec) 
Heartbeat CPU 0 instructions: 44000000 cycles: 25627527 heartbeat IPC: 1.45969 cumulative IPC: 1.7169 (Simulation time: 0 hr 35 min 13 sec) 
Heartbeat CPU 0 instructions: 45000000 cycles: 26313279 heartbeat IPC: 1.45825 cumulative IPC: 1.71016 (Simulation time: 0 hr 36 min 3 sec) 
Heartbeat CPU 0 instructions: 46000002 cycles: 26998531 heartbeat IPC: 1.45932 cumulative IPC: 1.7038 (Simulation time: 0 hr 36 min 50 sec) 
Heartbeat CPU 0 instructions: 47000001 cycles: 27683221 heartbeat IPC: 1.46051 cumulative IPC: 1.69778 (Simulation time: 0 hr 37 min 37 sec) 
Heartbeat CPU 0 instructions: 48000000 cycles: 28367513 heartbeat IPC: 1.46136 cumulative IPC: 1.69208 (Simulation time: 0 hr 38 min 29 sec) 
Heartbeat CPU 0 instructions: 49000000 cycles: 29052712 heartbeat IPC: 1.45943 cumulative IPC: 1.68659 (Simulation time: 0 hr 39 min 22 sec) 
Heartbeat CPU 0 instructions: 50000003 cycles: 29737012 heartbeat IPC: 1.46135 cumulative IPC: 1.68141 (Simulation time: 0 hr 40 min 10 sec) 

Warmup complete CPU 0 instructions: 50000003 cycles: 29737012 (Simulation time: 0 hr 40 min 10 sec) 

Heartbeat CPU 0 instructions: 51000001 cycles: 33316732 heartbeat IPC: 0.279351 cumulative IPC: 0.279351 (Simulation time: 0 hr 41 min 1 sec) 
Heartbeat CPU 0 instructions: 52000000 cycles: 36882281 heartbeat IPC: 0.280461 cumulative IPC: 0.279905 (Simulation time: 0 hr 41 min 50 sec) 
Heartbeat CPU 0 instructions: 53000001 cycles: 40462691 heartbeat IPC: 0.279298 cumulative IPC: 0.279702 (Simulation time: 0 hr 42 min 45 sec) 
Heartbeat CPU 0 instructions: 54000000 cycles: 44036610 heartbeat IPC: 0.279805 cumulative IPC: 0.279728 (Simulation time: 0 hr 43 min 46 sec) 
Heartbeat CPU 0 instructions: 55000000 cycles: 47620533 heartbeat IPC: 0.279024 cumulative IPC: 0.279587 (Simulation time: 0 hr 44 min 48 sec) 
Heartbeat CPU 0 instructions: 56000000 cycles: 51192569 heartbeat IPC: 0.279952 cumulative IPC: 0.279648 (Simulation time: 0 hr 45 min 53 sec) 
Heartbeat CPU 0 instructions: 57000002 cycles: 54732095 heartbeat IPC: 0.282524 cumulative IPC: 0.280055 (Simulation time: 0 hr 46 min 52 sec) 
Heartbeat CPU 0 instructions: 58000001 cycles: 58277889 heartbeat IPC: 0.282024 cumulative IPC: 0.2803 (Simulation time: 0 hr 47 min 52 sec) 
Heartbeat CPU 0 instructions: 59000003 cycles: 61796079 heartbeat IPC: 0.284238 cumulative IPC: 0.280732 (Simulation time: 0 hr 48 min 53 sec) 
Heartbeat CPU 0 instructions: 60000000 cycles: 65311779 heartbeat IPC: 0.284438 cumulative IPC: 0.281098 (Simulation time: 0 hr 49 min 57 sec) 
Heartbeat CPU 0 instructions: 61000000 cycles: 68822839 heartbeat IPC: 0.284814 cumulative IPC: 0.281432 (Simulation time: 0 hr 51 min 1 sec) 
Heartbeat CPU 0 instructions: 62000003 cycles: 72330198 heartbeat IPC: 0.285116 cumulative IPC: 0.281735 (Simulation time: 0 hr 52 min 3 sec) 
Heartbeat CPU 0 instructions: 63000001 cycles: 75839504 heartbeat IPC: 0.284956 cumulative IPC: 0.28198 (Simulation time: 0 hr 53 min 11 sec) 
Heartbeat CPU 0 instructions: 64000000 cycles: 79369284 heartbeat IPC: 0.283303 cumulative IPC: 0.282074 (Simulation time: 0 hr 54 min 7 sec) 
Heartbeat CPU 0 instructions: 65000000 cycles: 82937602 heartbeat IPC: 0.280244 cumulative IPC: 0.281952 (Simulation time: 0 hr 55 min 1 sec) 
Heartbeat CPU 0 instructions: 66000000 cycles: 86523418 heartbeat IPC: 0.278877 cumulative IPC: 0.281758 (Simulation time: 0 hr 55 min 49 sec) 
Heartbeat CPU 0 instructions: 67000001 cycles: 90187276 heartbeat IPC: 0.272937 cumulative IPC: 0.281223 (Simulation time: 0 hr 56 min 43 sec) 
Heartbeat CPU 0 instructions: 68000000 cycles: 93836866 heartbeat IPC: 0.274003 cumulative IPC: 0.280812 (Simulation time: 0 hr 57 min 37 sec) 
Heartbeat CPU 0 instructions: 69000003 cycles: 97495189 heartbeat IPC: 0.27335 cumulative IPC: 0.280409 (Simulation time: 0 hr 58 min 30 sec) 
Heartbeat CPU 0 instructions: 70000000 cycles: 101234743 heartbeat IPC: 0.267411 cumulative IPC: 0.279729 (Simulation time: 0 hr 59 min 23 sec) 
Heartbeat CPU 0 instructions: 71000000 cycles: 104788807 heartbeat IPC: 0.281368 cumulative IPC: 0.279807 (Simulation time: 1 hr 0 min 16 sec) 
Heartbeat CPU 0 instructions: 72000000 cycles: 108371825 heartbeat IPC: 0.279094 cumulative IPC: 0.279774 (Simulation time: 1 hr 1 min 12 sec) 
Heartbeat CPU 0 instructions: 73000003 cycles: 111956132 heartbeat IPC: 0.278995 cumulative IPC: 0.27974 (Simulation time: 1 hr 2 min 7 sec) 
Heartbeat CPU 0 instructions: 74000000 cycles: 115541595 heartbeat IPC: 0.278903 cumulative IPC: 0.279705 (Simulation time: 1 hr 3 min 1 sec) 
Heartbeat CPU 0 instructions: 75000000 cycles: 119132931 heartbeat IPC: 0.278448 cumulative IPC: 0.279655 (Simulation time: 1 hr 3 min 57 sec) 
Heartbeat CPU 0 instructions: 76000000 cycles: 122751115 heartbeat IPC: 0.276382 cumulative IPC: 0.279527 (Simulation time: 1 hr 4 min 50 sec) 
Heartbeat CPU 0 instructions: 77000000 cycles: 126343411 heartbeat IPC: 0.278374 cumulative IPC: 0.279485 (Simulation time: 1 hr 5 min 43 sec) 
Heartbeat CPU 0 instructions: 78000003 cycles: 129884214 heartbeat IPC: 0.282423 cumulative IPC: 0.279588 (Simulation time: 1 hr 6 min 35 sec) 
Heartbeat CPU 0 instructions: 79000000 cycles: 133451436 heartbeat IPC: 0.280329 cumulative IPC: 0.279614 (Simulation time: 1 hr 7 min 30 sec) 
Heartbeat CPU 0 instructions: 80000000 cycles: 136986905 heartbeat IPC: 0.282848 cumulative IPC: 0.279721 (Simulation time: 1 hr 8 min 25 sec) 
Heartbeat CPU 0 instructions: 81000001 cycles: 140509434 heartbeat IPC: 0.283887 cumulative IPC: 0.279853 (Simulation time: 1 hr 9 min 19 sec) 
Heartbeat CPU 0 instructions: 82000000 cycles: 144036835 heartbeat IPC: 0.283495 cumulative IPC: 0.279965 (Simulation time: 1 hr 10 min 13 sec) 
Heartbeat CPU 0 instructions: 83000003 cycles: 147583281 heartbeat IPC: 0.281973 cumulative IPC: 0.280026 (Simulation time: 1 hr 11 min 8 sec) 
Heartbeat CPU 0 instructions: 84000000 cycles: 151110368 heartbeat IPC: 0.283519 cumulative IPC: 0.280127 (Simulation time: 1 hr 12 min 3 sec) 
Heartbeat CPU 0 instructions: 85000000 cycles: 154631301 heartbeat IPC: 0.284016 cumulative IPC: 0.280237 (Simulation time: 1 hr 12 min 55 sec) 
Heartbeat CPU 0 instructions: 86000001 cycles: 158160279 heartbeat IPC: 0.283368 cumulative IPC: 0.280323 (Simulation time: 1 hr 13 min 45 sec) 
Heartbeat CPU 0 instructions: 87000001 cycles: 161699318 heartbeat IPC: 0.282563 cumulative IPC: 0.280383 (Simulation time: 1 hr 14 min 38 sec) 
Heartbeat CPU 0 instructions: 88000000 cycles: 165225929 heartbeat IPC: 0.283558 cumulative IPC: 0.280466 (Simulation time: 1 hr 15 min 26 sec) 
Heartbeat CPU 0 instructions: 89000003 cycles: 168748992 heartbeat IPC: 0.283845 cumulative IPC: 0.280551 (Simulation time: 1 hr 16 min 17 sec) 
Heartbeat CPU 0 instructions: 90000000 cycles: 172271436 heartbeat IPC: 0.283893 cumulative IPC: 0.280634 (Simulation time: 1 hr 17 min 7 sec) 
Heartbeat CPU 0 instructions: 91000000 cycles: 175782441 heartbeat IPC: 0.284819 cumulative IPC: 0.280735 (Simulation time: 1 hr 17 min 56 sec) 
Heartbeat CPU 0 instructions: 92000000 cycles: 179272158 heartbeat IPC: 0.286556 cumulative IPC: 0.28087 (Simulation time: 1 hr 18 min 50 sec) 
Heartbeat CPU 0 instructions: 93000001 cycles: 182768822 heartbeat IPC: 0.285987 cumulative IPC: 0.280987 (Simulation time: 1 hr 19 min 44 sec) 
Heartbeat CPU 0 instructions: 94000003 cycles: 186248394 heartbeat IPC: 0.287392 cumulative IPC: 0.28113 (Simulation time: 1 hr 20 min 42 sec) 
Heartbeat CPU 0 instructions: 95000002 cycles: 189734441 heartbeat IPC: 0.286858 cumulative IPC: 0.281255 (Simulation time: 1 hr 21 min 41 sec) 
Heartbeat CPU 0 instructions: 96000000 cycles: 193201530 heartbeat IPC: 0.288426 cumulative IPC: 0.281407 (Simulation time: 1 hr 22 min 43 sec) 
Heartbeat CPU 0 instructions: 97000000 cycles: 196666428 heartbeat IPC: 0.288609 cumulative IPC: 0.281556 (Simulation time: 1 hr 23 min 36 sec) 
Heartbeat CPU 0 instructions: 98000000 cycles: 200150969 heartbeat IPC: 0.286982 cumulative IPC: 0.281667 (Simulation time: 1 hr 24 min 29 sec) 
Heartbeat CPU 0 instructions: 99000000 cycles: 203655501 heartbeat IPC: 0.285345 cumulative IPC: 0.281741 (Simulation time: 1 hr 25 min 22 sec) 
Heartbeat CPU 0 instructions: 100000000 cycles: 207187162 heartbeat IPC: 0.283153 cumulative IPC: 0.281769 (Simulation time: 1 hr 26 min 12 sec) 
Heartbeat CPU 0 instructions: 101000003 cycles: 210691023 heartbeat IPC: 0.2854 cumulative IPC: 0.28184 (Simulation time: 1 hr 26 min 57 sec) 
Heartbeat CPU 0 instructions: 102000000 cycles: 214507664 heartbeat IPC: 0.26201 cumulative IPC: 0.28143 (Simulation time: 1 hr 27 min 41 sec) 
Heartbeat CPU 0 instructions: 103000002 cycles: 218693944 heartbeat IPC: 0.238876 cumulative IPC: 0.280487 (Simulation time: 1 hr 28 min 25 sec) 
Heartbeat CPU 0 instructions: 104000000 cycles: 222792446 heartbeat IPC: 0.243991 cumulative IPC: 0.279712 (Simulation time: 1 hr 29 min 11 sec) 
Heartbeat CPU 0 instructions: 105000000 cycles: 226701250 heartbeat IPC: 0.255833 cumulative IPC: 0.279238 (Simulation time: 1 hr 29 min 51 sec) 
Heartbeat CPU 0 instructions: 106000002 cycles: 230502641 heartbeat IPC: 0.263062 cumulative IPC: 0.278932 (Simulation time: 1 hr 30 min 33 sec) 
Heartbeat CPU 0 instructions: 107000001 cycles: 234316601 heartbeat IPC: 0.262194 cumulative IPC: 0.27862 (Simulation time: 1 hr 31 min 16 sec) 
Heartbeat CPU 0 instructions: 108000000 cycles: 238118365 heartbeat IPC: 0.263036 cumulative IPC: 0.278336 (Simulation time: 1 hr 31 min 58 sec) 
Heartbeat CPU 0 instructions: 109000000 cycles: 241844761 heartbeat IPC: 0.268356 cumulative IPC: 0.278161 (Simulation time: 1 hr 32 min 39 sec) 
Heartbeat CPU 0 instructions: 110000002 cycles: 245544463 heartbeat IPC: 0.270293 cumulative IPC: 0.278026 (Simulation time: 1 hr 33 min 17 sec) 
Heartbeat CPU 0 instructions: 111000000 cycles: 249225581 heartbeat IPC: 0.271656 cumulative IPC: 0.277919 (Simulation time: 1 hr 33 min 56 sec) 
Heartbeat CPU 0 instructions: 112000000 cycles: 252909814 heartbeat IPC: 0.271427 cumulative IPC: 0.277812 (Simulation time: 1 hr 34 min 35 sec) 
Heartbeat CPU 0 instructions: 113000001 cycles: 256607187 heartbeat IPC: 0.270463 cumulative IPC: 0.277692 (Simulation time: 1 hr 35 min 9 sec) 
Heartbeat CPU 0 instructions: 114000000 cycles: 260289051 heartbeat IPC: 0.271601 cumulative IPC: 0.277595 (Simulation time: 1 hr 35 min 43 sec) 
Heartbeat CPU 0 instructions: 115000003 cycles: 263854873 heartbeat IPC: 0.280441 cumulative IPC: 0.277638 (Simulation time: 1 hr 36 min 18 sec) 
Heartbeat CPU 0 instructions: 116000000 cycles: 267381163 heartbeat IPC: 0.283583 cumulative IPC: 0.277726 (Simulation time: 1 hr 36 min 49 sec) 
Heartbeat CPU 0 instructions: 117000001 cycles: 270896363 heartbeat IPC: 0.284479 cumulative IPC: 0.277825 (Simulation time: 1 hr 37 min 24 sec) 
Heartbeat CPU 0 instructions: 118000000 cycles: 274413670 heartbeat IPC: 0.284308 cumulative IPC: 0.277918 (Simulation time: 1 hr 37 min 56 sec) 
Heartbeat CPU 0 instructions: 119000001 cycles: 278119878 heartbeat IPC: 0.269818 cumulative IPC: 0.277797 (Simulation time: 1 hr 38 min 27 sec) 
Heartbeat CPU 0 instructions: 120000000 cycles: 283106138 heartbeat IPC: 0.200551 cumulative IPC: 0.276277 (Simulation time: 1 hr 39 min 6 sec) 
Heartbeat CPU 0 instructions: 121000001 cycles: 289000625 heartbeat IPC: 0.16965 cumulative IPC: 0.273853 (Simulation time: 1 hr 39 min 44 sec) 
Heartbeat CPU 0 instructions: 122000000 cycles: 294643544 heartbeat IPC: 0.177213 cumulative IPC: 0.271794 (Simulation time: 1 hr 40 min 19 sec) 
Heartbeat CPU 0 instructions: 123000001 cycles: 300251023 heartbeat IPC: 0.178333 cumulative IPC: 0.269857 (Simulation time: 1 hr 40 min 52 sec) 
Heartbeat CPU 0 instructions: 124000000 cycles: 305770545 heartbeat IPC: 0.181175 cumulative IPC: 0.268083 (Simulation time: 1 hr 41 min 26 sec) 
Heartbeat CPU 0 instructions: 125000003 cycles: 311186415 heartbeat IPC: 0.184643 cumulative IPC: 0.266478 (Simulation time: 1 hr 41 min 59 sec) 
Heartbeat CPU 0 instructions: 126000000 cycles: 316619256 heartbeat IPC: 0.184065 cumulative IPC: 0.264917 (Simulation time: 1 hr 42 min 30 sec) 
Heartbeat CPU 0 instructions: 127000003 cycles: 322062530 heartbeat IPC: 0.183714 cumulative IPC: 0.263405 (Simulation time: 1 hr 43 min 3 sec) 
Heartbeat CPU 0 instructions: 128000000 cycles: 327387551 heartbeat IPC: 0.187792 cumulative IPC: 0.262052 (Simulation time: 1 hr 43 min 36 sec) 
Heartbeat CPU 0 instructions: 129000002 cycles: 332590862 heartbeat IPC: 0.192186 cumulative IPC: 0.260852 (Simulation time: 1 hr 44 min 8 sec) 
Heartbeat CPU 0 instructions: 130000000 cycles: 337777878 heartbeat IPC: 0.192789 cumulative IPC: 0.259706 (Simulation time: 1 hr 44 min 38 sec) 
Heartbeat CPU 0 instructions: 131000001 cycles: 343153534 heartbeat IPC: 0.186024 cumulative IPC: 0.258442 (Simulation time: 1 hr 45 min 5 sec) 
Heartbeat CPU 0 instructions: 132000000 cycles: 348680069 heartbeat IPC: 0.180945 cumulative IPC: 0.257099 (Simulation time: 1 hr 45 min 30 sec) 
Heartbeat CPU 0 instructions: 133000001 cycles: 354234987 heartbeat IPC: 0.180021 cumulative IPC: 0.25578 (Simulation time: 1 hr 45 min 55 sec) 
Heartbeat CPU 0 instructions: 134000002 cycles: 359428748 heartbeat IPC: 0.192539 cumulative IPC: 0.254783 (Simulation time: 1 hr 46 min 17 sec) 
Heartbeat CPU 0 instructions: 135000000 cycles: 364558908 heartbeat IPC: 0.194925 cumulative IPC: 0.253866 (Simulation time: 1 hr 46 min 37 sec) 
Heartbeat CPU 0 instructions: 136000000 cycles: 369717737 heartbeat IPC: 0.193842 cumulative IPC: 0.252955 (Simulation time: 1 hr 46 min 58 sec) 
Heartbeat CPU 0 instructions: 137000001 cycles: 374762171 heartbeat IPC: 0.198238 cumulative IPC: 0.252156 (Simulation time: 1 hr 47 min 18 sec) 
Heartbeat CPU 0 instructions: 138000002 cycles: 379700314 heartbeat IPC: 0.202505 cumulative IPC: 0.251455 (Simulation time: 1 hr 47 min 34 sec) 
Heartbeat CPU 0 instructions: 139000000 cycles: 384647699 heartbeat IPC: 0.202127 cumulative IPC: 0.250767 (Simulation time: 1 hr 47 min 50 sec) 
Heartbeat CPU 0 instructions: 140000000 cycles: 389583705 heartbeat IPC: 0.202593 cumulative IPC: 0.250107 (Simulation time: 1 hr 48 min 4 sec) 
Heartbeat CPU 0 instructions: 141000000 cycles: 394527132 heartbeat IPC: 0.202289 cumulative IPC: 0.249459 (Simulation time: 1 hr 48 min 18 sec) 
Heartbeat CPU 0 instructions: 142000000 cycles: 399423424 heartbeat IPC: 0.204236 cumulative IPC: 0.24886 (Simulation time: 1 hr 48 min 29 sec) 
Heartbeat CPU 0 instructions: 143000000 cycles: 404267177 heartbeat IPC: 0.206451 cumulative IPC: 0.248311 (Simulation time: 1 hr 48 min 39 sec) 
Heartbeat CPU 0 instructions: 144000000 cycles: 409107859 heartbeat IPC: 0.206582 cumulative IPC: 0.247779 (Simulation time: 1 hr 48 min 48 sec) 
Heartbeat CPU 0 instructions: 145000000 cycles: 413957097 heartbeat IPC: 0.206218 cumulative IPC: 0.247254 (Simulation time: 1 hr 48 min 57 sec) 
Heartbeat CPU 0 instructions: 146000000 cycles: 418894961 heartbeat IPC: 0.202517 cumulative IPC: 0.246686 (Simulation time: 1 hr 49 min 5 sec) 
Heartbeat CPU 0 instructions: 147000000 cycles: 422568228 heartbeat IPC: 0.272237 cumulative IPC: 0.246925 (Simulation time: 1 hr 49 min 15 sec) 
Heartbeat CPU 0 instructions: 148000000 cycles: 427710695 heartbeat IPC: 0.194459 cumulative IPC: 0.246247 (Simulation time: 1 hr 49 min 24 sec) 
Heartbeat CPU 0 instructions: 149000003 cycles: 432622829 heartbeat IPC: 0.203578 cumulative IPC: 0.245727 (Simulation time: 1 hr 49 min 33 sec) 
Heartbeat CPU 0 instructions: 150000001 cycles: 436967437 heartbeat IPC: 0.23017 cumulative IPC: 0.245561 (Simulation time: 1 hr 49 min 41 sec) 
Finished CPU 0 instructions: 100000002 cycles: 407230426 cummulative IPC: 0.245561 (Simulation time: 1 hr 49 min 41 sec) 

ChampSim completed all CPUs

Region of Interest Statistics

CPU 0 cummulative IPC: 0.245561 instructions: 100000002 cycles: 407230426
LLC TOTAL     ACCESS:    1690044  HIT:     131034  MISS:    1559010
LLC LOAD      ACCESS:     565227  HIT:      34535  MISS:     530692
LLC RFO       ACCESS:      88719  HIT:        630  MISS:      88089
LLC PREFETCH  ACCESS:     720295  HIT:      27430  MISS:     692865
LLC WRITEBACK ACCESS:     315803  HIT:      68439  MISS:     247364
OPTgen accesses: 12140
OPTgen hits: 2420
OPTgen hit rate: 19.9341


