
*** ChampSim Multicore Out-of-Order Simulator ***

Warmup Instructions: 50000000
Simulation Instructions: 100000000
Configuration: 2
Number of CPUs: 1
LLC sets: 2048
LLC ways: 16
Off-chip DRAM Channels: 1 Width: 64-bit Data Rate: 1600 MT/s

CPU 0 runs /datasets/cs240c-wi22-a00-public/data/Assignment2-gz/sphinx3_1339B.trace.gz
CPU 0 L1D next line prefetcher
CPU 0 L2C IP-based stride prefetcher
Initialize Hawkeye state
Heartbeat CPU 0 instructions: 1000000 cycles: 339022 heartbeat IPC: 2.94966 cumulative IPC: 2.94966 (Simulation time: 0 hr 0 min 33 sec) 
Heartbeat CPU 0 instructions: 2000001 cycles: 693418 heartbeat IPC: 2.82171 cumulative IPC: 2.88426 (Simulation time: 0 hr 1 min 7 sec) 
Heartbeat CPU 0 instructions: 3000000 cycles: 1084467 heartbeat IPC: 2.55722 cumulative IPC: 2.76634 (Simulation time: 0 hr 1 min 43 sec) 
Heartbeat CPU 0 instructions: 4000000 cycles: 1529992 heartbeat IPC: 2.24454 cumulative IPC: 2.61439 (Simulation time: 0 hr 2 min 16 sec) 
Heartbeat CPU 0 instructions: 5000003 cycles: 1869007 heartbeat IPC: 2.94973 cumulative IPC: 2.67522 (Simulation time: 0 hr 2 min 48 sec) 
Heartbeat CPU 0 instructions: 6000002 cycles: 2253198 heartbeat IPC: 2.60287 cumulative IPC: 2.66288 (Simulation time: 0 hr 3 min 24 sec) 
Heartbeat CPU 0 instructions: 7000001 cycles: 2716937 heartbeat IPC: 2.15638 cumulative IPC: 2.57643 (Simulation time: 0 hr 3 min 58 sec) 
Heartbeat CPU 0 instructions: 8000000 cycles: 3055809 heartbeat IPC: 2.95096 cumulative IPC: 2.61796 (Simulation time: 0 hr 4 min 31 sec) 
Heartbeat CPU 0 instructions: 9000003 cycles: 3412369 heartbeat IPC: 2.80459 cumulative IPC: 2.63746 (Simulation time: 0 hr 5 min 6 sec) 
Heartbeat CPU 0 instructions: 10000001 cycles: 3799039 heartbeat IPC: 2.58618 cumulative IPC: 2.63224 (Simulation time: 0 hr 5 min 45 sec) 
Heartbeat CPU 0 instructions: 11000002 cycles: 4242175 heartbeat IPC: 2.25665 cumulative IPC: 2.59301 (Simulation time: 0 hr 6 min 18 sec) 
Heartbeat CPU 0 instructions: 12000000 cycles: 4581133 heartbeat IPC: 2.95021 cumulative IPC: 2.61944 (Simulation time: 0 hr 6 min 52 sec) 
Heartbeat CPU 0 instructions: 13000000 cycles: 4972964 heartbeat IPC: 2.55212 cumulative IPC: 2.61414 (Simulation time: 0 hr 7 min 30 sec) 
Heartbeat CPU 0 instructions: 14000003 cycles: 5427787 heartbeat IPC: 2.19866 cumulative IPC: 2.57932 (Simulation time: 0 hr 8 min 2 sec) 
Heartbeat CPU 0 instructions: 15000003 cycles: 5766747 heartbeat IPC: 2.9502 cumulative IPC: 2.60112 (Simulation time: 0 hr 8 min 37 sec) 
Heartbeat CPU 0 instructions: 16000000 cycles: 6131634 heartbeat IPC: 2.74057 cumulative IPC: 2.60942 (Simulation time: 0 hr 9 min 12 sec) 
Heartbeat CPU 0 instructions: 17000000 cycles: 6578516 heartbeat IPC: 2.23773 cumulative IPC: 2.58417 (Simulation time: 0 hr 9 min 48 sec) 
Heartbeat CPU 0 instructions: 18000000 cycles: 7017803 heartbeat IPC: 2.27642 cumulative IPC: 2.56491 (Simulation time: 0 hr 10 min 23 sec) 
Heartbeat CPU 0 instructions: 19000001 cycles: 7462760 heartbeat IPC: 2.24741 cumulative IPC: 2.54597 (Simulation time: 0 hr 10 min 55 sec) 
Heartbeat CPU 0 instructions: 20000000 cycles: 7801817 heartbeat IPC: 2.94935 cumulative IPC: 2.56351 (Simulation time: 0 hr 11 min 28 sec) 
Heartbeat CPU 0 instructions: 21000000 cycles: 8183381 heartbeat IPC: 2.62079 cumulative IPC: 2.56618 (Simulation time: 0 hr 12 min 3 sec) 
Heartbeat CPU 0 instructions: 22000000 cycles: 8649049 heartbeat IPC: 2.14745 cumulative IPC: 2.54363 (Simulation time: 0 hr 12 min 39 sec) 
Heartbeat CPU 0 instructions: 23000001 cycles: 8988085 heartbeat IPC: 2.94954 cumulative IPC: 2.55894 (Simulation time: 0 hr 13 min 13 sec) 
Heartbeat CPU 0 instructions: 24000000 cycles: 9338399 heartbeat IPC: 2.85458 cumulative IPC: 2.57003 (Simulation time: 0 hr 13 min 47 sec) 
Heartbeat CPU 0 instructions: 25000000 cycles: 9746560 heartbeat IPC: 2.45001 cumulative IPC: 2.56501 (Simulation time: 0 hr 14 min 21 sec) 
Heartbeat CPU 0 instructions: 26000003 cycles: 10149475 heartbeat IPC: 2.48192 cumulative IPC: 2.56171 (Simulation time: 0 hr 14 min 54 sec) 
Heartbeat CPU 0 instructions: 27000002 cycles: 10488417 heartbeat IPC: 2.95035 cumulative IPC: 2.57427 (Simulation time: 0 hr 15 min 27 sec) 
Heartbeat CPU 0 instructions: 28000000 cycles: 10865508 heartbeat IPC: 2.65187 cumulative IPC: 2.57696 (Simulation time: 0 hr 16 min 2 sec) 
Heartbeat CPU 0 instructions: 29000001 cycles: 11306159 heartbeat IPC: 2.26937 cumulative IPC: 2.56497 (Simulation time: 0 hr 16 min 34 sec) 
Heartbeat CPU 0 instructions: 30000002 cycles: 11645179 heartbeat IPC: 2.94968 cumulative IPC: 2.57617 (Simulation time: 0 hr 17 min 9 sec) 
Heartbeat CPU 0 instructions: 31000003 cycles: 12015779 heartbeat IPC: 2.69833 cumulative IPC: 2.57994 (Simulation time: 0 hr 17 min 46 sec) 
Heartbeat CPU 0 instructions: 32000000 cycles: 12458515 heartbeat IPC: 2.25868 cumulative IPC: 2.56852 (Simulation time: 0 hr 18 min 20 sec) 
Heartbeat CPU 0 instructions: 33000000 cycles: 12797577 heartbeat IPC: 2.94931 cumulative IPC: 2.57861 (Simulation time: 0 hr 18 min 55 sec) 
Heartbeat CPU 0 instructions: 34000001 cycles: 13185125 heartbeat IPC: 2.58033 cumulative IPC: 2.57866 (Simulation time: 0 hr 19 min 34 sec) 
Heartbeat CPU 0 instructions: 35000003 cycles: 13646252 heartbeat IPC: 2.1686 cumulative IPC: 2.56481 (Simulation time: 0 hr 20 min 8 sec) 
Heartbeat CPU 0 instructions: 36000000 cycles: 13985129 heartbeat IPC: 2.95091 cumulative IPC: 2.57416 (Simulation time: 0 hr 20 min 43 sec) 
Heartbeat CPU 0 instructions: 37000003 cycles: 14341795 heartbeat IPC: 2.80375 cumulative IPC: 2.57987 (Simulation time: 0 hr 21 min 21 sec) 
Heartbeat CPU 0 instructions: 38000000 cycles: 14729607 heartbeat IPC: 2.57856 cumulative IPC: 2.57984 (Simulation time: 0 hr 22 min 2 sec) 
Heartbeat CPU 0 instructions: 39000002 cycles: 15172884 heartbeat IPC: 2.25593 cumulative IPC: 2.57037 (Simulation time: 0 hr 22 min 34 sec) 
Heartbeat CPU 0 instructions: 40000000 cycles: 15511904 heartbeat IPC: 2.94967 cumulative IPC: 2.57866 (Simulation time: 0 hr 23 min 7 sec) 
Heartbeat CPU 0 instructions: 41000003 cycles: 15896500 heartbeat IPC: 2.60014 cumulative IPC: 2.57918 (Simulation time: 0 hr 23 min 44 sec) 
Heartbeat CPU 0 instructions: 42000002 cycles: 16351178 heartbeat IPC: 2.19936 cumulative IPC: 2.56862 (Simulation time: 0 hr 24 min 16 sec) 
Heartbeat CPU 0 instructions: 43000001 cycles: 16690143 heartbeat IPC: 2.95015 cumulative IPC: 2.57637 (Simulation time: 0 hr 24 min 53 sec) 
Heartbeat CPU 0 instructions: 44000000 cycles: 17054219 heartbeat IPC: 2.74668 cumulative IPC: 2.58001 (Simulation time: 0 hr 25 min 27 sec) 
Heartbeat CPU 0 instructions: 45000000 cycles: 17467336 heartbeat IPC: 2.42062 cumulative IPC: 2.57624 (Simulation time: 0 hr 26 min 3 sec) 
Heartbeat CPU 0 instructions: 46000002 cycles: 17866888 heartbeat IPC: 2.50281 cumulative IPC: 2.57459 (Simulation time: 0 hr 26 min 36 sec) 
Heartbeat CPU 0 instructions: 47000003 cycles: 18205878 heartbeat IPC: 2.94994 cumulative IPC: 2.58158 (Simulation time: 0 hr 27 min 9 sec) 
Heartbeat CPU 0 instructions: 48000000 cycles: 18582802 heartbeat IPC: 2.65305 cumulative IPC: 2.58303 (Simulation time: 0 hr 27 min 45 sec) 
Heartbeat CPU 0 instructions: 49000002 cycles: 19023897 heartbeat IPC: 2.26709 cumulative IPC: 2.57571 (Simulation time: 0 hr 28 min 21 sec) 
Heartbeat CPU 0 instructions: 50000002 cycles: 19362852 heartbeat IPC: 2.95024 cumulative IPC: 2.58226 (Simulation time: 0 hr 29 min 3 sec) 

Warmup complete CPU 0 instructions: 50000002 cycles: 19362852 (Simulation time: 0 hr 29 min 3 sec) 

Heartbeat CPU 0 instructions: 51000001 cycles: 20551619 heartbeat IPC: 0.841207 cumulative IPC: 0.841207 (Simulation time: 0 hr 29 min 54 sec) 
Heartbeat CPU 0 instructions: 52000000 cycles: 21399719 heartbeat IPC: 1.17911 cumulative IPC: 0.981899 (Simulation time: 0 hr 30 min 45 sec) 
Heartbeat CPU 0 instructions: 53000002 cycles: 22292845 heartbeat IPC: 1.11967 cumulative IPC: 1.02389 (Simulation time: 0 hr 31 min 38 sec) 
Heartbeat CPU 0 instructions: 54000003 cycles: 23442888 heartbeat IPC: 0.869534 cumulative IPC: 0.980384 (Simulation time: 0 hr 32 min 30 sec) 
Heartbeat CPU 0 instructions: 55000001 cycles: 24329403 heartbeat IPC: 1.12801 cumulative IPC: 1.00673 (Simulation time: 0 hr 33 min 15 sec) 
Heartbeat CPU 0 instructions: 56000000 cycles: 25216940 heartbeat IPC: 1.12671 cumulative IPC: 1.02492 (Simulation time: 0 hr 34 min 4 sec) 
Heartbeat CPU 0 instructions: 57000000 cycles: 26198002 heartbeat IPC: 1.0193 cumulative IPC: 1.02412 (Simulation time: 0 hr 34 min 56 sec) 
Heartbeat CPU 0 instructions: 58000000 cycles: 27249139 heartbeat IPC: 0.951351 cumulative IPC: 1.01442 (Simulation time: 0 hr 35 min 45 sec) 
Heartbeat CPU 0 instructions: 59000001 cycles: 28116908 heartbeat IPC: 1.15238 cumulative IPC: 1.02809 (Simulation time: 0 hr 36 min 36 sec) 
Heartbeat CPU 0 instructions: 60000000 cycles: 28978822 heartbeat IPC: 1.16021 cumulative IPC: 1.03994 (Simulation time: 0 hr 37 min 20 sec) 
Heartbeat CPU 0 instructions: 61000000 cycles: 30285533 heartbeat IPC: 0.76528 cumulative IPC: 1.00708 (Simulation time: 0 hr 38 min 13 sec) 
Heartbeat CPU 0 instructions: 62000002 cycles: 31426318 heartbeat IPC: 0.876591 cumulative IPC: 0.994739 (Simulation time: 0 hr 39 min 3 sec) 
Heartbeat CPU 0 instructions: 63000003 cycles: 32247022 heartbeat IPC: 1.21847 cumulative IPC: 1.00899 (Simulation time: 0 hr 39 min 49 sec) 
Heartbeat CPU 0 instructions: 64000000 cycles: 33125814 heartbeat IPC: 1.13792 cumulative IPC: 1.01722 (Simulation time: 0 hr 40 min 38 sec) 
Heartbeat CPU 0 instructions: 65000000 cycles: 34195870 heartbeat IPC: 0.934531 cumulative IPC: 1.01126 (Simulation time: 0 hr 41 min 29 sec) 
Heartbeat CPU 0 instructions: 66000001 cycles: 35154427 heartbeat IPC: 1.04324 cumulative IPC: 1.0132 (Simulation time: 0 hr 42 min 15 sec) 
Heartbeat CPU 0 instructions: 67000000 cycles: 36011236 heartbeat IPC: 1.16712 cumulative IPC: 1.02112 (Simulation time: 0 hr 43 min 3 sec) 
Heartbeat CPU 0 instructions: 68000000 cycles: 36901746 heartbeat IPC: 1.12295 cumulative IPC: 1.02629 (Simulation time: 0 hr 43 min 46 sec) 
Heartbeat CPU 0 instructions: 69000003 cycles: 37997964 heartbeat IPC: 0.91223 cumulative IPC: 1.01958 (Simulation time: 0 hr 44 min 31 sec) 
Heartbeat CPU 0 instructions: 70000001 cycles: 38872354 heartbeat IPC: 1.14365 cumulative IPC: 1.02514 (Simulation time: 0 hr 45 min 20 sec) 
Heartbeat CPU 0 instructions: 71000001 cycles: 39722681 heartbeat IPC: 1.17602 cumulative IPC: 1.03144 (Simulation time: 0 hr 46 min 12 sec) 
Heartbeat CPU 0 instructions: 72000000 cycles: 40906529 heartbeat IPC: 0.844702 cumulative IPC: 1.02118 (Simulation time: 0 hr 47 min 5 sec) 
Heartbeat CPU 0 instructions: 73000001 cycles: 41734004 heartbeat IPC: 1.2085 cumulative IPC: 1.02811 (Simulation time: 0 hr 47 min 55 sec) 
Heartbeat CPU 0 instructions: 74000001 cycles: 42591602 heartbeat IPC: 1.16605 cumulative IPC: 1.0332 (Simulation time: 0 hr 48 min 45 sec) 
Heartbeat CPU 0 instructions: 75000003 cycles: 43666308 heartbeat IPC: 0.930489 cumulative IPC: 1.02866 (Simulation time: 0 hr 49 min 36 sec) 
Heartbeat CPU 0 instructions: 76000000 cycles: 44578837 heartbeat IPC: 1.09585 cumulative IPC: 1.03109 (Simulation time: 0 hr 50 min 24 sec) 
Heartbeat CPU 0 instructions: 77000002 cycles: 45429422 heartbeat IPC: 1.17566 cumulative IPC: 1.03581 (Simulation time: 0 hr 51 min 12 sec) 
Heartbeat CPU 0 instructions: 78000002 cycles: 46349562 heartbeat IPC: 1.08679 cumulative IPC: 1.03755 (Simulation time: 0 hr 52 min 0 sec) 
Heartbeat CPU 0 instructions: 79000001 cycles: 47401471 heartbeat IPC: 0.950652 cumulative IPC: 1.03429 (Simulation time: 0 hr 52 min 43 sec) 
Heartbeat CPU 0 instructions: 80000000 cycles: 48267926 heartbeat IPC: 1.15413 cumulative IPC: 1.03788 (Simulation time: 0 hr 53 min 34 sec) 
Heartbeat CPU 0 instructions: 81000001 cycles: 49121303 heartbeat IPC: 1.17182 cumulative IPC: 1.04172 (Simulation time: 0 hr 54 min 22 sec) 
Heartbeat CPU 0 instructions: 82000003 cycles: 50263366 heartbeat IPC: 0.87561 cumulative IPC: 1.03558 (Simulation time: 0 hr 55 min 14 sec) 
Heartbeat CPU 0 instructions: 83000001 cycles: 51104233 heartbeat IPC: 1.18925 cumulative IPC: 1.03965 (Simulation time: 0 hr 56 min 5 sec) 
Heartbeat CPU 0 instructions: 84000000 cycles: 51959687 heartbeat IPC: 1.16897 cumulative IPC: 1.04305 (Simulation time: 0 hr 56 min 55 sec) 
Heartbeat CPU 0 instructions: 85000002 cycles: 53080245 heartbeat IPC: 0.892414 cumulative IPC: 1.03804 (Simulation time: 0 hr 57 min 45 sec) 
Heartbeat CPU 0 instructions: 86000003 cycles: 53951214 heartbeat IPC: 1.14815 cumulative IPC: 1.04081 (Simulation time: 0 hr 58 min 34 sec) 
Heartbeat CPU 0 instructions: 87000001 cycles: 54811078 heartbeat IPC: 1.16297 cumulative IPC: 1.04378 (Simulation time: 0 hr 59 min 22 sec) 
Heartbeat CPU 0 instructions: 88000000 cycles: 55839554 heartbeat IPC: 0.972311 cumulative IPC: 1.04176 (Simulation time: 1 hr 0 min 11 sec) 
Heartbeat CPU 0 instructions: 89000000 cycles: 56854762 heartbeat IPC: 0.98502 cumulative IPC: 1.04022 (Simulation time: 1 hr 0 min 59 sec) 
Heartbeat CPU 0 instructions: 90000003 cycles: 57713041 heartbeat IPC: 1.16513 cumulative IPC: 1.04302 (Simulation time: 1 hr 1 min 48 sec) 
Heartbeat CPU 0 instructions: 91000000 cycles: 58488493 heartbeat IPC: 1.28957 cumulative IPC: 1.04791 (Simulation time: 1 hr 2 min 28 sec) 
Heartbeat CPU 0 instructions: 92000000 cycles: 59687928 heartbeat IPC: 0.833726 cumulative IPC: 1.04154 (Simulation time: 1 hr 3 min 7 sec) 
Heartbeat CPU 0 instructions: 93000000 cycles: 60472365 heartbeat IPC: 1.2748 cumulative IPC: 1.04599 (Simulation time: 1 hr 3 min 47 sec) 
Heartbeat CPU 0 instructions: 94000000 cycles: 61243525 heartbeat IPC: 1.29675 cumulative IPC: 1.0506 (Simulation time: 1 hr 4 min 24 sec) 
Heartbeat CPU 0 instructions: 95000002 cycles: 62483720 heartbeat IPC: 0.806326 cumulative IPC: 1.04358 (Simulation time: 1 hr 5 min 4 sec) 
Heartbeat CPU 0 instructions: 96000000 cycles: 63335673 heartbeat IPC: 1.17377 cumulative IPC: 1.0461 (Simulation time: 1 hr 5 min 39 sec) 
Heartbeat CPU 0 instructions: 97000002 cycles: 64141558 heartbeat IPC: 1.24087 cumulative IPC: 1.04961 (Simulation time: 1 hr 6 min 16 sec) 
Heartbeat CPU 0 instructions: 98000000 cycles: 65212109 heartbeat IPC: 0.934097 cumulative IPC: 1.04691 (Simulation time: 1 hr 6 min 55 sec) 
Heartbeat CPU 0 instructions: 99000003 cycles: 66345477 heartbeat IPC: 0.882329 cumulative IPC: 1.04294 (Simulation time: 1 hr 7 min 28 sec) 
Heartbeat CPU 0 instructions: 100000000 cycles: 67128903 heartbeat IPC: 1.27644 cumulative IPC: 1.04677 (Simulation time: 1 hr 8 min 2 sec) 
Heartbeat CPU 0 instructions: 101000000 cycles: 67860877 heartbeat IPC: 1.36617 cumulative IPC: 1.05159 (Simulation time: 1 hr 8 min 36 sec) 
Heartbeat CPU 0 instructions: 102000000 cycles: 69326228 heartbeat IPC: 0.68243 cumulative IPC: 1.04076 (Simulation time: 1 hr 9 min 15 sec) 
Heartbeat CPU 0 instructions: 103000000 cycles: 70591102 heartbeat IPC: 0.790593 cumulative IPC: 1.03459 (Simulation time: 1 hr 9 min 50 sec) 
Heartbeat CPU 0 instructions: 104000000 cycles: 71520145 heartbeat IPC: 1.07638 cumulative IPC: 1.03533 (Simulation time: 1 hr 10 min 24 sec) 
Heartbeat CPU 0 instructions: 105000003 cycles: 72336311 heartbeat IPC: 1.22524 cumulative IPC: 1.03826 (Simulation time: 1 hr 11 min 3 sec) 
Heartbeat CPU 0 instructions: 106000000 cycles: 73185089 heartbeat IPC: 1.17816 cumulative IPC: 1.04046 (Simulation time: 1 hr 11 min 37 sec) 
Heartbeat CPU 0 instructions: 107000001 cycles: 74689532 heartbeat IPC: 0.664698 cumulative IPC: 1.03024 (Simulation time: 1 hr 12 min 18 sec) 
Heartbeat CPU 0 instructions: 108000000 cycles: 75598506 heartbeat IPC: 1.10014 cumulative IPC: 1.03137 (Simulation time: 1 hr 12 min 54 sec) 
Heartbeat CPU 0 instructions: 109000000 cycles: 76418175 heartbeat IPC: 1.22 cumulative IPC: 1.03408 (Simulation time: 1 hr 13 min 29 sec) 
Heartbeat CPU 0 instructions: 110000000 cycles: 77491815 heartbeat IPC: 0.931411 cumulative IPC: 1.03219 (Simulation time: 1 hr 14 min 7 sec) 
Heartbeat CPU 0 instructions: 111000000 cycles: 78893685 heartbeat IPC: 0.713333 cumulative IPC: 1.02468 (Simulation time: 1 hr 14 min 48 sec) 
Heartbeat CPU 0 instructions: 112000000 cycles: 79844355 heartbeat IPC: 1.05189 cumulative IPC: 1.02511 (Simulation time: 1 hr 15 min 24 sec) 
Heartbeat CPU 0 instructions: 113000002 cycles: 80700782 heartbeat IPC: 1.16764 cumulative IPC: 1.0271 (Simulation time: 1 hr 15 min 59 sec) 
Heartbeat CPU 0 instructions: 114000000 cycles: 81967975 heartbeat IPC: 0.789144 cumulative IPC: 1.02228 (Simulation time: 1 hr 16 min 37 sec) 
Heartbeat CPU 0 instructions: 115000001 cycles: 83376358 heartbeat IPC: 0.710035 cumulative IPC: 1.01541 (Simulation time: 1 hr 17 min 17 sec) 
Heartbeat CPU 0 instructions: 116000000 cycles: 84264912 heartbeat IPC: 1.12542 cumulative IPC: 1.01692 (Simulation time: 1 hr 17 min 54 sec) 
Heartbeat CPU 0 instructions: 117000000 cycles: 85078536 heartbeat IPC: 1.22907 cumulative IPC: 1.01954 (Simulation time: 1 hr 18 min 32 sec) 
Heartbeat CPU 0 instructions: 118000003 cycles: 86391485 heartbeat IPC: 0.761647 cumulative IPC: 1.01449 (Simulation time: 1 hr 19 min 11 sec) 
Heartbeat CPU 0 instructions: 119000003 cycles: 87462626 heartbeat IPC: 0.933584 cumulative IPC: 1.01322 (Simulation time: 1 hr 19 min 50 sec) 
Heartbeat CPU 0 instructions: 120000000 cycles: 88308155 heartbeat IPC: 1.18269 cumulative IPC: 1.0153 (Simulation time: 1 hr 20 min 27 sec) 
Heartbeat CPU 0 instructions: 121000001 cycles: 89112670 heartbeat IPC: 1.24299 cumulative IPC: 1.01792 (Simulation time: 1 hr 21 min 2 sec) 
Heartbeat CPU 0 instructions: 122000002 cycles: 90444677 heartbeat IPC: 0.750748 cumulative IPC: 1.01292 (Simulation time: 1 hr 21 min 44 sec) 
Heartbeat CPU 0 instructions: 123000000 cycles: 91248135 heartbeat IPC: 1.24462 cumulative IPC: 1.01551 (Simulation time: 1 hr 22 min 22 sec) 
Heartbeat CPU 0 instructions: 124000000 cycles: 92012103 heartbeat IPC: 1.30896 cumulative IPC: 1.01859 (Simulation time: 1 hr 22 min 58 sec) 
Heartbeat CPU 0 instructions: 125000002 cycles: 93237878 heartbeat IPC: 0.815812 cumulative IPC: 1.01523 (Simulation time: 1 hr 23 min 37 sec) 
Heartbeat CPU 0 instructions: 126000000 cycles: 94109412 heartbeat IPC: 1.1474 cumulative IPC: 1.01677 (Simulation time: 1 hr 24 min 13 sec) 
Heartbeat CPU 0 instructions: 127000001 cycles: 94950075 heartbeat IPC: 1.18954 cumulative IPC: 1.01869 (Simulation time: 1 hr 24 min 48 sec) 
Heartbeat CPU 0 instructions: 128000000 cycles: 95814873 heartbeat IPC: 1.15634 cumulative IPC: 1.02025 (Simulation time: 1 hr 25 min 25 sec) 
Heartbeat CPU 0 instructions: 129000002 cycles: 96694334 heartbeat IPC: 1.13706 cumulative IPC: 1.02158 (Simulation time: 1 hr 26 min 0 sec) 
Heartbeat CPU 0 instructions: 130000000 cycles: 97404339 heartbeat IPC: 1.40844 cumulative IPC: 1.0251 (Simulation time: 1 hr 26 min 35 sec) 
Heartbeat CPU 0 instructions: 131000000 cycles: 98156281 heartbeat IPC: 1.32989 cumulative IPC: 1.028 (Simulation time: 1 hr 27 min 8 sec) 
Heartbeat CPU 0 instructions: 132000000 cycles: 99071578 heartbeat IPC: 1.09254 cumulative IPC: 1.02875 (Simulation time: 1 hr 27 min 40 sec) 
Heartbeat CPU 0 instructions: 133000002 cycles: 99828781 heartbeat IPC: 1.32065 cumulative IPC: 1.03149 (Simulation time: 1 hr 28 min 13 sec) 
Heartbeat CPU 0 instructions: 134000000 cycles: 100727855 heartbeat IPC: 1.11225 cumulative IPC: 1.03238 (Simulation time: 1 hr 28 min 48 sec) 
Heartbeat CPU 0 instructions: 135000001 cycles: 101962868 heartbeat IPC: 0.809709 cumulative IPC: 1.02906 (Simulation time: 1 hr 29 min 21 sec) 
Heartbeat CPU 0 instructions: 136000000 cycles: 102837811 heartbeat IPC: 1.14293 cumulative IPC: 1.03025 (Simulation time: 1 hr 29 min 54 sec) 
Heartbeat CPU 0 instructions: 137000003 cycles: 103584137 heartbeat IPC: 1.3399 cumulative IPC: 1.03299 (Simulation time: 1 hr 30 min 27 sec) 
Heartbeat CPU 0 instructions: 138000001 cycles: 104796543 heartbeat IPC: 0.824805 cumulative IPC: 1.03004 (Simulation time: 1 hr 31 min 1 sec) 
Heartbeat CPU 0 instructions: 139000001 cycles: 105635064 heartbeat IPC: 1.19258 cumulative IPC: 1.03162 (Simulation time: 1 hr 31 min 35 sec) 
Heartbeat CPU 0 instructions: 140000000 cycles: 106433767 heartbeat IPC: 1.25203 cumulative IPC: 1.03364 (Simulation time: 1 hr 32 min 7 sec) 
Heartbeat CPU 0 instructions: 141000001 cycles: 107479395 heartbeat IPC: 0.956364 cumulative IPC: 1.03272 (Simulation time: 1 hr 32 min 38 sec) 
Heartbeat CPU 0 instructions: 142000000 cycles: 108439273 heartbeat IPC: 1.0418 cumulative IPC: 1.03282 (Simulation time: 1 hr 33 min 6 sec) 
Heartbeat CPU 0 instructions: 143000000 cycles: 109261002 heartbeat IPC: 1.21695 cumulative IPC: 1.0345 (Simulation time: 1 hr 33 min 37 sec) 
Heartbeat CPU 0 instructions: 144000000 cycles: 110112502 heartbeat IPC: 1.1744 cumulative IPC: 1.03582 (Simulation time: 1 hr 34 min 4 sec) 
Heartbeat CPU 0 instructions: 145000002 cycles: 111229374 heartbeat IPC: 0.89536 cumulative IPC: 1.03411 (Simulation time: 1 hr 34 min 31 sec) 
Heartbeat CPU 0 instructions: 146000000 cycles: 112075166 heartbeat IPC: 1.18232 cumulative IPC: 1.03546 (Simulation time: 1 hr 34 min 58 sec) 
Heartbeat CPU 0 instructions: 147000002 cycles: 112907356 heartbeat IPC: 1.20165 cumulative IPC: 1.03694 (Simulation time: 1 hr 35 min 26 sec) 
Heartbeat CPU 0 instructions: 148000000 cycles: 114238371 heartbeat IPC: 0.751305 cumulative IPC: 1.03293 (Simulation time: 1 hr 35 min 56 sec) 
Heartbeat CPU 0 instructions: 149000000 cycles: 115400718 heartbeat IPC: 0.860328 cumulative IPC: 1.03084 (Simulation time: 1 hr 36 min 25 sec) 
Heartbeat CPU 0 instructions: 150000001 cycles: 116274392 heartbeat IPC: 1.14459 cumulative IPC: 1.03187 (Simulation time: 1 hr 36 min 51 sec) 
Finished CPU 0 instructions: 100000003 cycles: 96911541 cummulative IPC: 1.03187 (Simulation time: 1 hr 36 min 51 sec) 

ChampSim completed all CPUs

Region of Interest Statistics

CPU 0 cummulative IPC: 1.03187 instructions: 100000003 cycles: 96911541
LLC TOTAL     ACCESS:    1600632  HIT:     809401  MISS:     791231
LLC LOAD      ACCESS:     216534  HIT:     170663  MISS:      45871
LLC RFO       ACCESS:     111329  HIT:     104770  MISS:       6559
LLC PREFETCH  ACCESS:    1135794  HIT:     397117  MISS:     738677
LLC WRITEBACK ACCESS:     136975  HIT:     136851  MISS:        124
OPTgen accesses: 4301
OPTgen hits: 4249
OPTgen hit rate: 98.791


