
*** ChampSim Multicore Out-of-Order Simulator ***

Warmup Instructions: 50000000
Simulation Instructions: 100000000
Configuration: 2
Number of CPUs: 1
LLC sets: 2048
LLC ways: 16
Off-chip DRAM Channels: 1 Width: 64-bit Data Rate: 1600 MT/s

CPU 0 runs /datasets/cs240c-wi22-a00-public/data/Assignment2-gz/astar_163B.trace.gz
CPU 0 L1D next line prefetcher
CPU 0 L2C IP-based stride prefetcher
Initialize Hawkeye state
Heartbeat CPU 0 instructions: 1000002 cycles: 531212 heartbeat IPC: 1.88249 cumulative IPC: 1.88249 (Simulation time: 0 hr 0 min 42 sec) 
Heartbeat CPU 0 instructions: 2000003 cycles: 1060827 heartbeat IPC: 1.88817 cumulative IPC: 1.88532 (Simulation time: 0 hr 1 min 21 sec) 
Heartbeat CPU 0 instructions: 3000003 cycles: 1590862 heartbeat IPC: 1.88667 cumulative IPC: 1.88577 (Simulation time: 0 hr 2 min 1 sec) 
Heartbeat CPU 0 instructions: 4000000 cycles: 2120964 heartbeat IPC: 1.88642 cumulative IPC: 1.88593 (Simulation time: 0 hr 2 min 42 sec) 
Heartbeat CPU 0 instructions: 5000000 cycles: 2652875 heartbeat IPC: 1.88001 cumulative IPC: 1.88475 (Simulation time: 0 hr 3 min 24 sec) 
Heartbeat CPU 0 instructions: 6000002 cycles: 3181390 heartbeat IPC: 1.8921 cumulative IPC: 1.88597 (Simulation time: 0 hr 4 min 6 sec) 
Heartbeat CPU 0 instructions: 7000003 cycles: 3710904 heartbeat IPC: 1.88853 cumulative IPC: 1.88633 (Simulation time: 0 hr 4 min 49 sec) 
Heartbeat CPU 0 instructions: 8000000 cycles: 4240186 heartbeat IPC: 1.88935 cumulative IPC: 1.88671 (Simulation time: 0 hr 5 min 29 sec) 
Heartbeat CPU 0 instructions: 9000000 cycles: 4771193 heartbeat IPC: 1.88321 cumulative IPC: 1.88632 (Simulation time: 0 hr 6 min 7 sec) 
Heartbeat CPU 0 instructions: 10000001 cycles: 5301292 heartbeat IPC: 1.88644 cumulative IPC: 1.88633 (Simulation time: 0 hr 6 min 45 sec) 
Heartbeat CPU 0 instructions: 11000003 cycles: 5830341 heartbeat IPC: 1.89019 cumulative IPC: 1.88668 (Simulation time: 0 hr 7 min 24 sec) 
Heartbeat CPU 0 instructions: 12000000 cycles: 6359111 heartbeat IPC: 1.89118 cumulative IPC: 1.88706 (Simulation time: 0 hr 8 min 3 sec) 
Heartbeat CPU 0 instructions: 13000002 cycles: 6888965 heartbeat IPC: 1.88732 cumulative IPC: 1.88708 (Simulation time: 0 hr 8 min 45 sec) 
Heartbeat CPU 0 instructions: 14000000 cycles: 7419097 heartbeat IPC: 1.88632 cumulative IPC: 1.88702 (Simulation time: 0 hr 9 min 22 sec) 
Heartbeat CPU 0 instructions: 15000000 cycles: 7949453 heartbeat IPC: 1.88553 cumulative IPC: 1.88692 (Simulation time: 0 hr 10 min 4 sec) 
Heartbeat CPU 0 instructions: 16000000 cycles: 8480326 heartbeat IPC: 1.88369 cumulative IPC: 1.88672 (Simulation time: 0 hr 10 min 43 sec) 
Heartbeat CPU 0 instructions: 17000002 cycles: 9009926 heartbeat IPC: 1.88822 cumulative IPC: 1.88681 (Simulation time: 0 hr 11 min 21 sec) 
Heartbeat CPU 0 instructions: 18000002 cycles: 9539313 heartbeat IPC: 1.88898 cumulative IPC: 1.88693 (Simulation time: 0 hr 12 min 2 sec) 
Heartbeat CPU 0 instructions: 19000003 cycles: 10069878 heartbeat IPC: 1.88479 cumulative IPC: 1.88682 (Simulation time: 0 hr 12 min 41 sec) 
Heartbeat CPU 0 instructions: 20000000 cycles: 10600174 heartbeat IPC: 1.88573 cumulative IPC: 1.88676 (Simulation time: 0 hr 13 min 22 sec) 
Heartbeat CPU 0 instructions: 21000003 cycles: 11130287 heartbeat IPC: 1.8864 cumulative IPC: 1.88674 (Simulation time: 0 hr 14 min 5 sec) 
Heartbeat CPU 0 instructions: 22000001 cycles: 11661870 heartbeat IPC: 1.88117 cumulative IPC: 1.88649 (Simulation time: 0 hr 14 min 44 sec) 
Heartbeat CPU 0 instructions: 23000001 cycles: 12192024 heartbeat IPC: 1.88624 cumulative IPC: 1.88648 (Simulation time: 0 hr 15 min 23 sec) 
Heartbeat CPU 0 instructions: 24000000 cycles: 12722910 heartbeat IPC: 1.88364 cumulative IPC: 1.88636 (Simulation time: 0 hr 16 min 2 sec) 
Heartbeat CPU 0 instructions: 25000003 cycles: 13223701 heartbeat IPC: 1.99685 cumulative IPC: 1.89055 (Simulation time: 0 hr 16 min 38 sec) 
Heartbeat CPU 0 instructions: 26000002 cycles: 13727972 heartbeat IPC: 1.98306 cumulative IPC: 1.89394 (Simulation time: 0 hr 17 min 16 sec) 
Heartbeat CPU 0 instructions: 27000000 cycles: 14239966 heartbeat IPC: 1.95314 cumulative IPC: 1.89607 (Simulation time: 0 hr 17 min 53 sec) 
Heartbeat CPU 0 instructions: 28000000 cycles: 14763478 heartbeat IPC: 1.91018 cumulative IPC: 1.89657 (Simulation time: 0 hr 18 min 31 sec) 
Heartbeat CPU 0 instructions: 29000003 cycles: 15291382 heartbeat IPC: 1.89429 cumulative IPC: 1.89649 (Simulation time: 0 hr 19 min 9 sec) 
Heartbeat CPU 0 instructions: 30000000 cycles: 15814755 heartbeat IPC: 1.91068 cumulative IPC: 1.89696 (Simulation time: 0 hr 19 min 47 sec) 
Heartbeat CPU 0 instructions: 31000001 cycles: 16335397 heartbeat IPC: 1.92071 cumulative IPC: 1.89772 (Simulation time: 0 hr 20 min 22 sec) 
Heartbeat CPU 0 instructions: 32000000 cycles: 16862680 heartbeat IPC: 1.89651 cumulative IPC: 1.89768 (Simulation time: 0 hr 20 min 58 sec) 
Heartbeat CPU 0 instructions: 33000001 cycles: 17383124 heartbeat IPC: 1.92144 cumulative IPC: 1.89839 (Simulation time: 0 hr 21 min 37 sec) 
Heartbeat CPU 0 instructions: 34000001 cycles: 17905970 heartbeat IPC: 1.91261 cumulative IPC: 1.89881 (Simulation time: 0 hr 22 min 14 sec) 
Heartbeat CPU 0 instructions: 35000000 cycles: 18431451 heartbeat IPC: 1.90302 cumulative IPC: 1.89893 (Simulation time: 0 hr 22 min 50 sec) 
Heartbeat CPU 0 instructions: 36000000 cycles: 18958376 heartbeat IPC: 1.8978 cumulative IPC: 1.8989 (Simulation time: 0 hr 23 min 30 sec) 
Heartbeat CPU 0 instructions: 37000002 cycles: 19475832 heartbeat IPC: 1.93254 cumulative IPC: 1.89979 (Simulation time: 0 hr 24 min 7 sec) 
Heartbeat CPU 0 instructions: 38000002 cycles: 19995772 heartbeat IPC: 1.9233 cumulative IPC: 1.9004 (Simulation time: 0 hr 24 min 43 sec) 
Heartbeat CPU 0 instructions: 39000001 cycles: 20516084 heartbeat IPC: 1.92192 cumulative IPC: 1.90095 (Simulation time: 0 hr 25 min 18 sec) 
Heartbeat CPU 0 instructions: 40000000 cycles: 21034916 heartbeat IPC: 1.9274 cumulative IPC: 1.9016 (Simulation time: 0 hr 25 min 57 sec) 
Heartbeat CPU 0 instructions: 41000001 cycles: 21556250 heartbeat IPC: 1.91816 cumulative IPC: 1.902 (Simulation time: 0 hr 26 min 31 sec) 
Heartbeat CPU 0 instructions: 42000002 cycles: 22070182 heartbeat IPC: 1.94578 cumulative IPC: 1.90302 (Simulation time: 0 hr 27 min 7 sec) 
Heartbeat CPU 0 instructions: 43000001 cycles: 22583738 heartbeat IPC: 1.94721 cumulative IPC: 1.90402 (Simulation time: 0 hr 27 min 44 sec) 
Heartbeat CPU 0 instructions: 44000000 cycles: 23103707 heartbeat IPC: 1.92319 cumulative IPC: 1.90446 (Simulation time: 0 hr 28 min 20 sec) 
Heartbeat CPU 0 instructions: 45000001 cycles: 23619980 heartbeat IPC: 1.93696 cumulative IPC: 1.90517 (Simulation time: 0 hr 28 min 56 sec) 
Heartbeat CPU 0 instructions: 46000003 cycles: 24144320 heartbeat IPC: 1.90716 cumulative IPC: 1.90521 (Simulation time: 0 hr 29 min 35 sec) 
Heartbeat CPU 0 instructions: 47000000 cycles: 24667913 heartbeat IPC: 1.90987 cumulative IPC: 1.90531 (Simulation time: 0 hr 30 min 12 sec) 
Heartbeat CPU 0 instructions: 48000000 cycles: 25188226 heartbeat IPC: 1.92192 cumulative IPC: 1.90565 (Simulation time: 0 hr 30 min 50 sec) 
Heartbeat CPU 0 instructions: 49000003 cycles: 25714134 heartbeat IPC: 1.90148 cumulative IPC: 1.90557 (Simulation time: 0 hr 31 min 28 sec) 
Heartbeat CPU 0 instructions: 50000001 cycles: 26240749 heartbeat IPC: 1.89892 cumulative IPC: 1.90543 (Simulation time: 0 hr 32 min 6 sec) 

Warmup complete CPU 0 instructions: 50000001 cycles: 26240749 (Simulation time: 0 hr 32 min 6 sec) 

Heartbeat CPU 0 instructions: 51000003 cycles: 28180081 heartbeat IPC: 0.515643 cumulative IPC: 0.515643 (Simulation time: 0 hr 32 min 49 sec) 
Heartbeat CPU 0 instructions: 52000000 cycles: 30225490 heartbeat IPC: 0.488898 cumulative IPC: 0.501914 (Simulation time: 0 hr 33 min 29 sec) 
Heartbeat CPU 0 instructions: 53000001 cycles: 32217669 heartbeat IPC: 0.501963 cumulative IPC: 0.501931 (Simulation time: 0 hr 34 min 10 sec) 
Heartbeat CPU 0 instructions: 54000003 cycles: 34147160 heartbeat IPC: 0.518272 cumulative IPC: 0.505919 (Simulation time: 0 hr 34 min 54 sec) 
Heartbeat CPU 0 instructions: 55000000 cycles: 36029772 heartbeat IPC: 0.531175 cumulative IPC: 0.510776 (Simulation time: 0 hr 35 min 41 sec) 
Heartbeat CPU 0 instructions: 56000000 cycles: 37939243 heartbeat IPC: 0.523705 cumulative IPC: 0.512886 (Simulation time: 0 hr 36 min 30 sec) 
Heartbeat CPU 0 instructions: 57000000 cycles: 39815349 heartbeat IPC: 0.533019 cumulative IPC: 0.515669 (Simulation time: 0 hr 37 min 20 sec) 
Heartbeat CPU 0 instructions: 58000001 cycles: 41745102 heartbeat IPC: 0.518202 cumulative IPC: 0.515984 (Simulation time: 0 hr 38 min 7 sec) 
Heartbeat CPU 0 instructions: 59000003 cycles: 43661245 heartbeat IPC: 0.521883 cumulative IPC: 0.516633 (Simulation time: 0 hr 38 min 53 sec) 
Heartbeat CPU 0 instructions: 60000000 cycles: 45571318 heartbeat IPC: 0.523539 cumulative IPC: 0.517315 (Simulation time: 0 hr 39 min 42 sec) 
Heartbeat CPU 0 instructions: 61000002 cycles: 47502706 heartbeat IPC: 0.517763 cumulative IPC: 0.517356 (Simulation time: 0 hr 40 min 29 sec) 
Heartbeat CPU 0 instructions: 62000001 cycles: 49435199 heartbeat IPC: 0.517466 cumulative IPC: 0.517365 (Simulation time: 0 hr 41 min 17 sec) 
Heartbeat CPU 0 instructions: 63000001 cycles: 51528212 heartbeat IPC: 0.47778 cumulative IPC: 0.514089 (Simulation time: 0 hr 42 min 1 sec) 
Heartbeat CPU 0 instructions: 64000000 cycles: 53491840 heartbeat IPC: 0.509261 cumulative IPC: 0.513741 (Simulation time: 0 hr 42 min 45 sec) 
Heartbeat CPU 0 instructions: 65000000 cycles: 55442737 heartbeat IPC: 0.512585 cumulative IPC: 0.513664 (Simulation time: 0 hr 43 min 31 sec) 
Heartbeat CPU 0 instructions: 66000000 cycles: 57417920 heartbeat IPC: 0.506282 cumulative IPC: 0.513196 (Simulation time: 0 hr 44 min 17 sec) 
Heartbeat CPU 0 instructions: 67000003 cycles: 59384593 heartbeat IPC: 0.508474 cumulative IPC: 0.512916 (Simulation time: 0 hr 45 min 3 sec) 
Heartbeat CPU 0 instructions: 68000000 cycles: 61324347 heartbeat IPC: 0.515528 cumulative IPC: 0.51306 (Simulation time: 0 hr 45 min 48 sec) 
Heartbeat CPU 0 instructions: 69000000 cycles: 63285800 heartbeat IPC: 0.509826 cumulative IPC: 0.512889 (Simulation time: 0 hr 46 min 34 sec) 
Heartbeat CPU 0 instructions: 70000003 cycles: 65244185 heartbeat IPC: 0.510626 cumulative IPC: 0.512775 (Simulation time: 0 hr 47 min 20 sec) 
Heartbeat CPU 0 instructions: 71000001 cycles: 67210589 heartbeat IPC: 0.508541 cumulative IPC: 0.512572 (Simulation time: 0 hr 48 min 5 sec) 
Heartbeat CPU 0 instructions: 72000000 cycles: 69171655 heartbeat IPC: 0.509926 cumulative IPC: 0.512451 (Simulation time: 0 hr 48 min 49 sec) 
Heartbeat CPU 0 instructions: 73000000 cycles: 71136384 heartbeat IPC: 0.508976 cumulative IPC: 0.512299 (Simulation time: 0 hr 49 min 34 sec) 
Heartbeat CPU 0 instructions: 74000000 cycles: 73103363 heartbeat IPC: 0.508394 cumulative IPC: 0.512135 (Simulation time: 0 hr 50 min 20 sec) 
Heartbeat CPU 0 instructions: 75000001 cycles: 75030093 heartbeat IPC: 0.519015 cumulative IPC: 0.512407 (Simulation time: 0 hr 51 min 7 sec) 
Heartbeat CPU 0 instructions: 76000000 cycles: 76974220 heartbeat IPC: 0.514369 cumulative IPC: 0.512482 (Simulation time: 0 hr 51 min 52 sec) 
Heartbeat CPU 0 instructions: 77000001 cycles: 79021623 heartbeat IPC: 0.488424 cumulative IPC: 0.511549 (Simulation time: 0 hr 52 min 33 sec) 
Heartbeat CPU 0 instructions: 78000000 cycles: 80986889 heartbeat IPC: 0.508836 cumulative IPC: 0.511452 (Simulation time: 0 hr 53 min 17 sec) 
Heartbeat CPU 0 instructions: 79000003 cycles: 83046300 heartbeat IPC: 0.485577 cumulative IPC: 0.510514 (Simulation time: 0 hr 54 min 2 sec) 
Heartbeat CPU 0 instructions: 80000000 cycles: 85167593 heartbeat IPC: 0.471409 cumulative IPC: 0.509106 (Simulation time: 0 hr 54 min 45 sec) 
Heartbeat CPU 0 instructions: 81000003 cycles: 87297092 heartbeat IPC: 0.469595 cumulative IPC: 0.507728 (Simulation time: 0 hr 55 min 28 sec) 
Heartbeat CPU 0 instructions: 82000000 cycles: 89380190 heartbeat IPC: 0.480053 cumulative IPC: 0.506815 (Simulation time: 0 hr 56 min 12 sec) 
Heartbeat CPU 0 instructions: 83000000 cycles: 91378021 heartbeat IPC: 0.500543 cumulative IPC: 0.506622 (Simulation time: 0 hr 56 min 57 sec) 
Heartbeat CPU 0 instructions: 84000000 cycles: 93373297 heartbeat IPC: 0.501184 cumulative IPC: 0.506461 (Simulation time: 0 hr 57 min 40 sec) 
Heartbeat CPU 0 instructions: 85000001 cycles: 95349430 heartbeat IPC: 0.506039 cumulative IPC: 0.506449 (Simulation time: 0 hr 58 min 23 sec) 
Heartbeat CPU 0 instructions: 86000002 cycles: 97321005 heartbeat IPC: 0.507209 cumulative IPC: 0.50647 (Simulation time: 0 hr 59 min 10 sec) 
Heartbeat CPU 0 instructions: 87000000 cycles: 99322623 heartbeat IPC: 0.499595 cumulative IPC: 0.506281 (Simulation time: 0 hr 59 min 52 sec) 
Heartbeat CPU 0 instructions: 88000000 cycles: 101387374 heartbeat IPC: 0.48432 cumulative IPC: 0.505678 (Simulation time: 1 hr 0 min 37 sec) 
Heartbeat CPU 0 instructions: 89000003 cycles: 103380161 heartbeat IPC: 0.501811 cumulative IPC: 0.505578 (Simulation time: 1 hr 1 min 23 sec) 
Heartbeat CPU 0 instructions: 90000000 cycles: 105358571 heartbeat IPC: 0.505455 cumulative IPC: 0.505575 (Simulation time: 1 hr 2 min 8 sec) 
Heartbeat CPU 0 instructions: 91000000 cycles: 107354957 heartbeat IPC: 0.500905 cumulative IPC: 0.50546 (Simulation time: 1 hr 2 min 57 sec) 
Heartbeat CPU 0 instructions: 92000000 cycles: 109356909 heartbeat IPC: 0.499512 cumulative IPC: 0.505317 (Simulation time: 1 hr 3 min 45 sec) 
Heartbeat CPU 0 instructions: 93000003 cycles: 111316975 heartbeat IPC: 0.510188 cumulative IPC: 0.505429 (Simulation time: 1 hr 4 min 35 sec) 
Heartbeat CPU 0 instructions: 94000000 cycles: 113271362 heartbeat IPC: 0.511668 cumulative IPC: 0.505569 (Simulation time: 1 hr 5 min 22 sec) 
Heartbeat CPU 0 instructions: 95000000 cycles: 115255179 heartbeat IPC: 0.504079 cumulative IPC: 0.505536 (Simulation time: 1 hr 6 min 13 sec) 
Heartbeat CPU 0 instructions: 96000000 cycles: 117283214 heartbeat IPC: 0.493088 cumulative IPC: 0.505259 (Simulation time: 1 hr 7 min 1 sec) 
Heartbeat CPU 0 instructions: 97000000 cycles: 119308395 heartbeat IPC: 0.493783 cumulative IPC: 0.505009 (Simulation time: 1 hr 7 min 48 sec) 
Heartbeat CPU 0 instructions: 98000000 cycles: 121314351 heartbeat IPC: 0.498515 cumulative IPC: 0.504872 (Simulation time: 1 hr 8 min 35 sec) 
Heartbeat CPU 0 instructions: 99000000 cycles: 123422014 heartbeat IPC: 0.474459 cumulative IPC: 0.504212 (Simulation time: 1 hr 9 min 21 sec) 
Heartbeat CPU 0 instructions: 100000000 cycles: 125442668 heartbeat IPC: 0.494889 cumulative IPC: 0.504022 (Simulation time: 1 hr 10 min 8 sec) 
Heartbeat CPU 0 instructions: 101000000 cycles: 127486842 heartbeat IPC: 0.489195 cumulative IPC: 0.503723 (Simulation time: 1 hr 10 min 52 sec) 
Heartbeat CPU 0 instructions: 102000003 cycles: 129500057 heartbeat IPC: 0.496719 cumulative IPC: 0.503587 (Simulation time: 1 hr 11 min 36 sec) 
Heartbeat CPU 0 instructions: 103000000 cycles: 131456198 heartbeat IPC: 0.511209 cumulative IPC: 0.503728 (Simulation time: 1 hr 12 min 22 sec) 
Heartbeat CPU 0 instructions: 104000000 cycles: 133395850 heartbeat IPC: 0.515556 cumulative IPC: 0.503942 (Simulation time: 1 hr 13 min 7 sec) 
Heartbeat CPU 0 instructions: 105000002 cycles: 135344951 heartbeat IPC: 0.513058 cumulative IPC: 0.504105 (Simulation time: 1 hr 13 min 51 sec) 
Heartbeat CPU 0 instructions: 106000003 cycles: 137281159 heartbeat IPC: 0.516474 cumulative IPC: 0.504321 (Simulation time: 1 hr 14 min 37 sec) 
Heartbeat CPU 0 instructions: 107000000 cycles: 139238122 heartbeat IPC: 0.510994 cumulative IPC: 0.504436 (Simulation time: 1 hr 15 min 23 sec) 
Heartbeat CPU 0 instructions: 108000000 cycles: 141318060 heartbeat IPC: 0.480784 cumulative IPC: 0.504009 (Simulation time: 1 hr 16 min 5 sec) 
Heartbeat CPU 0 instructions: 109000003 cycles: 143367284 heartbeat IPC: 0.487991 cumulative IPC: 0.503729 (Simulation time: 1 hr 16 min 51 sec) 
Heartbeat CPU 0 instructions: 110000002 cycles: 145368858 heartbeat IPC: 0.499606 cumulative IPC: 0.503659 (Simulation time: 1 hr 17 min 36 sec) 
Heartbeat CPU 0 instructions: 111000002 cycles: 147369785 heartbeat IPC: 0.499768 cumulative IPC: 0.503595 (Simulation time: 1 hr 18 min 28 sec) 
Heartbeat CPU 0 instructions: 112000000 cycles: 149378978 heartbeat IPC: 0.497711 cumulative IPC: 0.503499 (Simulation time: 1 hr 19 min 18 sec) 
Heartbeat CPU 0 instructions: 113000000 cycles: 151378413 heartbeat IPC: 0.500141 cumulative IPC: 0.503446 (Simulation time: 1 hr 20 min 10 sec) 
Heartbeat CPU 0 instructions: 114000001 cycles: 153382998 heartbeat IPC: 0.498857 cumulative IPC: 0.503373 (Simulation time: 1 hr 20 min 59 sec) 
Heartbeat CPU 0 instructions: 115000000 cycles: 155384569 heartbeat IPC: 0.499607 cumulative IPC: 0.503315 (Simulation time: 1 hr 21 min 45 sec) 
Heartbeat CPU 0 instructions: 116000000 cycles: 157420406 heartbeat IPC: 0.491198 cumulative IPC: 0.503127 (Simulation time: 1 hr 22 min 34 sec) 
Heartbeat CPU 0 instructions: 117000000 cycles: 159488707 heartbeat IPC: 0.483489 cumulative IPC: 0.502822 (Simulation time: 1 hr 23 min 20 sec) 
Heartbeat CPU 0 instructions: 118000002 cycles: 161573015 heartbeat IPC: 0.479777 cumulative IPC: 0.502467 (Simulation time: 1 hr 24 min 8 sec) 
Heartbeat CPU 0 instructions: 119000001 cycles: 163633038 heartbeat IPC: 0.485431 cumulative IPC: 0.502212 (Simulation time: 1 hr 24 min 55 sec) 
Heartbeat CPU 0 instructions: 120000000 cycles: 165653145 heartbeat IPC: 0.495023 cumulative IPC: 0.502107 (Simulation time: 1 hr 25 min 39 sec) 
Heartbeat CPU 0 instructions: 121000000 cycles: 167735730 heartbeat IPC: 0.480172 cumulative IPC: 0.501785 (Simulation time: 1 hr 26 min 18 sec) 
Heartbeat CPU 0 instructions: 122000001 cycles: 169886927 heartbeat IPC: 0.464858 cumulative IPC: 0.501232 (Simulation time: 1 hr 26 min 53 sec) 
Heartbeat CPU 0 instructions: 123000000 cycles: 171957777 heartbeat IPC: 0.482893 cumulative IPC: 0.500971 (Simulation time: 1 hr 27 min 31 sec) 
Heartbeat CPU 0 instructions: 124000000 cycles: 173962308 heartbeat IPC: 0.49887 cumulative IPC: 0.500942 (Simulation time: 1 hr 28 min 7 sec) 
Heartbeat CPU 0 instructions: 125000001 cycles: 175940398 heartbeat IPC: 0.505539 cumulative IPC: 0.501003 (Simulation time: 1 hr 28 min 45 sec) 
Heartbeat CPU 0 instructions: 126000000 cycles: 177938835 heartbeat IPC: 0.500391 cumulative IPC: 0.500995 (Simulation time: 1 hr 29 min 21 sec) 
Heartbeat CPU 0 instructions: 127000001 cycles: 179932098 heartbeat IPC: 0.50169 cumulative IPC: 0.501004 (Simulation time: 1 hr 29 min 59 sec) 
Heartbeat CPU 0 instructions: 128000000 cycles: 181959415 heartbeat IPC: 0.493262 cumulative IPC: 0.500903 (Simulation time: 1 hr 30 min 38 sec) 
Heartbeat CPU 0 instructions: 129000000 cycles: 184018062 heartbeat IPC: 0.485756 cumulative IPC: 0.500706 (Simulation time: 1 hr 31 min 16 sec) 
Heartbeat CPU 0 instructions: 130000002 cycles: 186044859 heartbeat IPC: 0.49339 cumulative IPC: 0.500613 (Simulation time: 1 hr 31 min 55 sec) 
Heartbeat CPU 0 instructions: 131000001 cycles: 188034743 heartbeat IPC: 0.502541 cumulative IPC: 0.500637 (Simulation time: 1 hr 32 min 32 sec) 
Heartbeat CPU 0 instructions: 132000000 cycles: 190030386 heartbeat IPC: 0.501091 cumulative IPC: 0.500642 (Simulation time: 1 hr 33 min 9 sec) 
Heartbeat CPU 0 instructions: 133000001 cycles: 192027588 heartbeat IPC: 0.500701 cumulative IPC: 0.500643 (Simulation time: 1 hr 33 min 43 sec) 
Heartbeat CPU 0 instructions: 134000002 cycles: 194027282 heartbeat IPC: 0.500077 cumulative IPC: 0.500636 (Simulation time: 1 hr 34 min 19 sec) 
Heartbeat CPU 0 instructions: 135000003 cycles: 196042515 heartbeat IPC: 0.496221 cumulative IPC: 0.500584 (Simulation time: 1 hr 34 min 53 sec) 
Heartbeat CPU 0 instructions: 136000000 cycles: 198029823 heartbeat IPC: 0.503192 cumulative IPC: 0.500614 (Simulation time: 1 hr 35 min 28 sec) 
Heartbeat CPU 0 instructions: 137000000 cycles: 200013846 heartbeat IPC: 0.504026 cumulative IPC: 0.500653 (Simulation time: 1 hr 36 min 0 sec) 
Heartbeat CPU 0 instructions: 138000003 cycles: 202007862 heartbeat IPC: 0.501502 cumulative IPC: 0.500663 (Simulation time: 1 hr 36 min 30 sec) 
Heartbeat CPU 0 instructions: 139000000 cycles: 204037895 heartbeat IPC: 0.492601 cumulative IPC: 0.50057 (Simulation time: 1 hr 37 min 1 sec) 
Heartbeat CPU 0 instructions: 140000000 cycles: 206082345 heartbeat IPC: 0.489129 cumulative IPC: 0.50044 (Simulation time: 1 hr 37 min 30 sec) 
Heartbeat CPU 0 instructions: 141000002 cycles: 208089355 heartbeat IPC: 0.498255 cumulative IPC: 0.500416 (Simulation time: 1 hr 37 min 59 sec) 
Heartbeat CPU 0 instructions: 142000002 cycles: 210088107 heartbeat IPC: 0.500312 cumulative IPC: 0.500415 (Simulation time: 1 hr 38 min 27 sec) 
Heartbeat CPU 0 instructions: 143000002 cycles: 212104695 heartbeat IPC: 0.495887 cumulative IPC: 0.500366 (Simulation time: 1 hr 38 min 56 sec) 
Heartbeat CPU 0 instructions: 144000000 cycles: 214123024 heartbeat IPC: 0.495458 cumulative IPC: 0.500313 (Simulation time: 1 hr 39 min 22 sec) 
Heartbeat CPU 0 instructions: 145000001 cycles: 216239915 heartbeat IPC: 0.472391 cumulative IPC: 0.500002 (Simulation time: 1 hr 39 min 48 sec) 
Heartbeat CPU 0 instructions: 146000000 cycles: 218457327 heartbeat IPC: 0.450976 cumulative IPC: 0.499437 (Simulation time: 1 hr 40 min 12 sec) 
Heartbeat CPU 0 instructions: 147000000 cycles: 220628506 heartbeat IPC: 0.460579 cumulative IPC: 0.499003 (Simulation time: 1 hr 40 min 34 sec) 
Heartbeat CPU 0 instructions: 148000000 cycles: 222834465 heartbeat IPC: 0.453318 cumulative IPC: 0.49849 (Simulation time: 1 hr 40 min 56 sec) 
Heartbeat CPU 0 instructions: 149000000 cycles: 224991280 heartbeat IPC: 0.463647 cumulative IPC: 0.498112 (Simulation time: 1 hr 41 min 21 sec) 
Heartbeat CPU 0 instructions: 150000000 cycles: 227195298 heartbeat IPC: 0.453717 cumulative IPC: 0.497625 (Simulation time: 1 hr 41 min 44 sec) 
Finished CPU 0 instructions: 100000003 cycles: 200954550 cummulative IPC: 0.497625 (Simulation time: 1 hr 41 min 44 sec) 

ChampSim completed all CPUs

Region of Interest Statistics

CPU 0 cummulative IPC: 0.497625 instructions: 100000003 cycles: 200954550
LLC TOTAL     ACCESS:     477014  HIT:     301570  MISS:     175444
LLC LOAD      ACCESS:     104806  HIT:      50670  MISS:      54136
LLC RFO       ACCESS:      70517  HIT:      32113  MISS:      38404
LLC PREFETCH  ACCESS:     138034  HIT:      70730  MISS:      67304
LLC WRITEBACK ACCESS:     163657  HIT:     148057  MISS:      15600
OPTgen accesses: 2094
OPTgen hits: 1827
OPTgen hit rate: 87.2493


