
*** ChampSim Multicore Out-of-Order Simulator ***

Warmup Instructions: 50000000
Simulation Instructions: 100000000
Configuration: 2
Number of CPUs: 1
LLC sets: 2048
LLC ways: 16
Off-chip DRAM Channels: 1 Width: 64-bit Data Rate: 1600 MT/s

CPU 0 runs /datasets/cs240c-wi22-a00-public/data/Assignment2-gz/astar_23B.trace.gz
CPU 0 L1D next line prefetcher
CPU 0 L2C IP-based stride prefetcher
Initialize Hawkeye state
Heartbeat CPU 0 instructions: 1000000 cycles: 359869 heartbeat IPC: 2.77879 cumulative IPC: 2.77879 (Simulation time: 0 hr 0 min 41 sec) 
Heartbeat CPU 0 instructions: 2000001 cycles: 720498 heartbeat IPC: 2.77294 cumulative IPC: 2.77586 (Simulation time: 0 hr 1 min 17 sec) 
Heartbeat CPU 0 instructions: 3000000 cycles: 1079245 heartbeat IPC: 2.78748 cumulative IPC: 2.77972 (Simulation time: 0 hr 1 min 50 sec) 
Heartbeat CPU 0 instructions: 4000000 cycles: 1440499 heartbeat IPC: 2.76814 cumulative IPC: 2.77682 (Simulation time: 0 hr 2 min 27 sec) 
Heartbeat CPU 0 instructions: 5000000 cycles: 1802439 heartbeat IPC: 2.76289 cumulative IPC: 2.77402 (Simulation time: 0 hr 3 min 3 sec) 
Heartbeat CPU 0 instructions: 6000002 cycles: 2163910 heartbeat IPC: 2.76648 cumulative IPC: 2.77276 (Simulation time: 0 hr 3 min 38 sec) 
Heartbeat CPU 0 instructions: 7000002 cycles: 2525202 heartbeat IPC: 2.76784 cumulative IPC: 2.77206 (Simulation time: 0 hr 4 min 12 sec) 
Heartbeat CPU 0 instructions: 8000000 cycles: 2887899 heartbeat IPC: 2.75712 cumulative IPC: 2.77018 (Simulation time: 0 hr 4 min 49 sec) 
Heartbeat CPU 0 instructions: 9000000 cycles: 3250621 heartbeat IPC: 2.75693 cumulative IPC: 2.7687 (Simulation time: 0 hr 5 min 26 sec) 
Heartbeat CPU 0 instructions: 10000003 cycles: 3615245 heartbeat IPC: 2.74256 cumulative IPC: 2.76607 (Simulation time: 0 hr 6 min 1 sec) 
Heartbeat CPU 0 instructions: 11000000 cycles: 3979319 heartbeat IPC: 2.74669 cumulative IPC: 2.76429 (Simulation time: 0 hr 6 min 35 sec) 
Heartbeat CPU 0 instructions: 12000000 cycles: 4343809 heartbeat IPC: 2.74356 cumulative IPC: 2.76255 (Simulation time: 0 hr 7 min 12 sec) 
Heartbeat CPU 0 instructions: 13000001 cycles: 4706262 heartbeat IPC: 2.75898 cumulative IPC: 2.76228 (Simulation time: 0 hr 7 min 47 sec) 
Heartbeat CPU 0 instructions: 14000003 cycles: 5069097 heartbeat IPC: 2.75608 cumulative IPC: 2.76183 (Simulation time: 0 hr 8 min 20 sec) 
Heartbeat CPU 0 instructions: 15000003 cycles: 5431707 heartbeat IPC: 2.75778 cumulative IPC: 2.76156 (Simulation time: 0 hr 8 min 55 sec) 
Heartbeat CPU 0 instructions: 16000000 cycles: 5794049 heartbeat IPC: 2.75982 cumulative IPC: 2.76145 (Simulation time: 0 hr 9 min 32 sec) 
Heartbeat CPU 0 instructions: 17000000 cycles: 6155188 heartbeat IPC: 2.76902 cumulative IPC: 2.7619 (Simulation time: 0 hr 10 min 7 sec) 
Heartbeat CPU 0 instructions: 18000001 cycles: 6515371 heartbeat IPC: 2.77637 cumulative IPC: 2.7627 (Simulation time: 0 hr 10 min 41 sec) 
Heartbeat CPU 0 instructions: 19000002 cycles: 6876049 heartbeat IPC: 2.77256 cumulative IPC: 2.76322 (Simulation time: 0 hr 11 min 16 sec) 
Heartbeat CPU 0 instructions: 20000000 cycles: 7236048 heartbeat IPC: 2.77778 cumulative IPC: 2.76394 (Simulation time: 0 hr 11 min 51 sec) 
Heartbeat CPU 0 instructions: 21000001 cycles: 7596964 heartbeat IPC: 2.77073 cumulative IPC: 2.76426 (Simulation time: 0 hr 12 min 27 sec) 
Heartbeat CPU 0 instructions: 22000000 cycles: 7958984 heartbeat IPC: 2.76228 cumulative IPC: 2.76417 (Simulation time: 0 hr 13 min 2 sec) 
Heartbeat CPU 0 instructions: 23000000 cycles: 8320213 heartbeat IPC: 2.76833 cumulative IPC: 2.76435 (Simulation time: 0 hr 13 min 37 sec) 
Heartbeat CPU 0 instructions: 24000000 cycles: 8681014 heartbeat IPC: 2.77161 cumulative IPC: 2.76465 (Simulation time: 0 hr 14 min 12 sec) 
Heartbeat CPU 0 instructions: 25000001 cycles: 9041603 heartbeat IPC: 2.77324 cumulative IPC: 2.765 (Simulation time: 0 hr 14 min 46 sec) 
Heartbeat CPU 0 instructions: 26000002 cycles: 9402712 heartbeat IPC: 2.76925 cumulative IPC: 2.76516 (Simulation time: 0 hr 15 min 22 sec) 
Heartbeat CPU 0 instructions: 27000000 cycles: 9763215 heartbeat IPC: 2.7739 cumulative IPC: 2.76548 (Simulation time: 0 hr 15 min 59 sec) 
Heartbeat CPU 0 instructions: 28000000 cycles: 10124495 heartbeat IPC: 2.76794 cumulative IPC: 2.76557 (Simulation time: 0 hr 16 min 36 sec) 
Heartbeat CPU 0 instructions: 29000000 cycles: 10485987 heartbeat IPC: 2.76631 cumulative IPC: 2.7656 (Simulation time: 0 hr 17 min 13 sec) 
Heartbeat CPU 0 instructions: 30000000 cycles: 10848149 heartbeat IPC: 2.7612 cumulative IPC: 2.76545 (Simulation time: 0 hr 17 min 51 sec) 
Heartbeat CPU 0 instructions: 31000001 cycles: 11209317 heartbeat IPC: 2.7688 cumulative IPC: 2.76556 (Simulation time: 0 hr 18 min 29 sec) 
Heartbeat CPU 0 instructions: 32000000 cycles: 11570037 heartbeat IPC: 2.77223 cumulative IPC: 2.76576 (Simulation time: 0 hr 19 min 7 sec) 
Heartbeat CPU 0 instructions: 33000002 cycles: 11930960 heartbeat IPC: 2.77068 cumulative IPC: 2.76591 (Simulation time: 0 hr 19 min 43 sec) 
Heartbeat CPU 0 instructions: 34000001 cycles: 12292586 heartbeat IPC: 2.76529 cumulative IPC: 2.76589 (Simulation time: 0 hr 20 min 22 sec) 
Heartbeat CPU 0 instructions: 35000000 cycles: 12653294 heartbeat IPC: 2.77232 cumulative IPC: 2.76608 (Simulation time: 0 hr 21 min 0 sec) 
Heartbeat CPU 0 instructions: 36000000 cycles: 13013135 heartbeat IPC: 2.77901 cumulative IPC: 2.76644 (Simulation time: 0 hr 21 min 39 sec) 
Heartbeat CPU 0 instructions: 37000000 cycles: 13372961 heartbeat IPC: 2.77912 cumulative IPC: 2.76678 (Simulation time: 0 hr 22 min 16 sec) 
Heartbeat CPU 0 instructions: 38000003 cycles: 13733015 heartbeat IPC: 2.77737 cumulative IPC: 2.76705 (Simulation time: 0 hr 22 min 52 sec) 
Heartbeat CPU 0 instructions: 39000003 cycles: 14093628 heartbeat IPC: 2.77306 cumulative IPC: 2.76721 (Simulation time: 0 hr 23 min 30 sec) 
Heartbeat CPU 0 instructions: 40000000 cycles: 14453880 heartbeat IPC: 2.77583 cumulative IPC: 2.76742 (Simulation time: 0 hr 24 min 9 sec) 
Heartbeat CPU 0 instructions: 41000002 cycles: 14814004 heartbeat IPC: 2.77683 cumulative IPC: 2.76765 (Simulation time: 0 hr 24 min 47 sec) 
Heartbeat CPU 0 instructions: 42000003 cycles: 15175818 heartbeat IPC: 2.76385 cumulative IPC: 2.76756 (Simulation time: 0 hr 25 min 24 sec) 
Heartbeat CPU 0 instructions: 43000003 cycles: 15537009 heartbeat IPC: 2.76862 cumulative IPC: 2.76759 (Simulation time: 0 hr 26 min 0 sec) 
Heartbeat CPU 0 instructions: 44000000 cycles: 15899934 heartbeat IPC: 2.75538 cumulative IPC: 2.76731 (Simulation time: 0 hr 26 min 35 sec) 
Heartbeat CPU 0 instructions: 45000002 cycles: 16264050 heartbeat IPC: 2.74638 cumulative IPC: 2.76684 (Simulation time: 0 hr 27 min 9 sec) 
Heartbeat CPU 0 instructions: 46000001 cycles: 16628076 heartbeat IPC: 2.74705 cumulative IPC: 2.76641 (Simulation time: 0 hr 27 min 44 sec) 
Heartbeat CPU 0 instructions: 47000002 cycles: 16991887 heartbeat IPC: 2.74868 cumulative IPC: 2.76603 (Simulation time: 0 hr 28 min 22 sec) 
Heartbeat CPU 0 instructions: 48000000 cycles: 17354267 heartbeat IPC: 2.75953 cumulative IPC: 2.76589 (Simulation time: 0 hr 28 min 57 sec) 
Heartbeat CPU 0 instructions: 49000000 cycles: 17716474 heartbeat IPC: 2.76085 cumulative IPC: 2.76579 (Simulation time: 0 hr 29 min 34 sec) 
Heartbeat CPU 0 instructions: 50000000 cycles: 18078281 heartbeat IPC: 2.7639 cumulative IPC: 2.76575 (Simulation time: 0 hr 30 min 10 sec) 

Warmup complete CPU 0 instructions: 50000004 cycles: 18078282 (Simulation time: 0 hr 30 min 10 sec) 

Heartbeat CPU 0 instructions: 51000001 cycles: 21806739 heartbeat IPC: 0.268208 cumulative IPC: 0.268207 (Simulation time: 0 hr 30 min 46 sec) 
Heartbeat CPU 0 instructions: 52000000 cycles: 25780585 heartbeat IPC: 0.251645 cumulative IPC: 0.259662 (Simulation time: 0 hr 31 min 25 sec) 
Heartbeat CPU 0 instructions: 53000000 cycles: 28587311 heartbeat IPC: 0.356287 cumulative IPC: 0.285468 (Simulation time: 0 hr 32 min 2 sec) 
Heartbeat CPU 0 instructions: 54000002 cycles: 31445708 heartbeat IPC: 0.349847 cumulative IPC: 0.299235 (Simulation time: 0 hr 32 min 39 sec) 
Heartbeat CPU 0 instructions: 55000002 cycles: 34258231 heartbeat IPC: 0.355553 cumulative IPC: 0.309024 (Simulation time: 0 hr 33 min 15 sec) 
Heartbeat CPU 0 instructions: 56000000 cycles: 37018720 heartbeat IPC: 0.362254 cumulative IPC: 0.316782 (Simulation time: 0 hr 33 min 54 sec) 
Heartbeat CPU 0 instructions: 57000000 cycles: 39610121 heartbeat IPC: 0.385892 cumulative IPC: 0.3251 (Simulation time: 0 hr 34 min 28 sec) 
Heartbeat CPU 0 instructions: 58000001 cycles: 42180948 heartbeat IPC: 0.38898 cumulative IPC: 0.331913 (Simulation time: 0 hr 35 min 4 sec) 
Heartbeat CPU 0 instructions: 59000000 cycles: 44935310 heartbeat IPC: 0.36306 cumulative IPC: 0.335108 (Simulation time: 0 hr 35 min 42 sec) 
Heartbeat CPU 0 instructions: 60000000 cycles: 47509405 heartbeat IPC: 0.388486 cumulative IPC: 0.339776 (Simulation time: 0 hr 36 min 19 sec) 
Heartbeat CPU 0 instructions: 61000000 cycles: 50002613 heartbeat IPC: 0.40109 cumulative IPC: 0.344565 (Simulation time: 0 hr 36 min 56 sec) 
Heartbeat CPU 0 instructions: 62000003 cycles: 52470810 heartbeat IPC: 0.405155 cumulative IPC: 0.348913 (Simulation time: 0 hr 37 min 30 sec) 
Heartbeat CPU 0 instructions: 63000000 cycles: 55088684 heartbeat IPC: 0.381988 cumulative IPC: 0.351252 (Simulation time: 0 hr 38 min 7 sec) 
Heartbeat CPU 0 instructions: 64000000 cycles: 57612639 heartbeat IPC: 0.396204 cumulative IPC: 0.354122 (Simulation time: 0 hr 38 min 44 sec) 
Heartbeat CPU 0 instructions: 65000000 cycles: 60057905 heartbeat IPC: 0.408953 cumulative IPC: 0.357316 (Simulation time: 0 hr 39 min 21 sec) 
Heartbeat CPU 0 instructions: 66000000 cycles: 62521166 heartbeat IPC: 0.405966 cumulative IPC: 0.360013 (Simulation time: 0 hr 39 min 59 sec) 
Heartbeat CPU 0 instructions: 67000000 cycles: 64993997 heartbeat IPC: 0.404395 cumulative IPC: 0.362352 (Simulation time: 0 hr 40 min 37 sec) 
Heartbeat CPU 0 instructions: 68000000 cycles: 67383344 heartbeat IPC: 0.418524 cumulative IPC: 0.365074 (Simulation time: 0 hr 41 min 12 sec) 
Heartbeat CPU 0 instructions: 69000000 cycles: 69961824 heartbeat IPC: 0.387825 cumulative IPC: 0.366205 (Simulation time: 0 hr 41 min 50 sec) 
Heartbeat CPU 0 instructions: 70000000 cycles: 72495713 heartbeat IPC: 0.39465 cumulative IPC: 0.367529 (Simulation time: 0 hr 42 min 27 sec) 
Heartbeat CPU 0 instructions: 71000001 cycles: 75091856 heartbeat IPC: 0.385187 cumulative IPC: 0.368333 (Simulation time: 0 hr 43 min 4 sec) 
Heartbeat CPU 0 instructions: 72000000 cycles: 77716379 heartbeat IPC: 0.381021 cumulative IPC: 0.368892 (Simulation time: 0 hr 43 min 42 sec) 
Heartbeat CPU 0 instructions: 73000001 cycles: 80218066 heartbeat IPC: 0.399731 cumulative IPC: 0.370133 (Simulation time: 0 hr 44 min 19 sec) 
Heartbeat CPU 0 instructions: 74000002 cycles: 82465553 heartbeat IPC: 0.444942 cumulative IPC: 0.372744 (Simulation time: 0 hr 44 min 57 sec) 
Heartbeat CPU 0 instructions: 75000002 cycles: 84953331 heartbeat IPC: 0.401965 cumulative IPC: 0.373831 (Simulation time: 0 hr 45 min 35 sec) 
Heartbeat CPU 0 instructions: 76000000 cycles: 87446848 heartbeat IPC: 0.401039 cumulative IPC: 0.374809 (Simulation time: 0 hr 46 min 15 sec) 
Heartbeat CPU 0 instructions: 77000000 cycles: 90505901 heartbeat IPC: 0.326899 cumulative IPC: 0.372786 (Simulation time: 0 hr 46 min 55 sec) 
Heartbeat CPU 0 instructions: 78000003 cycles: 93521517 heartbeat IPC: 0.331608 cumulative IPC: 0.37114 (Simulation time: 0 hr 47 min 34 sec) 
Heartbeat CPU 0 instructions: 79000001 cycles: 95969297 heartbeat IPC: 0.408533 cumulative IPC: 0.372315 (Simulation time: 0 hr 48 min 13 sec) 
Heartbeat CPU 0 instructions: 80000000 cycles: 98539531 heartbeat IPC: 0.389069 cumulative IPC: 0.37285 (Simulation time: 0 hr 48 min 51 sec) 
Heartbeat CPU 0 instructions: 81000001 cycles: 101137893 heartbeat IPC: 0.384858 cumulative IPC: 0.373226 (Simulation time: 0 hr 49 min 31 sec) 
Heartbeat CPU 0 instructions: 82000002 cycles: 103681551 heartbeat IPC: 0.393135 cumulative IPC: 0.373817 (Simulation time: 0 hr 50 min 9 sec) 
Heartbeat CPU 0 instructions: 83000002 cycles: 106116216 heartbeat IPC: 0.410734 cumulative IPC: 0.374838 (Simulation time: 0 hr 50 min 43 sec) 
Heartbeat CPU 0 instructions: 84000000 cycles: 108592062 heartbeat IPC: 0.403902 cumulative IPC: 0.375633 (Simulation time: 0 hr 51 min 19 sec) 
Heartbeat CPU 0 instructions: 85000000 cycles: 111090079 heartbeat IPC: 0.400318 cumulative IPC: 0.376296 (Simulation time: 0 hr 51 min 56 sec) 
Heartbeat CPU 0 instructions: 86000001 cycles: 113494610 heartbeat IPC: 0.415882 cumulative IPC: 0.377294 (Simulation time: 0 hr 52 min 32 sec) 
Heartbeat CPU 0 instructions: 87000000 cycles: 115864135 heartbeat IPC: 0.422025 cumulative IPC: 0.378378 (Simulation time: 0 hr 53 min 8 sec) 
Heartbeat CPU 0 instructions: 88000000 cycles: 118381126 heartbeat IPC: 0.3973 cumulative IPC: 0.378853 (Simulation time: 0 hr 53 min 46 sec) 
Heartbeat CPU 0 instructions: 89000000 cycles: 120923605 heartbeat IPC: 0.393317 cumulative IPC: 0.37921 (Simulation time: 0 hr 54 min 25 sec) 
Heartbeat CPU 0 instructions: 90000001 cycles: 123405184 heartbeat IPC: 0.40297 cumulative IPC: 0.37977 (Simulation time: 0 hr 55 min 4 sec) 
Heartbeat CPU 0 instructions: 91000000 cycles: 125843454 heartbeat IPC: 0.410126 cumulative IPC: 0.380457 (Simulation time: 0 hr 55 min 41 sec) 
Heartbeat CPU 0 instructions: 92000000 cycles: 128780599 heartbeat IPC: 0.340467 cumulative IPC: 0.379396 (Simulation time: 0 hr 56 min 21 sec) 
Heartbeat CPU 0 instructions: 93000000 cycles: 131314339 heartbeat IPC: 0.394673 cumulative IPC: 0.379738 (Simulation time: 0 hr 56 min 58 sec) 
Heartbeat CPU 0 instructions: 94000003 cycles: 133852237 heartbeat IPC: 0.394028 cumulative IPC: 0.380051 (Simulation time: 0 hr 57 min 34 sec) 
Heartbeat CPU 0 instructions: 95000000 cycles: 136281708 heartbeat IPC: 0.411611 cumulative IPC: 0.3807 (Simulation time: 0 hr 58 min 9 sec) 
Heartbeat CPU 0 instructions: 96000000 cycles: 138794208 heartbeat IPC: 0.39801 cumulative IPC: 0.38106 (Simulation time: 0 hr 58 min 46 sec) 
Heartbeat CPU 0 instructions: 97000000 cycles: 141222839 heartbeat IPC: 0.411755 cumulative IPC: 0.381665 (Simulation time: 0 hr 59 min 24 sec) 
Heartbeat CPU 0 instructions: 98000000 cycles: 143744627 heartbeat IPC: 0.396544 cumulative IPC: 0.381964 (Simulation time: 1 hr 0 min 0 sec) 
Heartbeat CPU 0 instructions: 99000002 cycles: 146704447 heartbeat IPC: 0.337859 cumulative IPC: 0.380949 (Simulation time: 1 hr 0 min 36 sec) 
Heartbeat CPU 0 instructions: 100000000 cycles: 149454174 heartbeat IPC: 0.363672 cumulative IPC: 0.380587 (Simulation time: 1 hr 1 min 14 sec) 
Heartbeat CPU 0 instructions: 101000000 cycles: 152384191 heartbeat IPC: 0.341295 cumulative IPC: 0.37973 (Simulation time: 1 hr 1 min 50 sec) 
Heartbeat CPU 0 instructions: 102000001 cycles: 155848145 heartbeat IPC: 0.288688 cumulative IPC: 0.377441 (Simulation time: 1 hr 2 min 30 sec) 
Heartbeat CPU 0 instructions: 103000002 cycles: 159313401 heartbeat IPC: 0.288579 cumulative IPC: 0.375261 (Simulation time: 1 hr 3 min 6 sec) 
Heartbeat CPU 0 instructions: 104000000 cycles: 162403845 heartbeat IPC: 0.323577 cumulative IPC: 0.374154 (Simulation time: 1 hr 3 min 43 sec) 
Heartbeat CPU 0 instructions: 105000001 cycles: 165209812 heartbeat IPC: 0.356384 cumulative IPC: 0.373815 (Simulation time: 1 hr 4 min 21 sec) 
Heartbeat CPU 0 instructions: 106000001 cycles: 167827994 heartbeat IPC: 0.381944 cumulative IPC: 0.373957 (Simulation time: 1 hr 4 min 59 sec) 
Heartbeat CPU 0 instructions: 107000002 cycles: 170600390 heartbeat IPC: 0.360699 cumulative IPC: 0.373716 (Simulation time: 1 hr 5 min 36 sec) 
Heartbeat CPU 0 instructions: 108000000 cycles: 173520991 heartbeat IPC: 0.342395 cumulative IPC: 0.373128 (Simulation time: 1 hr 6 min 15 sec) 
Heartbeat CPU 0 instructions: 109000003 cycles: 176573414 heartbeat IPC: 0.32761 cumulative IPC: 0.372251 (Simulation time: 1 hr 6 min 53 sec) 
Heartbeat CPU 0 instructions: 110000003 cycles: 179566801 heartbeat IPC: 0.33407 cumulative IPC: 0.371543 (Simulation time: 1 hr 7 min 28 sec) 
Heartbeat CPU 0 instructions: 111000001 cycles: 182706971 heartbeat IPC: 0.318453 cumulative IPC: 0.370531 (Simulation time: 1 hr 8 min 3 sec) 
Heartbeat CPU 0 instructions: 112000000 cycles: 185893306 heartbeat IPC: 0.31384 cumulative IPC: 0.369454 (Simulation time: 1 hr 8 min 37 sec) 
Heartbeat CPU 0 instructions: 113000001 cycles: 188776416 heartbeat IPC: 0.346848 cumulative IPC: 0.369073 (Simulation time: 1 hr 9 min 11 sec) 
Heartbeat CPU 0 instructions: 114000000 cycles: 191512556 heartbeat IPC: 0.365478 cumulative IPC: 0.369016 (Simulation time: 1 hr 9 min 45 sec) 
Heartbeat CPU 0 instructions: 115000000 cycles: 194252225 heartbeat IPC: 0.365008 cumulative IPC: 0.368954 (Simulation time: 1 hr 10 min 19 sec) 
Heartbeat CPU 0 instructions: 116000000 cycles: 196953090 heartbeat IPC: 0.370252 cumulative IPC: 0.368973 (Simulation time: 1 hr 10 min 54 sec) 
Heartbeat CPU 0 instructions: 117000001 cycles: 199302760 heartbeat IPC: 0.425592 cumulative IPC: 0.369707 (Simulation time: 1 hr 11 min 26 sec) 
Heartbeat CPU 0 instructions: 118000002 cycles: 201588317 heartbeat IPC: 0.437531 cumulative IPC: 0.370552 (Simulation time: 1 hr 12 min 0 sec) 
Heartbeat CPU 0 instructions: 119000002 cycles: 204107846 heartbeat IPC: 0.3969 cumulative IPC: 0.370909 (Simulation time: 1 hr 12 min 36 sec) 
Heartbeat CPU 0 instructions: 120000000 cycles: 206860925 heartbeat IPC: 0.363229 cumulative IPC: 0.370797 (Simulation time: 1 hr 13 min 13 sec) 
Heartbeat CPU 0 instructions: 121000002 cycles: 209568809 heartbeat IPC: 0.369293 cumulative IPC: 0.370776 (Simulation time: 1 hr 13 min 48 sec) 
Heartbeat CPU 0 instructions: 122000001 cycles: 212507599 heartbeat IPC: 0.340276 cumulative IPC: 0.370315 (Simulation time: 1 hr 14 min 25 sec) 
Heartbeat CPU 0 instructions: 123000000 cycles: 215774778 heartbeat IPC: 0.306074 cumulative IPC: 0.369253 (Simulation time: 1 hr 15 min 1 sec) 
Heartbeat CPU 0 instructions: 124000000 cycles: 219317648 heartbeat IPC: 0.282257 cumulative IPC: 0.367721 (Simulation time: 1 hr 15 min 36 sec) 
Heartbeat CPU 0 instructions: 125000002 cycles: 222865949 heartbeat IPC: 0.281826 cumulative IPC: 0.366233 (Simulation time: 1 hr 16 min 14 sec) 
Heartbeat CPU 0 instructions: 126000000 cycles: 226789088 heartbeat IPC: 0.254897 cumulative IPC: 0.36414 (Simulation time: 1 hr 16 min 49 sec) 
Heartbeat CPU 0 instructions: 127000002 cycles: 230978533 heartbeat IPC: 0.238696 cumulative IPC: 0.361672 (Simulation time: 1 hr 17 min 29 sec) 
Heartbeat CPU 0 instructions: 128000000 cycles: 235110606 heartbeat IPC: 0.242009 cumulative IPC: 0.359393 (Simulation time: 1 hr 18 min 8 sec) 
Heartbeat CPU 0 instructions: 129000003 cycles: 239304771 heartbeat IPC: 0.238427 cumulative IPC: 0.3571 (Simulation time: 1 hr 18 min 49 sec) 
Heartbeat CPU 0 instructions: 130000003 cycles: 243432464 heartbeat IPC: 0.242266 cumulative IPC: 0.354997 (Simulation time: 1 hr 19 min 33 sec) 
Heartbeat CPU 0 instructions: 131000000 cycles: 247344575 heartbeat IPC: 0.255616 cumulative IPC: 0.353301 (Simulation time: 1 hr 20 min 14 sec) 
Heartbeat CPU 0 instructions: 132000000 cycles: 251437897 heartbeat IPC: 0.2443 cumulative IPC: 0.351389 (Simulation time: 1 hr 20 min 59 sec) 
Heartbeat CPU 0 instructions: 133000002 cycles: 255423901 heartbeat IPC: 0.250878 cumulative IPC: 0.349701 (Simulation time: 1 hr 21 min 42 sec) 
Heartbeat CPU 0 instructions: 134000000 cycles: 259424098 heartbeat IPC: 0.249987 cumulative IPC: 0.348048 (Simulation time: 1 hr 22 min 25 sec) 
Heartbeat CPU 0 instructions: 135000001 cycles: 263626608 heartbeat IPC: 0.237953 cumulative IPC: 0.346164 (Simulation time: 1 hr 23 min 7 sec) 
Heartbeat CPU 0 instructions: 136000000 cycles: 268105007 heartbeat IPC: 0.223294 cumulative IPC: 0.343963 (Simulation time: 1 hr 23 min 48 sec) 
Heartbeat CPU 0 instructions: 137000000 cycles: 272736133 heartbeat IPC: 0.21593 cumulative IPC: 0.341635 (Simulation time: 1 hr 24 min 29 sec) 
Heartbeat CPU 0 instructions: 138000000 cycles: 276584302 heartbeat IPC: 0.259864 cumulative IPC: 0.340418 (Simulation time: 1 hr 25 min 7 sec) 
Heartbeat CPU 0 instructions: 139000001 cycles: 278869318 heartbeat IPC: 0.437634 cumulative IPC: 0.341269 (Simulation time: 1 hr 25 min 43 sec) 
Heartbeat CPU 0 instructions: 140000000 cycles: 281448279 heartbeat IPC: 0.387753 cumulative IPC: 0.341725 (Simulation time: 1 hr 26 min 19 sec) 
Heartbeat CPU 0 instructions: 141000000 cycles: 283596399 heartbeat IPC: 0.465523 cumulative IPC: 0.342726 (Simulation time: 1 hr 26 min 53 sec) 
Heartbeat CPU 0 instructions: 142000000 cycles: 285958343 heartbeat IPC: 0.42338 cumulative IPC: 0.343437 (Simulation time: 1 hr 27 min 29 sec) 
Heartbeat CPU 0 instructions: 143000000 cycles: 288523779 heartbeat IPC: 0.389797 cumulative IPC: 0.343877 (Simulation time: 1 hr 28 min 6 sec) 
Heartbeat CPU 0 instructions: 144000000 cycles: 291055586 heartbeat IPC: 0.394975 cumulative IPC: 0.344351 (Simulation time: 1 hr 28 min 41 sec) 
Heartbeat CPU 0 instructions: 145000000 cycles: 293467627 heartbeat IPC: 0.414587 cumulative IPC: 0.344966 (Simulation time: 1 hr 29 min 15 sec) 
Heartbeat CPU 0 instructions: 146000001 cycles: 296255136 heartbeat IPC: 0.358744 cumulative IPC: 0.345104 (Simulation time: 1 hr 29 min 52 sec) 
Heartbeat CPU 0 instructions: 147000001 cycles: 298924537 heartbeat IPC: 0.374616 cumulative IPC: 0.345385 (Simulation time: 1 hr 30 min 27 sec) 
Heartbeat CPU 0 instructions: 148000000 cycles: 301604707 heartbeat IPC: 0.37311 cumulative IPC: 0.345647 (Simulation time: 1 hr 31 min 2 sec) 
Heartbeat CPU 0 instructions: 149000002 cycles: 304188572 heartbeat IPC: 0.387018 cumulative IPC: 0.34602 (Simulation time: 1 hr 31 min 38 sec) 
Heartbeat CPU 0 instructions: 150000001 cycles: 307356959 heartbeat IPC: 0.315618 cumulative IPC: 0.345687 (Simulation time: 1 hr 32 min 15 sec) 
Finished CPU 0 instructions: 100000000 cycles: 289278695 cummulative IPC: 0.345687 (Simulation time: 1 hr 32 min 15 sec) 

ChampSim completed all CPUs

Region of Interest Statistics

CPU 0 cummulative IPC: 0.345687 instructions: 100000000 cycles: 289278695
LLC TOTAL     ACCESS:    5177823  HIT:    4881046  MISS:     296777
LLC LOAD      ACCESS:    2110914  HIT:    2001312  MISS:     109602
LLC RFO       ACCESS:      25553  HIT:      25009  MISS:        544
LLC PREFETCH  ACCESS:    2248596  HIT:    2063659  MISS:     184937
LLC WRITEBACK ACCESS:     792760  HIT:     791066  MISS:       1694
OPTgen accesses: 25224
OPTgen hits: 32959
OPTgen hit rate: 130.665


