
*** ChampSim Multicore Out-of-Order Simulator ***

Warmup Instructions: 50000000
Simulation Instructions: 100000000
Configuration: 2
Number of CPUs: 1
LLC sets: 2048
LLC ways: 16
Off-chip DRAM Channels: 1 Width: 64-bit Data Rate: 1600 MT/s

CPU 0 runs /datasets/cs240c-wi22-a00-public/data/Assignment2-gz/mcf_46B.trace.gz
CPU 0 L1D next line prefetcher
CPU 0 L2C IP-based stride prefetcher
Initialize Hawkeye state
Heartbeat CPU 0 instructions: 1000002 cycles: 492227 heartbeat IPC: 2.03159 cumulative IPC: 2.03159 (Simulation time: 0 hr 0 min 50 sec) 
Heartbeat CPU 0 instructions: 2000002 cycles: 987766 heartbeat IPC: 2.018 cumulative IPC: 2.02477 (Simulation time: 0 hr 1 min 38 sec) 
Heartbeat CPU 0 instructions: 3000003 cycles: 1515061 heartbeat IPC: 1.89647 cumulative IPC: 1.98012 (Simulation time: 0 hr 2 min 29 sec) 
Heartbeat CPU 0 instructions: 4000000 cycles: 2032654 heartbeat IPC: 1.93201 cumulative IPC: 1.96787 (Simulation time: 0 hr 3 min 19 sec) 
Heartbeat CPU 0 instructions: 5000000 cycles: 2526613 heartbeat IPC: 2.02446 cumulative IPC: 1.97893 (Simulation time: 0 hr 4 min 10 sec) 
Heartbeat CPU 0 instructions: 6000002 cycles: 3029940 heartbeat IPC: 1.98678 cumulative IPC: 1.98024 (Simulation time: 0 hr 4 min 59 sec) 
Heartbeat CPU 0 instructions: 7000001 cycles: 3573883 heartbeat IPC: 1.83843 cumulative IPC: 1.95865 (Simulation time: 0 hr 5 min 50 sec) 
Heartbeat CPU 0 instructions: 8000000 cycles: 4064850 heartbeat IPC: 2.03679 cumulative IPC: 1.96809 (Simulation time: 0 hr 6 min 39 sec) 
Heartbeat CPU 0 instructions: 9000001 cycles: 4548531 heartbeat IPC: 2.06748 cumulative IPC: 1.97866 (Simulation time: 0 hr 7 min 29 sec) 
Heartbeat CPU 0 instructions: 10000001 cycles: 5086086 heartbeat IPC: 1.86027 cumulative IPC: 1.96615 (Simulation time: 0 hr 8 min 19 sec) 
Heartbeat CPU 0 instructions: 11000002 cycles: 5632643 heartbeat IPC: 1.82964 cumulative IPC: 1.9529 (Simulation time: 0 hr 9 min 9 sec) 
Heartbeat CPU 0 instructions: 12000000 cycles: 6111470 heartbeat IPC: 2.08843 cumulative IPC: 1.96352 (Simulation time: 0 hr 9 min 59 sec) 
Heartbeat CPU 0 instructions: 13000000 cycles: 6606482 heartbeat IPC: 2.02015 cumulative IPC: 1.96776 (Simulation time: 0 hr 10 min 49 sec) 
Heartbeat CPU 0 instructions: 14000003 cycles: 7150937 heartbeat IPC: 1.8367 cumulative IPC: 1.95779 (Simulation time: 0 hr 11 min 44 sec) 
Heartbeat CPU 0 instructions: 15000000 cycles: 7628300 heartbeat IPC: 2.09484 cumulative IPC: 1.96636 (Simulation time: 0 hr 12 min 34 sec) 
Heartbeat CPU 0 instructions: 16000000 cycles: 8105547 heartbeat IPC: 2.09535 cumulative IPC: 1.97396 (Simulation time: 0 hr 13 min 21 sec) 
Heartbeat CPU 0 instructions: 17000002 cycles: 8654770 heartbeat IPC: 1.82076 cumulative IPC: 1.96423 (Simulation time: 0 hr 14 min 10 sec) 
Heartbeat CPU 0 instructions: 18000000 cycles: 9141915 heartbeat IPC: 2.05277 cumulative IPC: 1.96895 (Simulation time: 0 hr 15 min 0 sec) 
Heartbeat CPU 0 instructions: 19000002 cycles: 9630532 heartbeat IPC: 2.0466 cumulative IPC: 1.97289 (Simulation time: 0 hr 15 min 49 sec) 
Heartbeat CPU 0 instructions: 20000000 cycles: 10208233 heartbeat IPC: 1.731 cumulative IPC: 1.9592 (Simulation time: 0 hr 16 min 42 sec) 
Heartbeat CPU 0 instructions: 21000001 cycles: 10751620 heartbeat IPC: 1.84031 cumulative IPC: 1.95319 (Simulation time: 0 hr 17 min 35 sec) 
Heartbeat CPU 0 instructions: 22000002 cycles: 11230217 heartbeat IPC: 2.08944 cumulative IPC: 1.959 (Simulation time: 0 hr 18 min 26 sec) 
Heartbeat CPU 0 instructions: 23000000 cycles: 11710210 heartbeat IPC: 2.08336 cumulative IPC: 1.9641 (Simulation time: 0 hr 19 min 15 sec) 
Heartbeat CPU 0 instructions: 24000000 cycles: 12242214 heartbeat IPC: 1.87969 cumulative IPC: 1.96043 (Simulation time: 0 hr 20 min 6 sec) 
Heartbeat CPU 0 instructions: 25000002 cycles: 12741856 heartbeat IPC: 2.00144 cumulative IPC: 1.96204 (Simulation time: 0 hr 21 min 0 sec) 
Heartbeat CPU 0 instructions: 26000000 cycles: 13222795 heartbeat IPC: 2.07926 cumulative IPC: 1.9663 (Simulation time: 0 hr 21 min 46 sec) 
Heartbeat CPU 0 instructions: 27000002 cycles: 13734405 heartbeat IPC: 1.95462 cumulative IPC: 1.96587 (Simulation time: 0 hr 22 min 31 sec) 
Heartbeat CPU 0 instructions: 28000000 cycles: 14247842 heartbeat IPC: 1.94765 cumulative IPC: 1.96521 (Simulation time: 0 hr 23 min 18 sec) 
Heartbeat CPU 0 instructions: 29000001 cycles: 14726679 heartbeat IPC: 2.0884 cumulative IPC: 1.96922 (Simulation time: 0 hr 24 min 3 sec) 
Heartbeat CPU 0 instructions: 30000000 cycles: 15223922 heartbeat IPC: 2.01109 cumulative IPC: 1.97058 (Simulation time: 0 hr 24 min 46 sec) 
Heartbeat CPU 0 instructions: 31000002 cycles: 15758669 heartbeat IPC: 1.87005 cumulative IPC: 1.96717 (Simulation time: 0 hr 25 min 30 sec) 
Heartbeat CPU 0 instructions: 32000000 cycles: 16238296 heartbeat IPC: 2.08495 cumulative IPC: 1.97065 (Simulation time: 0 hr 26 min 16 sec) 
Heartbeat CPU 0 instructions: 33000000 cycles: 16742746 heartbeat IPC: 1.98236 cumulative IPC: 1.971 (Simulation time: 0 hr 26 min 59 sec) 
Heartbeat CPU 0 instructions: 34000000 cycles: 17282678 heartbeat IPC: 1.85209 cumulative IPC: 1.96729 (Simulation time: 0 hr 27 min 44 sec) 
Heartbeat CPU 0 instructions: 35000001 cycles: 17771090 heartbeat IPC: 2.04745 cumulative IPC: 1.96949 (Simulation time: 0 hr 28 min 29 sec) 
Heartbeat CPU 0 instructions: 36000000 cycles: 18276890 heartbeat IPC: 1.97706 cumulative IPC: 1.9697 (Simulation time: 0 hr 29 min 13 sec) 
Heartbeat CPU 0 instructions: 37000002 cycles: 18794064 heartbeat IPC: 1.93359 cumulative IPC: 1.96871 (Simulation time: 0 hr 29 min 58 sec) 
Heartbeat CPU 0 instructions: 38000001 cycles: 19308941 heartbeat IPC: 1.94221 cumulative IPC: 1.968 (Simulation time: 0 hr 30 min 46 sec) 
Heartbeat CPU 0 instructions: 39000000 cycles: 19786417 heartbeat IPC: 2.09434 cumulative IPC: 1.97105 (Simulation time: 0 hr 31 min 29 sec) 
Heartbeat CPU 0 instructions: 40000000 cycles: 20275380 heartbeat IPC: 2.04514 cumulative IPC: 1.97284 (Simulation time: 0 hr 32 min 12 sec) 
Heartbeat CPU 0 instructions: 41000000 cycles: 20810633 heartbeat IPC: 1.86828 cumulative IPC: 1.97015 (Simulation time: 0 hr 32 min 56 sec) 
Heartbeat CPU 0 instructions: 42000001 cycles: 21294524 heartbeat IPC: 2.06658 cumulative IPC: 1.97234 (Simulation time: 0 hr 33 min 41 sec) 
Heartbeat CPU 0 instructions: 43000000 cycles: 21772343 heartbeat IPC: 2.09284 cumulative IPC: 1.97498 (Simulation time: 0 hr 34 min 24 sec) 
Heartbeat CPU 0 instructions: 44000000 cycles: 22307717 heartbeat IPC: 1.86785 cumulative IPC: 1.97241 (Simulation time: 0 hr 35 min 10 sec) 
Heartbeat CPU 0 instructions: 45000001 cycles: 22802108 heartbeat IPC: 2.02269 cumulative IPC: 1.9735 (Simulation time: 0 hr 35 min 56 sec) 
Heartbeat CPU 0 instructions: 46000001 cycles: 23282340 heartbeat IPC: 2.08233 cumulative IPC: 1.97575 (Simulation time: 0 hr 36 min 43 sec) 
Heartbeat CPU 0 instructions: 47000002 cycles: 23793124 heartbeat IPC: 1.95778 cumulative IPC: 1.97536 (Simulation time: 0 hr 37 min 32 sec) 
Heartbeat CPU 0 instructions: 48000000 cycles: 24309208 heartbeat IPC: 1.93767 cumulative IPC: 1.97456 (Simulation time: 0 hr 38 min 19 sec) 
Heartbeat CPU 0 instructions: 49000000 cycles: 24792483 heartbeat IPC: 2.06922 cumulative IPC: 1.97641 (Simulation time: 0 hr 39 min 3 sec) 
Heartbeat CPU 0 instructions: 50000000 cycles: 25284055 heartbeat IPC: 2.03429 cumulative IPC: 1.97753 (Simulation time: 0 hr 39 min 50 sec) 

Warmup complete CPU 0 instructions: 50000004 cycles: 25284056 (Simulation time: 0 hr 39 min 50 sec) 

Heartbeat CPU 0 instructions: 51000001 cycles: 40137949 heartbeat IPC: 0.0673225 cumulative IPC: 0.0673222 (Simulation time: 0 hr 41 min 24 sec) 
Heartbeat CPU 0 instructions: 52000000 cycles: 44817429 heartbeat IPC: 0.213699 cumulative IPC: 0.102389 (Simulation time: 0 hr 42 min 25 sec) 
Heartbeat CPU 0 instructions: 53000000 cycles: 49098556 heartbeat IPC: 0.233583 cumulative IPC: 0.125974 (Simulation time: 0 hr 43 min 22 sec) 
Heartbeat CPU 0 instructions: 54000002 cycles: 63812040 heartbeat IPC: 0.067965 cumulative IPC: 0.103821 (Simulation time: 0 hr 44 min 56 sec) 
Heartbeat CPU 0 instructions: 55000002 cycles: 68981494 heartbeat IPC: 0.193444 cumulative IPC: 0.114423 (Simulation time: 0 hr 45 min 59 sec) 
Heartbeat CPU 0 instructions: 56000000 cycles: 73313410 heartbeat IPC: 0.230844 cumulative IPC: 0.124924 (Simulation time: 0 hr 47 min 0 sec) 
Heartbeat CPU 0 instructions: 57000000 cycles: 86399381 heartbeat IPC: 0.0764177 cumulative IPC: 0.114537 (Simulation time: 0 hr 48 min 32 sec) 
Heartbeat CPU 0 instructions: 58000000 cycles: 93800280 heartbeat IPC: 0.135119 cumulative IPC: 0.116761 (Simulation time: 0 hr 49 min 46 sec) 
Heartbeat CPU 0 instructions: 59000002 cycles: 98131545 heartbeat IPC: 0.23088 cumulative IPC: 0.123546 (Simulation time: 0 hr 50 min 48 sec) 
Heartbeat CPU 0 instructions: 60000000 cycles: 109730280 heartbeat IPC: 0.0862161 cumulative IPC: 0.118419 (Simulation time: 0 hr 52 min 14 sec) 
Heartbeat CPU 0 instructions: 61000002 cycles: 119122815 heartbeat IPC: 0.106468 cumulative IPC: 0.117222 (Simulation time: 0 hr 53 min 35 sec) 
Heartbeat CPU 0 instructions: 62000001 cycles: 123372125 heartbeat IPC: 0.235332 cumulative IPC: 0.122339 (Simulation time: 0 hr 54 min 37 sec) 
Heartbeat CPU 0 instructions: 63000001 cycles: 133296319 heartbeat IPC: 0.100764 cumulative IPC: 0.120357 (Simulation time: 0 hr 55 min 59 sec) 
Heartbeat CPU 0 instructions: 64000000 cycles: 144141332 heartbeat IPC: 0.0922082 cumulative IPC: 0.117788 (Simulation time: 0 hr 57 min 26 sec) 
Heartbeat CPU 0 instructions: 65000002 cycles: 149335019 heartbeat IPC: 0.192542 cumulative IPC: 0.120918 (Simulation time: 0 hr 58 min 29 sec) 
Heartbeat CPU 0 instructions: 66000000 cycles: 155860229 heartbeat IPC: 0.153251 cumulative IPC: 0.122534 (Simulation time: 0 hr 59 min 37 sec) 
Heartbeat CPU 0 instructions: 67000002 cycles: 171099431 heartbeat IPC: 0.0656204 cumulative IPC: 0.116586 (Simulation time: 1 hr 1 min 18 sec) 
Heartbeat CPU 0 instructions: 68000000 cycles: 175534890 heartbeat IPC: 0.225455 cumulative IPC: 0.1198 (Simulation time: 1 hr 2 min 22 sec) 
Heartbeat CPU 0 instructions: 69000000 cycles: 179634774 heartbeat IPC: 0.243909 cumulative IPC: 0.123096 (Simulation time: 1 hr 3 min 19 sec) 
Heartbeat CPU 0 instructions: 70000001 cycles: 193743398 heartbeat IPC: 0.0708787 cumulative IPC: 0.118723 (Simulation time: 1 hr 4 min 52 sec) 
Heartbeat CPU 0 instructions: 71000002 cycles: 202099178 heartbeat IPC: 0.119678 cumulative IPC: 0.118768 (Simulation time: 1 hr 6 min 6 sec) 
Heartbeat CPU 0 instructions: 72000000 cycles: 207021577 heartbeat IPC: 0.203153 cumulative IPC: 0.121054 (Simulation time: 1 hr 7 min 11 sec) 
Heartbeat CPU 0 instructions: 73000002 cycles: 215966356 heartbeat IPC: 0.111797 cumulative IPC: 0.120619 (Simulation time: 1 hr 8 min 27 sec) 
Heartbeat CPU 0 instructions: 74000001 cycles: 227135112 heartbeat IPC: 0.0895354 cumulative IPC: 0.1189 (Simulation time: 1 hr 9 min 45 sec) 
Heartbeat CPU 0 instructions: 75000001 cycles: 231636234 heartbeat IPC: 0.222167 cumulative IPC: 0.121152 (Simulation time: 1 hr 10 min 42 sec) 
Heartbeat CPU 0 instructions: 76000000 cycles: 237655704 heartbeat IPC: 0.166127 cumulative IPC: 0.122427 (Simulation time: 1 hr 11 min 43 sec) 
Heartbeat CPU 0 instructions: 77000000 cycles: 253670578 heartbeat IPC: 0.062442 cumulative IPC: 0.118221 (Simulation time: 1 hr 13 min 22 sec) 
Heartbeat CPU 0 instructions: 78000002 cycles: 258589471 heartbeat IPC: 0.203298 cumulative IPC: 0.120014 (Simulation time: 1 hr 14 min 25 sec) 
Heartbeat CPU 0 instructions: 79000001 cycles: 262996782 heartbeat IPC: 0.226895 cumulative IPC: 0.121996 (Simulation time: 1 hr 15 min 27 sec) 
Heartbeat CPU 0 instructions: 80000000 cycles: 275702462 heartbeat IPC: 0.0787049 cumulative IPC: 0.119799 (Simulation time: 1 hr 16 min 59 sec) 
Heartbeat CPU 0 instructions: 81000000 cycles: 282851613 heartbeat IPC: 0.139877 cumulative IPC: 0.120357 (Simulation time: 1 hr 18 min 13 sec) 
Heartbeat CPU 0 instructions: 82000000 cycles: 287667556 heartbeat IPC: 0.207644 cumulative IPC: 0.121959 (Simulation time: 1 hr 19 min 17 sec) 
Heartbeat CPU 0 instructions: 83000001 cycles: 297450532 heartbeat IPC: 0.102218 cumulative IPC: 0.121249 (Simulation time: 1 hr 20 min 39 sec) 
Heartbeat CPU 0 instructions: 84000000 cycles: 308693599 heartbeat IPC: 0.0889436 cumulative IPC: 0.119968 (Simulation time: 1 hr 22 min 1 sec) 
Heartbeat CPU 0 instructions: 85000001 cycles: 312993492 heartbeat IPC: 0.232564 cumulative IPC: 0.121651 (Simulation time: 1 hr 23 min 0 sec) 
Heartbeat CPU 0 instructions: 86000000 cycles: 321111049 heartbeat IPC: 0.12319 cumulative IPC: 0.121693 (Simulation time: 1 hr 24 min 11 sec) 
Heartbeat CPU 0 instructions: 87000000 cycles: 335058846 heartbeat IPC: 0.0716959 cumulative IPC: 0.119442 (Simulation time: 1 hr 25 min 43 sec) 
Heartbeat CPU 0 instructions: 88000000 cycles: 340968889 heartbeat IPC: 0.169204 cumulative IPC: 0.120373 (Simulation time: 1 hr 26 min 46 sec) 
Heartbeat CPU 0 instructions: 89000000 cycles: 345171742 heartbeat IPC: 0.237934 cumulative IPC: 0.121918 (Simulation time: 1 hr 27 min 42 sec) 
Heartbeat CPU 0 instructions: 90000003 cycles: 356875910 heartbeat IPC: 0.0854399 cumulative IPC: 0.12063 (Simulation time: 1 hr 28 min 59 sec) 
Heartbeat CPU 0 instructions: 91000000 cycles: 365571408 heartbeat IPC: 0.115002 cumulative IPC: 0.120486 (Simulation time: 1 hr 30 min 13 sec) 
Heartbeat CPU 0 instructions: 92000000 cycles: 369845525 heartbeat IPC: 0.233966 cumulative IPC: 0.121894 (Simulation time: 1 hr 31 min 7 sec) 
Heartbeat CPU 0 instructions: 93000002 cycles: 378684421 heartbeat IPC: 0.113137 cumulative IPC: 0.121675 (Simulation time: 1 hr 32 min 19 sec) 
Heartbeat CPU 0 instructions: 94000002 cycles: 389716070 heartbeat IPC: 0.0906483 cumulative IPC: 0.120736 (Simulation time: 1 hr 33 min 34 sec) 
Heartbeat CPU 0 instructions: 95000000 cycles: 395332913 heartbeat IPC: 0.178036 cumulative IPC: 0.121606 (Simulation time: 1 hr 34 min 28 sec) 
Heartbeat CPU 0 instructions: 96000000 cycles: 400944646 heartbeat IPC: 0.178198 cumulative IPC: 0.122451 (Simulation time: 1 hr 35 min 23 sec) 
Heartbeat CPU 0 instructions: 97000000 cycles: 415551256 heartbeat IPC: 0.0684622 cumulative IPC: 0.12043 (Simulation time: 1 hr 36 min 40 sec) 
Heartbeat CPU 0 instructions: 98000002 cycles: 420289997 heartbeat IPC: 0.211027 cumulative IPC: 0.121517 (Simulation time: 1 hr 37 min 38 sec) 
Heartbeat CPU 0 instructions: 99000002 cycles: 425031010 heartbeat IPC: 0.210925 cumulative IPC: 0.122578 (Simulation time: 1 hr 38 min 31 sec) 
Heartbeat CPU 0 instructions: 100000000 cycles: 438480485 heartbeat IPC: 0.0743522 cumulative IPC: 0.121008 (Simulation time: 1 hr 39 min 47 sec) 
Heartbeat CPU 0 instructions: 101000000 cycles: 444901876 heartbeat IPC: 0.15573 cumulative IPC: 0.121539 (Simulation time: 1 hr 40 min 40 sec) 
Heartbeat CPU 0 instructions: 102000003 cycles: 449140145 heartbeat IPC: 0.235946 cumulative IPC: 0.122683 (Simulation time: 1 hr 41 min 24 sec) 
Heartbeat CPU 0 instructions: 103000003 cycles: 460981323 heartbeat IPC: 0.0844511 cumulative IPC: 0.121644 (Simulation time: 1 hr 42 min 24 sec) 
Heartbeat CPU 0 instructions: 104000000 cycles: 471896757 heartbeat IPC: 0.0916131 cumulative IPC: 0.12091 (Simulation time: 1 hr 43 min 24 sec) 
Heartbeat CPU 0 instructions: 105000000 cycles: 476652241 heartbeat IPC: 0.210284 cumulative IPC: 0.121852 (Simulation time: 1 hr 44 min 2 sec) 
Heartbeat CPU 0 instructions: 106000000 cycles: 480862567 heartbeat IPC: 0.237511 cumulative IPC: 0.122921 (Simulation time: 1 hr 44 min 33 sec) 
Heartbeat CPU 0 instructions: 107000002 cycles: 495513795 heartbeat IPC: 0.0682538 cumulative IPC: 0.121217 (Simulation time: 1 hr 45 min 18 sec) 
Heartbeat CPU 0 instructions: 108000000 cycles: 500872724 heartbeat IPC: 0.186604 cumulative IPC: 0.121954 (Simulation time: 1 hr 45 min 44 sec) 
Heartbeat CPU 0 instructions: 109000001 cycles: 505224023 heartbeat IPC: 0.229817 cumulative IPC: 0.122932 (Simulation time: 1 hr 46 min 8 sec) 
Heartbeat CPU 0 instructions: 110000002 cycles: 514921932 heartbeat IPC: 0.103115 cumulative IPC: 0.12254 (Simulation time: 1 hr 46 min 35 sec) 
Heartbeat CPU 0 instructions: 111000003 cycles: 525376293 heartbeat IPC: 0.095654 cumulative IPC: 0.121977 (Simulation time: 1 hr 47 min 4 sec) 
Heartbeat CPU 0 instructions: 112000000 cycles: 529443423 heartbeat IPC: 0.245873 cumulative IPC: 0.122977 (Simulation time: 1 hr 47 min 23 sec) 
Heartbeat CPU 0 instructions: 113000000 cycles: 536743230 heartbeat IPC: 0.13699 cumulative IPC: 0.123177 (Simulation time: 1 hr 47 min 41 sec) 
Heartbeat CPU 0 instructions: 114000000 cycles: 549989331 heartbeat IPC: 0.0754939 cumulative IPC: 0.121973 (Simulation time: 1 hr 48 min 3 sec) 
Heartbeat CPU 0 instructions: 115000001 cycles: 557334793 heartbeat IPC: 0.136139 cumulative IPC: 0.122169 (Simulation time: 1 hr 48 min 20 sec) 
Heartbeat CPU 0 instructions: 116000000 cycles: 561387032 heartbeat IPC: 0.246777 cumulative IPC: 0.123111 (Simulation time: 1 hr 48 min 30 sec) 
Heartbeat CPU 0 instructions: 117000000 cycles: 571671177 heartbeat IPC: 0.0972371 cumulative IPC: 0.122624 (Simulation time: 1 hr 48 min 43 sec) 
Heartbeat CPU 0 instructions: 118000000 cycles: 581648242 heartbeat IPC: 0.10023 cumulative IPC: 0.122222 (Simulation time: 1 hr 48 min 54 sec) 
Heartbeat CPU 0 instructions: 119000000 cycles: 585850084 heartbeat IPC: 0.237991 cumulative IPC: 0.12309 (Simulation time: 1 hr 49 min 3 sec) 
Heartbeat CPU 0 instructions: 120000000 cycles: 592352373 heartbeat IPC: 0.153792 cumulative IPC: 0.123442 (Simulation time: 1 hr 49 min 12 sec) 
Heartbeat CPU 0 instructions: 121000000 cycles: 605517643 heartbeat IPC: 0.0759574 cumulative IPC: 0.122365 (Simulation time: 1 hr 49 min 25 sec) 
Heartbeat CPU 0 instructions: 122000001 cycles: 609665377 heartbeat IPC: 0.241096 cumulative IPC: 0.123207 (Simulation time: 1 hr 49 min 33 sec) 
Heartbeat CPU 0 instructions: 123000000 cycles: 613869849 heartbeat IPC: 0.237842 cumulative IPC: 0.124026 (Simulation time: 1 hr 49 min 41 sec) 
Heartbeat CPU 0 instructions: 124000000 cycles: 628195802 heartbeat IPC: 0.0698034 cumulative IPC: 0.122738 (Simulation time: 1 hr 49 min 51 sec) 
Heartbeat CPU 0 instructions: 125000000 cycles: 633812663 heartbeat IPC: 0.178035 cumulative IPC: 0.123248 (Simulation time: 1 hr 49 min 58 sec) 
Heartbeat CPU 0 instructions: 126000000 cycles: 637965583 heartbeat IPC: 0.240794 cumulative IPC: 0.124045 (Simulation time: 1 hr 50 min 5 sec) 
Heartbeat CPU 0 instructions: 127000002 cycles: 649827255 heartbeat IPC: 0.0843053 cumulative IPC: 0.12329 (Simulation time: 1 hr 50 min 15 sec) 
Heartbeat CPU 0 instructions: 128000000 cycles: 658246721 heartbeat IPC: 0.118772 cumulative IPC: 0.12323 (Simulation time: 1 hr 50 min 25 sec) 
Heartbeat CPU 0 instructions: 129000000 cycles: 662350568 heartbeat IPC: 0.243674 cumulative IPC: 0.124006 (Simulation time: 1 hr 50 min 31 sec) 
Heartbeat CPU 0 instructions: 130000000 cycles: 671044887 heartbeat IPC: 0.115018 cumulative IPC: 0.123885 (Simulation time: 1 hr 50 min 39 sec) 
Heartbeat CPU 0 instructions: 131000000 cycles: 683273666 heartbeat IPC: 0.0817743 cumulative IPC: 0.123102 (Simulation time: 1 hr 50 min 48 sec) 
Heartbeat CPU 0 instructions: 132000000 cycles: 688185077 heartbeat IPC: 0.203607 cumulative IPC: 0.123699 (Simulation time: 1 hr 50 min 55 sec) 
Heartbeat CPU 0 instructions: 133000002 cycles: 692898619 heartbeat IPC: 0.212155 cumulative IPC: 0.124323 (Simulation time: 1 hr 51 min 2 sec) 
Heartbeat CPU 0 instructions: 134000001 cycles: 708196732 heartbeat IPC: 0.0653675 cumulative IPC: 0.123003 (Simulation time: 1 hr 51 min 14 sec) 
Heartbeat CPU 0 instructions: 135000001 cycles: 712731564 heartbeat IPC: 0.220515 cumulative IPC: 0.123646 (Simulation time: 1 hr 51 min 21 sec) 
Heartbeat CPU 0 instructions: 136000000 cycles: 720755387 heartbeat IPC: 0.124629 cumulative IPC: 0.123657 (Simulation time: 1 hr 51 min 29 sec) 
Heartbeat CPU 0 instructions: 137000000 cycles: 730727630 heartbeat IPC: 0.100278 cumulative IPC: 0.123327 (Simulation time: 1 hr 51 min 38 sec) 
Heartbeat CPU 0 instructions: 138000001 cycles: 740976322 heartbeat IPC: 0.0975735 cumulative IPC: 0.122958 (Simulation time: 1 hr 51 min 47 sec) 
Heartbeat CPU 0 instructions: 139000002 cycles: 745131535 heartbeat IPC: 0.240662 cumulative IPC: 0.123637 (Simulation time: 1 hr 51 min 54 sec) 
Heartbeat CPU 0 instructions: 140000000 cycles: 751332689 heartbeat IPC: 0.16126 cumulative IPC: 0.123959 (Simulation time: 1 hr 52 min 2 sec) 
Heartbeat CPU 0 instructions: 141000002 cycles: 765818062 heartbeat IPC: 0.0690353 cumulative IPC: 0.122884 (Simulation time: 1 hr 52 min 13 sec) 
Heartbeat CPU 0 instructions: 142000002 cycles: 769831412 heartbeat IPC: 0.249168 cumulative IPC: 0.123565 (Simulation time: 1 hr 52 min 20 sec) 
Heartbeat CPU 0 instructions: 143000002 cycles: 773858346 heartbeat IPC: 0.248328 cumulative IPC: 0.124236 (Simulation time: 1 hr 52 min 26 sec) 
Heartbeat CPU 0 instructions: 144000000 cycles: 788372683 heartbeat IPC: 0.0688973 cumulative IPC: 0.123184 (Simulation time: 1 hr 52 min 37 sec) 
Heartbeat CPU 0 instructions: 145000001 cycles: 793464387 heartbeat IPC: 0.196398 cumulative IPC: 0.123669 (Simulation time: 1 hr 52 min 43 sec) 
Heartbeat CPU 0 instructions: 146000001 cycles: 797544384 heartbeat IPC: 0.245098 cumulative IPC: 0.12431 (Simulation time: 1 hr 52 min 49 sec) 
Heartbeat CPU 0 instructions: 147000000 cycles: 810632118 heartbeat IPC: 0.0764073 cumulative IPC: 0.123512 (Simulation time: 1 hr 52 min 58 sec) 
Heartbeat CPU 0 instructions: 148000000 cycles: 818080356 heartbeat IPC: 0.13426 cumulative IPC: 0.123613 (Simulation time: 1 hr 53 min 6 sec) 
Heartbeat CPU 0 instructions: 149000000 cycles: 822272380 heartbeat IPC: 0.238548 cumulative IPC: 0.124218 (Simulation time: 1 hr 53 min 13 sec) 
Heartbeat CPU 0 instructions: 150000000 cycles: 832762223 heartbeat IPC: 0.0953303 cumulative IPC: 0.123842 (Simulation time: 1 hr 53 min 21 sec) 
Finished CPU 0 instructions: 100000000 cycles: 807478347 cummulative IPC: 0.123842 (Simulation time: 1 hr 53 min 21 sec) 

ChampSim completed all CPUs

Region of Interest Statistics

CPU 0 cummulative IPC: 0.123842 instructions: 100000000 cycles: 807478347
LLC TOTAL     ACCESS:   18838959  HIT:    8488662  MISS:   10350297
LLC LOAD      ACCESS:    8518724  HIT:    4430460  MISS:    4088264
LLC RFO       ACCESS:     210595  HIT:      62145  MISS:     148450
LLC PREFETCH  ACCESS:    8014206  HIT:    2774193  MISS:    5240013
LLC WRITEBACK ACCESS:    2095434  HIT:    1221864  MISS:     873570
OPTgen accesses: 105251
OPTgen hits: 80423
OPTgen hit rate: 76.4107


