
*** ChampSim Multicore Out-of-Order Simulator ***

Warmup Instructions: 50000000
Simulation Instructions: 100000000
Configuration: 2
Number of CPUs: 1
LLC sets: 2048
LLC ways: 16
Off-chip DRAM Channels: 1 Width: 64-bit Data Rate: 1600 MT/s

CPU 0 runs /datasets/cs240c-wi22-a00-public/data/Assignment2-gz/sphinx3_2520B.trace.gz
CPU 0 L1D next line prefetcher
CPU 0 L2C IP-based stride prefetcher
Initialize Hawkeye state
Heartbeat CPU 0 instructions: 1000003 cycles: 338965 heartbeat IPC: 2.95017 cumulative IPC: 2.95017 (Simulation time: 0 hr 0 min 38 sec) 
Heartbeat CPU 0 instructions: 2000000 cycles: 737242 heartbeat IPC: 2.51081 cumulative IPC: 2.71281 (Simulation time: 0 hr 1 min 24 sec) 
Heartbeat CPU 0 instructions: 3000003 cycles: 1185235 heartbeat IPC: 2.23218 cumulative IPC: 2.53115 (Simulation time: 0 hr 2 min 4 sec) 
Heartbeat CPU 0 instructions: 4000000 cycles: 1524261 heartbeat IPC: 2.94962 cumulative IPC: 2.62422 (Simulation time: 0 hr 2 min 42 sec) 
Heartbeat CPU 0 instructions: 5000001 cycles: 1902389 heartbeat IPC: 2.64461 cumulative IPC: 2.62827 (Simulation time: 0 hr 3 min 24 sec) 
Heartbeat CPU 0 instructions: 6000001 cycles: 2367806 heartbeat IPC: 2.14861 cumulative IPC: 2.53399 (Simulation time: 0 hr 4 min 5 sec) 
Heartbeat CPU 0 instructions: 7000001 cycles: 2706747 heartbeat IPC: 2.95037 cumulative IPC: 2.58613 (Simulation time: 0 hr 4 min 46 sec) 
Heartbeat CPU 0 instructions: 8000000 cycles: 3055760 heartbeat IPC: 2.86522 cumulative IPC: 2.61801 (Simulation time: 0 hr 5 min 27 sec) 
Heartbeat CPU 0 instructions: 9000000 cycles: 3509143 heartbeat IPC: 2.20564 cumulative IPC: 2.56473 (Simulation time: 0 hr 6 min 8 sec) 
Heartbeat CPU 0 instructions: 10000000 cycles: 3859307 heartbeat IPC: 2.8558 cumulative IPC: 2.59114 (Simulation time: 0 hr 6 min 45 sec) 
Heartbeat CPU 0 instructions: 11000003 cycles: 4204081 heartbeat IPC: 2.90046 cumulative IPC: 2.61651 (Simulation time: 0 hr 7 min 23 sec) 
Heartbeat CPU 0 instructions: 12000000 cycles: 4648665 heartbeat IPC: 2.24929 cumulative IPC: 2.58139 (Simulation time: 0 hr 8 min 6 sec) 
Heartbeat CPU 0 instructions: 13000000 cycles: 5008264 heartbeat IPC: 2.78088 cumulative IPC: 2.59571 (Simulation time: 0 hr 8 min 49 sec) 
Heartbeat CPU 0 instructions: 14000002 cycles: 5350970 heartbeat IPC: 2.91796 cumulative IPC: 2.61635 (Simulation time: 0 hr 9 min 31 sec) 
Heartbeat CPU 0 instructions: 15000003 cycles: 5790244 heartbeat IPC: 2.27649 cumulative IPC: 2.59056 (Simulation time: 0 hr 10 min 10 sec) 
Heartbeat CPU 0 instructions: 16000000 cycles: 6157099 heartbeat IPC: 2.72586 cumulative IPC: 2.59863 (Simulation time: 0 hr 10 min 54 sec) 
Heartbeat CPU 0 instructions: 17000000 cycles: 6498512 heartbeat IPC: 2.929 cumulative IPC: 2.61598 (Simulation time: 0 hr 11 min 31 sec) 
Heartbeat CPU 0 instructions: 18000002 cycles: 6932824 heartbeat IPC: 2.3025 cumulative IPC: 2.59634 (Simulation time: 0 hr 12 min 11 sec) 
Heartbeat CPU 0 instructions: 19000000 cycles: 7304151 heartbeat IPC: 2.69304 cumulative IPC: 2.60126 (Simulation time: 0 hr 12 min 47 sec) 
Heartbeat CPU 0 instructions: 20000000 cycles: 7645334 heartbeat IPC: 2.93098 cumulative IPC: 2.61597 (Simulation time: 0 hr 13 min 28 sec) 
Heartbeat CPU 0 instructions: 21000001 cycles: 8089653 heartbeat IPC: 2.25064 cumulative IPC: 2.59591 (Simulation time: 0 hr 14 min 8 sec) 
Heartbeat CPU 0 instructions: 22000002 cycles: 8503733 heartbeat IPC: 2.41499 cumulative IPC: 2.5871 (Simulation time: 0 hr 14 min 44 sec) 
Heartbeat CPU 0 instructions: 23000001 cycles: 8942730 heartbeat IPC: 2.27792 cumulative IPC: 2.57192 (Simulation time: 0 hr 15 min 19 sec) 
Heartbeat CPU 0 instructions: 24000000 cycles: 9281754 heartbeat IPC: 2.94964 cumulative IPC: 2.58572 (Simulation time: 0 hr 15 min 54 sec) 
Heartbeat CPU 0 instructions: 25000003 cycles: 9668471 heartbeat IPC: 2.58588 cumulative IPC: 2.58572 (Simulation time: 0 hr 16 min 30 sec) 
Heartbeat CPU 0 instructions: 26000001 cycles: 10085319 heartbeat IPC: 2.39895 cumulative IPC: 2.578 (Simulation time: 0 hr 17 min 4 sec) 
Heartbeat CPU 0 instructions: 27000003 cycles: 10424296 heartbeat IPC: 2.95006 cumulative IPC: 2.5901 (Simulation time: 0 hr 17 min 41 sec) 
Heartbeat CPU 0 instructions: 28000000 cycles: 10827565 heartbeat IPC: 2.47973 cumulative IPC: 2.58599 (Simulation time: 0 hr 18 min 19 sec) 
Heartbeat CPU 0 instructions: 29000002 cycles: 11228098 heartbeat IPC: 2.49668 cumulative IPC: 2.58281 (Simulation time: 0 hr 18 min 57 sec) 
Heartbeat CPU 0 instructions: 30000002 cycles: 11567036 heartbeat IPC: 2.95039 cumulative IPC: 2.59358 (Simulation time: 0 hr 19 min 32 sec) 
Heartbeat CPU 0 instructions: 31000000 cycles: 11988272 heartbeat IPC: 2.37396 cumulative IPC: 2.58586 (Simulation time: 0 hr 20 min 11 sec) 
Heartbeat CPU 0 instructions: 32000000 cycles: 12369621 heartbeat IPC: 2.62227 cumulative IPC: 2.58698 (Simulation time: 0 hr 20 min 47 sec) 
Heartbeat CPU 0 instructions: 33000002 cycles: 12710370 heartbeat IPC: 2.93472 cumulative IPC: 2.59631 (Simulation time: 0 hr 21 min 26 sec) 
Heartbeat CPU 0 instructions: 34000000 cycles: 13150112 heartbeat IPC: 2.27406 cumulative IPC: 2.58553 (Simulation time: 0 hr 22 min 3 sec) 
Heartbeat CPU 0 instructions: 35000001 cycles: 13511389 heartbeat IPC: 2.76796 cumulative IPC: 2.59041 (Simulation time: 0 hr 22 min 44 sec) 
Heartbeat CPU 0 instructions: 36000000 cycles: 13853721 heartbeat IPC: 2.92114 cumulative IPC: 2.59858 (Simulation time: 0 hr 23 min 23 sec) 
Heartbeat CPU 0 instructions: 37000000 cycles: 14313195 heartbeat IPC: 2.1764 cumulative IPC: 2.58503 (Simulation time: 0 hr 24 min 1 sec) 
Heartbeat CPU 0 instructions: 38000000 cycles: 14653507 heartbeat IPC: 2.93848 cumulative IPC: 2.59324 (Simulation time: 0 hr 24 min 43 sec) 
Heartbeat CPU 0 instructions: 39000003 cycles: 14999853 heartbeat IPC: 2.88729 cumulative IPC: 2.60003 (Simulation time: 0 hr 25 min 24 sec) 
Heartbeat CPU 0 instructions: 40000000 cycles: 15458572 heartbeat IPC: 2.17998 cumulative IPC: 2.58756 (Simulation time: 0 hr 26 min 10 sec) 
Heartbeat CPU 0 instructions: 41000001 cycles: 15797610 heartbeat IPC: 2.94952 cumulative IPC: 2.59533 (Simulation time: 0 hr 26 min 51 sec) 
Heartbeat CPU 0 instructions: 42000003 cycles: 16145575 heartbeat IPC: 2.87386 cumulative IPC: 2.60133 (Simulation time: 0 hr 27 min 35 sec) 
Heartbeat CPU 0 instructions: 43000001 cycles: 16601847 heartbeat IPC: 2.19167 cumulative IPC: 2.59007 (Simulation time: 0 hr 28 min 17 sec) 
Heartbeat CPU 0 instructions: 44000000 cycles: 16940716 heartbeat IPC: 2.95099 cumulative IPC: 2.59729 (Simulation time: 0 hr 29 min 1 sec) 
Heartbeat CPU 0 instructions: 45000001 cycles: 17287824 heartbeat IPC: 2.88095 cumulative IPC: 2.60299 (Simulation time: 0 hr 29 min 46 sec) 
Heartbeat CPU 0 instructions: 46000000 cycles: 17745468 heartbeat IPC: 2.1851 cumulative IPC: 2.59221 (Simulation time: 0 hr 30 min 33 sec) 
Heartbeat CPU 0 instructions: 47000003 cycles: 18084451 heartbeat IPC: 2.95001 cumulative IPC: 2.59892 (Simulation time: 0 hr 31 min 17 sec) 
Heartbeat CPU 0 instructions: 48000000 cycles: 18432991 heartbeat IPC: 2.8691 cumulative IPC: 2.60403 (Simulation time: 0 hr 31 min 58 sec) 
Heartbeat CPU 0 instructions: 49000002 cycles: 18887734 heartbeat IPC: 2.19905 cumulative IPC: 2.59428 (Simulation time: 0 hr 32 min 38 sec) 
Heartbeat CPU 0 instructions: 50000001 cycles: 19226718 heartbeat IPC: 2.94999 cumulative IPC: 2.60055 (Simulation time: 0 hr 33 min 20 sec) 

Warmup complete CPU 0 instructions: 50000001 cycles: 19226718 (Simulation time: 0 hr 33 min 20 sec) 

Heartbeat CPU 0 instructions: 51000001 cycles: 20032771 heartbeat IPC: 1.24061 cumulative IPC: 1.24061 (Simulation time: 0 hr 34 min 7 sec) 
Heartbeat CPU 0 instructions: 52000000 cycles: 20834988 heartbeat IPC: 1.24654 cumulative IPC: 1.24357 (Simulation time: 0 hr 34 min 53 sec) 
Heartbeat CPU 0 instructions: 53000001 cycles: 21651038 heartbeat IPC: 1.22542 cumulative IPC: 1.23746 (Simulation time: 0 hr 35 min 47 sec) 
Heartbeat CPU 0 instructions: 54000001 cycles: 22440560 heartbeat IPC: 1.26659 cumulative IPC: 1.24462 (Simulation time: 0 hr 36 min 39 sec) 
Heartbeat CPU 0 instructions: 55000000 cycles: 23228199 heartbeat IPC: 1.26962 cumulative IPC: 1.24954 (Simulation time: 0 hr 37 min 26 sec) 
Heartbeat CPU 0 instructions: 56000000 cycles: 24040914 heartbeat IPC: 1.23044 cumulative IPC: 1.24631 (Simulation time: 0 hr 38 min 19 sec) 
Heartbeat CPU 0 instructions: 57000000 cycles: 24929465 heartbeat IPC: 1.12543 cumulative IPC: 1.22748 (Simulation time: 0 hr 39 min 9 sec) 
Heartbeat CPU 0 instructions: 58000002 cycles: 26057863 heartbeat IPC: 0.886214 cumulative IPC: 1.17111 (Simulation time: 0 hr 39 min 54 sec) 
Heartbeat CPU 0 instructions: 59000001 cycles: 26877394 heartbeat IPC: 1.22021 cumulative IPC: 1.17637 (Simulation time: 0 hr 40 min 39 sec) 
Heartbeat CPU 0 instructions: 60000000 cycles: 27696590 heartbeat IPC: 1.22071 cumulative IPC: 1.18066 (Simulation time: 0 hr 41 min 19 sec) 
Heartbeat CPU 0 instructions: 61000001 cycles: 28483521 heartbeat IPC: 1.27076 cumulative IPC: 1.18832 (Simulation time: 0 hr 41 min 57 sec) 
Heartbeat CPU 0 instructions: 62000000 cycles: 29282877 heartbeat IPC: 1.25101 cumulative IPC: 1.1933 (Simulation time: 0 hr 42 min 34 sec) 
Heartbeat CPU 0 instructions: 63000002 cycles: 30089476 heartbeat IPC: 1.23978 cumulative IPC: 1.19675 (Simulation time: 0 hr 43 min 12 sec) 
Heartbeat CPU 0 instructions: 64000000 cycles: 30885140 heartbeat IPC: 1.25681 cumulative IPC: 1.20085 (Simulation time: 0 hr 43 min 49 sec) 
Heartbeat CPU 0 instructions: 65000003 cycles: 31677948 heartbeat IPC: 1.26134 cumulative IPC: 1.2047 (Simulation time: 0 hr 44 min 28 sec) 
Heartbeat CPU 0 instructions: 66000003 cycles: 32489781 heartbeat IPC: 1.23178 cumulative IPC: 1.20636 (Simulation time: 0 hr 45 min 6 sec) 
Heartbeat CPU 0 instructions: 67000003 cycles: 33320304 heartbeat IPC: 1.20406 cumulative IPC: 1.20622 (Simulation time: 0 hr 45 min 44 sec) 
Heartbeat CPU 0 instructions: 68000000 cycles: 34121108 heartbeat IPC: 1.24874 cumulative IPC: 1.20851 (Simulation time: 0 hr 46 min 21 sec) 
Heartbeat CPU 0 instructions: 69000003 cycles: 34937204 heartbeat IPC: 1.22535 cumulative IPC: 1.20938 (Simulation time: 0 hr 46 min 59 sec) 
Heartbeat CPU 0 instructions: 70000000 cycles: 35746326 heartbeat IPC: 1.2359 cumulative IPC: 1.21068 (Simulation time: 0 hr 47 min 38 sec) 
Heartbeat CPU 0 instructions: 71000002 cycles: 36554713 heartbeat IPC: 1.23703 cumulative IPC: 1.21191 (Simulation time: 0 hr 48 min 16 sec) 
Heartbeat CPU 0 instructions: 72000000 cycles: 37367615 heartbeat IPC: 1.23016 cumulative IPC: 1.21273 (Simulation time: 0 hr 48 min 55 sec) 
Heartbeat CPU 0 instructions: 73000003 cycles: 38168034 heartbeat IPC: 1.24935 cumulative IPC: 1.21428 (Simulation time: 0 hr 49 min 33 sec) 
Heartbeat CPU 0 instructions: 74000003 cycles: 38970732 heartbeat IPC: 1.2458 cumulative IPC: 1.21556 (Simulation time: 0 hr 50 min 11 sec) 
Heartbeat CPU 0 instructions: 75000002 cycles: 39784803 heartbeat IPC: 1.22839 cumulative IPC: 1.21607 (Simulation time: 0 hr 50 min 51 sec) 
Heartbeat CPU 0 instructions: 76000000 cycles: 40586541 heartbeat IPC: 1.24729 cumulative IPC: 1.21724 (Simulation time: 0 hr 51 min 28 sec) 
Heartbeat CPU 0 instructions: 77000003 cycles: 41410728 heartbeat IPC: 1.21332 cumulative IPC: 1.21709 (Simulation time: 0 hr 52 min 5 sec) 
Heartbeat CPU 0 instructions: 78000003 cycles: 42218912 heartbeat IPC: 1.23734 cumulative IPC: 1.2178 (Simulation time: 0 hr 52 min 40 sec) 
Heartbeat CPU 0 instructions: 79000003 cycles: 43016415 heartbeat IPC: 1.25391 cumulative IPC: 1.21902 (Simulation time: 0 hr 53 min 17 sec) 
Heartbeat CPU 0 instructions: 80000000 cycles: 43833806 heartbeat IPC: 1.2234 cumulative IPC: 1.21916 (Simulation time: 0 hr 53 min 51 sec) 
Heartbeat CPU 0 instructions: 81000001 cycles: 44642722 heartbeat IPC: 1.23622 cumulative IPC: 1.2197 (Simulation time: 0 hr 54 min 26 sec) 
Heartbeat CPU 0 instructions: 82000002 cycles: 45443773 heartbeat IPC: 1.24836 cumulative IPC: 1.22058 (Simulation time: 0 hr 55 min 2 sec) 
Heartbeat CPU 0 instructions: 83000003 cycles: 46275401 heartbeat IPC: 1.20246 cumulative IPC: 1.22002 (Simulation time: 0 hr 55 min 41 sec) 
Heartbeat CPU 0 instructions: 84000000 cycles: 47084910 heartbeat IPC: 1.23531 cumulative IPC: 1.22047 (Simulation time: 0 hr 56 min 18 sec) 
Heartbeat CPU 0 instructions: 85000001 cycles: 47886549 heartbeat IPC: 1.24745 cumulative IPC: 1.22122 (Simulation time: 0 hr 56 min 54 sec) 
Heartbeat CPU 0 instructions: 86000002 cycles: 48686393 heartbeat IPC: 1.25025 cumulative IPC: 1.22201 (Simulation time: 0 hr 57 min 32 sec) 
Heartbeat CPU 0 instructions: 87000003 cycles: 49487968 heartbeat IPC: 1.24755 cumulative IPC: 1.22269 (Simulation time: 0 hr 58 min 9 sec) 
Heartbeat CPU 0 instructions: 88000000 cycles: 50290639 heartbeat IPC: 1.24584 cumulative IPC: 1.22328 (Simulation time: 0 hr 58 min 45 sec) 
Heartbeat CPU 0 instructions: 89000000 cycles: 51097978 heartbeat IPC: 1.23864 cumulative IPC: 1.22367 (Simulation time: 0 hr 59 min 21 sec) 
Heartbeat CPU 0 instructions: 90000001 cycles: 51920284 heartbeat IPC: 1.21609 cumulative IPC: 1.22348 (Simulation time: 0 hr 59 min 57 sec) 
Heartbeat CPU 0 instructions: 91000001 cycles: 52738190 heartbeat IPC: 1.22263 cumulative IPC: 1.22346 (Simulation time: 1 hr 0 min 31 sec) 
Heartbeat CPU 0 instructions: 92000000 cycles: 53488171 heartbeat IPC: 1.33337 cumulative IPC: 1.22587 (Simulation time: 1 hr 1 min 9 sec) 
Heartbeat CPU 0 instructions: 93000002 cycles: 54168766 heartbeat IPC: 1.46931 cumulative IPC: 1.23061 (Simulation time: 1 hr 1 min 47 sec) 
Heartbeat CPU 0 instructions: 94000000 cycles: 55012482 heartbeat IPC: 1.18523 cumulative IPC: 1.22954 (Simulation time: 1 hr 2 min 23 sec) 
Heartbeat CPU 0 instructions: 95000000 cycles: 55714534 heartbeat IPC: 1.4244 cumulative IPC: 1.23329 (Simulation time: 1 hr 2 min 58 sec) 
Heartbeat CPU 0 instructions: 96000000 cycles: 56452061 heartbeat IPC: 1.35588 cumulative IPC: 1.23572 (Simulation time: 1 hr 3 min 33 sec) 
Heartbeat CPU 0 instructions: 97000002 cycles: 57629836 heartbeat IPC: 0.84906 cumulative IPC: 1.22386 (Simulation time: 1 hr 4 min 14 sec) 
Heartbeat CPU 0 instructions: 98000003 cycles: 58588653 heartbeat IPC: 1.04295 cumulative IPC: 1.21945 (Simulation time: 1 hr 4 min 52 sec) 
Heartbeat CPU 0 instructions: 99000001 cycles: 59364339 heartbeat IPC: 1.28918 cumulative IPC: 1.2208 (Simulation time: 1 hr 5 min 31 sec) 
Heartbeat CPU 0 instructions: 100000000 cycles: 60101404 heartbeat IPC: 1.35673 cumulative IPC: 1.22325 (Simulation time: 1 hr 6 min 10 sec) 
Heartbeat CPU 0 instructions: 101000001 cycles: 61468934 heartbeat IPC: 0.731246 cumulative IPC: 1.20732 (Simulation time: 1 hr 6 min 50 sec) 
Heartbeat CPU 0 instructions: 102000001 cycles: 62303880 heartbeat IPC: 1.19768 cumulative IPC: 1.20714 (Simulation time: 1 hr 7 min 26 sec) 
Heartbeat CPU 0 instructions: 103000001 cycles: 63133140 heartbeat IPC: 1.20589 cumulative IPC: 1.20711 (Simulation time: 1 hr 8 min 4 sec) 
Heartbeat CPU 0 instructions: 104000000 cycles: 64405668 heartbeat IPC: 0.785837 cumulative IPC: 1.19525 (Simulation time: 1 hr 8 min 45 sec) 
Heartbeat CPU 0 instructions: 105000002 cycles: 65255867 heartbeat IPC: 1.1762 cumulative IPC: 1.1949 (Simulation time: 1 hr 9 min 24 sec) 
Heartbeat CPU 0 instructions: 106000000 cycles: 65977429 heartbeat IPC: 1.38588 cumulative IPC: 1.19784 (Simulation time: 1 hr 10 min 0 sec) 
Heartbeat CPU 0 instructions: 107000001 cycles: 67020801 heartbeat IPC: 0.958432 cumulative IPC: 1.19262 (Simulation time: 1 hr 10 min 37 sec) 
Heartbeat CPU 0 instructions: 108000000 cycles: 68038151 heartbeat IPC: 0.982945 cumulative IPC: 1.18825 (Simulation time: 1 hr 11 min 13 sec) 
Heartbeat CPU 0 instructions: 109000003 cycles: 68786218 heartbeat IPC: 1.33678 cumulative IPC: 1.19049 (Simulation time: 1 hr 11 min 50 sec) 
Heartbeat CPU 0 instructions: 110000000 cycles: 69610423 heartbeat IPC: 1.21329 cumulative IPC: 1.19086 (Simulation time: 1 hr 12 min 24 sec) 
Heartbeat CPU 0 instructions: 111000001 cycles: 70829609 heartbeat IPC: 0.82022 cumulative IPC: 1.1821 (Simulation time: 1 hr 13 min 2 sec) 
Heartbeat CPU 0 instructions: 112000000 cycles: 71637847 heartbeat IPC: 1.23726 cumulative IPC: 1.18295 (Simulation time: 1 hr 13 min 38 sec) 
Heartbeat CPU 0 instructions: 113000000 cycles: 72426444 heartbeat IPC: 1.26807 cumulative IPC: 1.18422 (Simulation time: 1 hr 14 min 14 sec) 
Heartbeat CPU 0 instructions: 114000000 cycles: 73678346 heartbeat IPC: 0.798785 cumulative IPC: 1.17536 (Simulation time: 1 hr 14 min 54 sec) 
Heartbeat CPU 0 instructions: 115000000 cycles: 74532621 heartbeat IPC: 1.17058 cumulative IPC: 1.17528 (Simulation time: 1 hr 15 min 30 sec) 
Heartbeat CPU 0 instructions: 116000000 cycles: 75286550 heartbeat IPC: 1.32638 cumulative IPC: 1.17731 (Simulation time: 1 hr 16 min 7 sec) 
Heartbeat CPU 0 instructions: 117000001 cycles: 76341248 heartbeat IPC: 0.94814 cumulative IPC: 1.17308 (Simulation time: 1 hr 16 min 46 sec) 
Heartbeat CPU 0 instructions: 118000001 cycles: 77362178 heartbeat IPC: 0.979499 cumulative IPC: 1.16968 (Simulation time: 1 hr 17 min 23 sec) 
Heartbeat CPU 0 instructions: 119000001 cycles: 78102053 heartbeat IPC: 1.35158 cumulative IPC: 1.17197 (Simulation time: 1 hr 18 min 0 sec) 
Heartbeat CPU 0 instructions: 120000000 cycles: 78947091 heartbeat IPC: 1.18338 cumulative IPC: 1.17213 (Simulation time: 1 hr 18 min 38 sec) 
Heartbeat CPU 0 instructions: 121000003 cycles: 80174155 heartbeat IPC: 0.814956 cumulative IPC: 1.16494 (Simulation time: 1 hr 19 min 17 sec) 
Heartbeat CPU 0 instructions: 122000000 cycles: 80986826 heartbeat IPC: 1.23051 cumulative IPC: 1.1658 (Simulation time: 1 hr 19 min 54 sec) 
Heartbeat CPU 0 instructions: 123000003 cycles: 81715028 heartbeat IPC: 1.37325 cumulative IPC: 1.16822 (Simulation time: 1 hr 20 min 31 sec) 
Heartbeat CPU 0 instructions: 124000000 cycles: 82892149 heartbeat IPC: 0.849528 cumulative IPC: 1.16233 (Simulation time: 1 hr 21 min 10 sec) 
Heartbeat CPU 0 instructions: 125000000 cycles: 83785879 heartbeat IPC: 1.11891 cumulative IPC: 1.16173 (Simulation time: 1 hr 21 min 45 sec) 
Heartbeat CPU 0 instructions: 126000000 cycles: 84554954 heartbeat IPC: 1.30026 cumulative IPC: 1.16336 (Simulation time: 1 hr 22 min 24 sec) 
Heartbeat CPU 0 instructions: 127000000 cycles: 85560847 heartbeat IPC: 0.994142 cumulative IPC: 1.16079 (Simulation time: 1 hr 23 min 1 sec) 
Heartbeat CPU 0 instructions: 128000000 cycles: 86643848 heartbeat IPC: 0.92336 cumulative IPC: 1.15698 (Simulation time: 1 hr 23 min 38 sec) 
Heartbeat CPU 0 instructions: 129000000 cycles: 87442013 heartbeat IPC: 1.25287 cumulative IPC: 1.1581 (Simulation time: 1 hr 24 min 16 sec) 
Heartbeat CPU 0 instructions: 130000000 cycles: 88219398 heartbeat IPC: 1.28636 cumulative IPC: 1.15954 (Simulation time: 1 hr 24 min 51 sec) 
Heartbeat CPU 0 instructions: 131000002 cycles: 89528897 heartbeat IPC: 0.763652 cumulative IPC: 1.15217 (Simulation time: 1 hr 25 min 27 sec) 
Heartbeat CPU 0 instructions: 132000000 cycles: 90357709 heartbeat IPC: 1.20654 cumulative IPC: 1.1528 (Simulation time: 1 hr 26 min 2 sec) 
Heartbeat CPU 0 instructions: 133000000 cycles: 91099418 heartbeat IPC: 1.34824 cumulative IPC: 1.15482 (Simulation time: 1 hr 26 min 36 sec) 
Heartbeat CPU 0 instructions: 134000001 cycles: 92249097 heartbeat IPC: 0.869809 cumulative IPC: 1.15033 (Simulation time: 1 hr 27 min 13 sec) 
Heartbeat CPU 0 instructions: 135000002 cycles: 93173679 heartbeat IPC: 1.08157 cumulative IPC: 1.14947 (Simulation time: 1 hr 27 min 46 sec) 
Heartbeat CPU 0 instructions: 136000000 cycles: 93923235 heartbeat IPC: 1.33412 cumulative IPC: 1.15133 (Simulation time: 1 hr 28 min 16 sec) 
Heartbeat CPU 0 instructions: 137000002 cycles: 94828464 heartbeat IPC: 1.1047 cumulative IPC: 1.15077 (Simulation time: 1 hr 28 min 48 sec) 
Heartbeat CPU 0 instructions: 138000000 cycles: 96173289 heartbeat IPC: 0.74359 cumulative IPC: 1.14365 (Simulation time: 1 hr 29 min 20 sec) 
Heartbeat CPU 0 instructions: 139000000 cycles: 97270503 heartbeat IPC: 0.911399 cumulative IPC: 1.14039 (Simulation time: 1 hr 29 min 52 sec) 
Heartbeat CPU 0 instructions: 140000000 cycles: 98101198 heartbeat IPC: 1.20381 cumulative IPC: 1.14105 (Simulation time: 1 hr 30 min 23 sec) 
Heartbeat CPU 0 instructions: 141000003 cycles: 98885716 heartbeat IPC: 1.27467 cumulative IPC: 1.14237 (Simulation time: 1 hr 30 min 54 sec) 
Heartbeat CPU 0 instructions: 142000000 cycles: 100014173 heartbeat IPC: 0.886163 cumulative IPC: 1.13879 (Simulation time: 1 hr 31 min 26 sec) 
Heartbeat CPU 0 instructions: 143000003 cycles: 100996031 heartbeat IPC: 1.01848 cumulative IPC: 1.13735 (Simulation time: 1 hr 31 min 57 sec) 
Heartbeat CPU 0 instructions: 144000000 cycles: 101786590 heartbeat IPC: 1.26492 cumulative IPC: 1.13857 (Simulation time: 1 hr 32 min 27 sec) 
Heartbeat CPU 0 instructions: 145000000 cycles: 102653842 heartbeat IPC: 1.15307 cumulative IPC: 1.13872 (Simulation time: 1 hr 32 min 56 sec) 
Heartbeat CPU 0 instructions: 146000000 cycles: 103825807 heartbeat IPC: 0.853268 cumulative IPC: 1.13476 (Simulation time: 1 hr 33 min 29 sec) 
Heartbeat CPU 0 instructions: 147000003 cycles: 104653760 heartbeat IPC: 1.2078 cumulative IPC: 1.13547 (Simulation time: 1 hr 33 min 59 sec) 
Heartbeat CPU 0 instructions: 148000000 cycles: 105474824 heartbeat IPC: 1.21793 cumulative IPC: 1.13626 (Simulation time: 1 hr 34 min 26 sec) 
Heartbeat CPU 0 instructions: 149000003 cycles: 106801989 heartbeat IPC: 0.753488 cumulative IPC: 1.13046 (Simulation time: 1 hr 34 min 54 sec) 
Heartbeat CPU 0 instructions: 150000001 cycles: 107676824 heartbeat IPC: 1.14307 cumulative IPC: 1.13058 (Simulation time: 1 hr 35 min 20 sec) 
Finished CPU 0 instructions: 100000000 cycles: 88450106 cummulative IPC: 1.13058 (Simulation time: 1 hr 35 min 20 sec) 

ChampSim completed all CPUs

Region of Interest Statistics

CPU 0 cummulative IPC: 1.13058 instructions: 100000000 cycles: 88450106
LLC TOTAL     ACCESS:    1520453  HIT:     850925  MISS:     669528
LLC LOAD      ACCESS:     160617  HIT:     126336  MISS:      34281
LLC RFO       ACCESS:     118693  HIT:     115997  MISS:       2696
LLC PREFETCH  ACCESS:    1108834  HIT:     476307  MISS:     632527
LLC WRITEBACK ACCESS:     132309  HIT:     132285  MISS:         24
OPTgen accesses: 3738
OPTgen hits: 3548
OPTgen hit rate: 94.9171


