
*** ChampSim Multicore Out-of-Order Simulator ***

Warmup Instructions: 50000000
Simulation Instructions: 100000000
Configuration: 2
Number of CPUs: 1
LLC sets: 2048
LLC ways: 16
Off-chip DRAM Channels: 1 Width: 64-bit Data Rate: 1600 MT/s

CPU 0 runs /datasets/cs240c-wi22-a00-public/data/Assignment2-gz/perlbench_53B.trace.gz
CPU 0 L1D next line prefetcher
CPU 0 L2C IP-based stride prefetcher
Initialize Hawkeye state
Heartbeat CPU 0 instructions: 1000000 cycles: 615801 heartbeat IPC: 1.6239 cumulative IPC: 1.6239 (Simulation time: 0 hr 0 min 47 sec) 
Heartbeat CPU 0 instructions: 2000001 cycles: 1252973 heartbeat IPC: 1.56944 cumulative IPC: 1.5962 (Simulation time: 0 hr 1 min 27 sec) 
Heartbeat CPU 0 instructions: 3000002 cycles: 1908460 heartbeat IPC: 1.52558 cumulative IPC: 1.57195 (Simulation time: 0 hr 2 min 9 sec) 
Heartbeat CPU 0 instructions: 4000000 cycles: 2523963 heartbeat IPC: 1.62468 cumulative IPC: 1.58481 (Simulation time: 0 hr 2 min 49 sec) 
Heartbeat CPU 0 instructions: 5000001 cycles: 3151965 heartbeat IPC: 1.59235 cumulative IPC: 1.58631 (Simulation time: 0 hr 3 min 28 sec) 
Heartbeat CPU 0 instructions: 6000001 cycles: 3767465 heartbeat IPC: 1.6247 cumulative IPC: 1.59258 (Simulation time: 0 hr 4 min 4 sec) 
Heartbeat CPU 0 instructions: 7000002 cycles: 4390335 heartbeat IPC: 1.60547 cumulative IPC: 1.59441 (Simulation time: 0 hr 4 min 39 sec) 
Heartbeat CPU 0 instructions: 8000000 cycles: 5000735 heartbeat IPC: 1.63827 cumulative IPC: 1.59976 (Simulation time: 0 hr 5 min 18 sec) 
Heartbeat CPU 0 instructions: 9000000 cycles: 5652458 heartbeat IPC: 1.53439 cumulative IPC: 1.59223 (Simulation time: 0 hr 5 min 59 sec) 
Heartbeat CPU 0 instructions: 10000001 cycles: 6287747 heartbeat IPC: 1.57409 cumulative IPC: 1.59039 (Simulation time: 0 hr 6 min 38 sec) 
Heartbeat CPU 0 instructions: 11000000 cycles: 6904522 heartbeat IPC: 1.62134 cumulative IPC: 1.59316 (Simulation time: 0 hr 7 min 11 sec) 
Heartbeat CPU 0 instructions: 12000000 cycles: 7561737 heartbeat IPC: 1.52157 cumulative IPC: 1.58694 (Simulation time: 0 hr 7 min 52 sec) 
Heartbeat CPU 0 instructions: 13000000 cycles: 8151497 heartbeat IPC: 1.69561 cumulative IPC: 1.5948 (Simulation time: 0 hr 8 min 32 sec) 
Heartbeat CPU 0 instructions: 14000000 cycles: 8768410 heartbeat IPC: 1.62097 cumulative IPC: 1.59664 (Simulation time: 0 hr 9 min 9 sec) 
Heartbeat CPU 0 instructions: 15000001 cycles: 9380503 heartbeat IPC: 1.63374 cumulative IPC: 1.59906 (Simulation time: 0 hr 9 min 52 sec) 
Heartbeat CPU 0 instructions: 16000000 cycles: 9994619 heartbeat IPC: 1.62836 cumulative IPC: 1.60086 (Simulation time: 0 hr 10 min 31 sec) 
Heartbeat CPU 0 instructions: 17000002 cycles: 10626812 heartbeat IPC: 1.5818 cumulative IPC: 1.59973 (Simulation time: 0 hr 11 min 10 sec) 
Heartbeat CPU 0 instructions: 18000002 cycles: 11287236 heartbeat IPC: 1.51418 cumulative IPC: 1.59472 (Simulation time: 0 hr 11 min 49 sec) 
Heartbeat CPU 0 instructions: 19000001 cycles: 11894320 heartbeat IPC: 1.64722 cumulative IPC: 1.5974 (Simulation time: 0 hr 12 min 26 sec) 
Heartbeat CPU 0 instructions: 20000000 cycles: 12569776 heartbeat IPC: 1.48048 cumulative IPC: 1.59112 (Simulation time: 0 hr 13 min 6 sec) 
Heartbeat CPU 0 instructions: 21000000 cycles: 13182280 heartbeat IPC: 1.63264 cumulative IPC: 1.59305 (Simulation time: 0 hr 13 min 43 sec) 
Heartbeat CPU 0 instructions: 22000000 cycles: 13738005 heartbeat IPC: 1.79945 cumulative IPC: 1.6014 (Simulation time: 0 hr 14 min 18 sec) 
Heartbeat CPU 0 instructions: 23000001 cycles: 14277086 heartbeat IPC: 1.85501 cumulative IPC: 1.61097 (Simulation time: 0 hr 14 min 53 sec) 
Heartbeat CPU 0 instructions: 24000000 cycles: 14899950 heartbeat IPC: 1.60549 cumulative IPC: 1.61074 (Simulation time: 0 hr 15 min 32 sec) 
Heartbeat CPU 0 instructions: 25000000 cycles: 15452261 heartbeat IPC: 1.81057 cumulative IPC: 1.61789 (Simulation time: 0 hr 16 min 10 sec) 
Heartbeat CPU 0 instructions: 26000001 cycles: 16005862 heartbeat IPC: 1.80636 cumulative IPC: 1.6244 (Simulation time: 0 hr 16 min 45 sec) 
Heartbeat CPU 0 instructions: 27000001 cycles: 16597961 heartbeat IPC: 1.68891 cumulative IPC: 1.62671 (Simulation time: 0 hr 17 min 22 sec) 
Heartbeat CPU 0 instructions: 28000000 cycles: 17240719 heartbeat IPC: 1.55579 cumulative IPC: 1.62406 (Simulation time: 0 hr 17 min 57 sec) 
Heartbeat CPU 0 instructions: 29000000 cycles: 17852028 heartbeat IPC: 1.63583 cumulative IPC: 1.62447 (Simulation time: 0 hr 18 min 32 sec) 
Heartbeat CPU 0 instructions: 30000000 cycles: 18407012 heartbeat IPC: 1.80185 cumulative IPC: 1.62981 (Simulation time: 0 hr 19 min 4 sec) 
Heartbeat CPU 0 instructions: 31000001 cycles: 18958332 heartbeat IPC: 1.81383 cumulative IPC: 1.63516 (Simulation time: 0 hr 19 min 44 sec) 
Heartbeat CPU 0 instructions: 32000000 cycles: 19515052 heartbeat IPC: 1.79623 cumulative IPC: 1.63976 (Simulation time: 0 hr 20 min 19 sec) 
Heartbeat CPU 0 instructions: 33000003 cycles: 20104473 heartbeat IPC: 1.69659 cumulative IPC: 1.64143 (Simulation time: 0 hr 20 min 55 sec) 
Heartbeat CPU 0 instructions: 34000001 cycles: 20713059 heartbeat IPC: 1.64315 cumulative IPC: 1.64148 (Simulation time: 0 hr 21 min 33 sec) 
Heartbeat CPU 0 instructions: 35000001 cycles: 21324420 heartbeat IPC: 1.63569 cumulative IPC: 1.64131 (Simulation time: 0 hr 22 min 11 sec) 
Heartbeat CPU 0 instructions: 36000000 cycles: 21979645 heartbeat IPC: 1.52619 cumulative IPC: 1.63788 (Simulation time: 0 hr 22 min 51 sec) 
Heartbeat CPU 0 instructions: 37000002 cycles: 22613370 heartbeat IPC: 1.57797 cumulative IPC: 1.6362 (Simulation time: 0 hr 23 min 28 sec) 
Heartbeat CPU 0 instructions: 38000000 cycles: 23233419 heartbeat IPC: 1.61277 cumulative IPC: 1.63558 (Simulation time: 0 hr 24 min 5 sec) 
Heartbeat CPU 0 instructions: 39000001 cycles: 23863524 heartbeat IPC: 1.58704 cumulative IPC: 1.63429 (Simulation time: 0 hr 24 min 44 sec) 
Heartbeat CPU 0 instructions: 40000000 cycles: 24486685 heartbeat IPC: 1.60472 cumulative IPC: 1.63354 (Simulation time: 0 hr 25 min 27 sec) 
Heartbeat CPU 0 instructions: 41000002 cycles: 25110639 heartbeat IPC: 1.60269 cumulative IPC: 1.63277 (Simulation time: 0 hr 26 min 6 sec) 
Heartbeat CPU 0 instructions: 42000000 cycles: 25724428 heartbeat IPC: 1.62922 cumulative IPC: 1.63269 (Simulation time: 0 hr 26 min 45 sec) 
Heartbeat CPU 0 instructions: 43000002 cycles: 26364268 heartbeat IPC: 1.56289 cumulative IPC: 1.631 (Simulation time: 0 hr 27 min 30 sec) 
Heartbeat CPU 0 instructions: 44000000 cycles: 27024754 heartbeat IPC: 1.51403 cumulative IPC: 1.62814 (Simulation time: 0 hr 28 min 12 sec) 
Heartbeat CPU 0 instructions: 45000001 cycles: 27483291 heartbeat IPC: 2.18085 cumulative IPC: 1.63736 (Simulation time: 0 hr 28 min 41 sec) 
Heartbeat CPU 0 instructions: 46000000 cycles: 28033958 heartbeat IPC: 1.81598 cumulative IPC: 1.64087 (Simulation time: 0 hr 29 min 23 sec) 
Heartbeat CPU 0 instructions: 47000002 cycles: 28571811 heartbeat IPC: 1.85925 cumulative IPC: 1.64498 (Simulation time: 0 hr 30 min 2 sec) 
Heartbeat CPU 0 instructions: 48000000 cycles: 29109642 heartbeat IPC: 1.85932 cumulative IPC: 1.64894 (Simulation time: 0 hr 30 min 38 sec) 
Heartbeat CPU 0 instructions: 49000000 cycles: 29710448 heartbeat IPC: 1.66443 cumulative IPC: 1.64925 (Simulation time: 0 hr 31 min 22 sec) 
Heartbeat CPU 0 instructions: 50000002 cycles: 30241749 heartbeat IPC: 1.88218 cumulative IPC: 1.65334 (Simulation time: 0 hr 31 min 56 sec) 

Warmup complete CPU 0 instructions: 50000002 cycles: 30241749 (Simulation time: 0 hr 31 min 56 sec) 

Heartbeat CPU 0 instructions: 51000000 cycles: 32172174 heartbeat IPC: 0.51802 cumulative IPC: 0.51802 (Simulation time: 0 hr 32 min 37 sec) 
Heartbeat CPU 0 instructions: 52000000 cycles: 34087179 heartbeat IPC: 0.522192 cumulative IPC: 0.520097 (Simulation time: 0 hr 33 min 12 sec) 
Heartbeat CPU 0 instructions: 53000002 cycles: 36038381 heartbeat IPC: 0.512506 cumulative IPC: 0.517542 (Simulation time: 0 hr 33 min 49 sec) 
Heartbeat CPU 0 instructions: 54000000 cycles: 38975131 heartbeat IPC: 0.340512 cumulative IPC: 0.458012 (Simulation time: 0 hr 34 min 32 sec) 
Heartbeat CPU 0 instructions: 55000000 cycles: 41477968 heartbeat IPC: 0.399547 cumulative IPC: 0.444989 (Simulation time: 0 hr 35 min 21 sec) 
Heartbeat CPU 0 instructions: 56000000 cycles: 44299940 heartbeat IPC: 0.354362 cumulative IPC: 0.426797 (Simulation time: 0 hr 36 min 6 sec) 
Heartbeat CPU 0 instructions: 57000001 cycles: 47352416 heartbeat IPC: 0.327603 cumulative IPC: 0.409101 (Simulation time: 0 hr 36 min 48 sec) 
Heartbeat CPU 0 instructions: 58000003 cycles: 50326611 heartbeat IPC: 0.336226 cumulative IPC: 0.39831 (Simulation time: 0 hr 37 min 43 sec) 
Heartbeat CPU 0 instructions: 59000002 cycles: 53148487 heartbeat IPC: 0.354374 cumulative IPC: 0.392897 (Simulation time: 0 hr 38 min 24 sec) 
Heartbeat CPU 0 instructions: 60000000 cycles: 55912947 heartbeat IPC: 0.361734 cumulative IPC: 0.389542 (Simulation time: 0 hr 39 min 11 sec) 
Heartbeat CPU 0 instructions: 61000002 cycles: 58543089 heartbeat IPC: 0.380208 cumulative IPC: 0.388674 (Simulation time: 0 hr 39 min 52 sec) 
Heartbeat CPU 0 instructions: 62000002 cycles: 61221656 heartbeat IPC: 0.373334 cumulative IPC: 0.387348 (Simulation time: 0 hr 40 min 36 sec) 
Heartbeat CPU 0 instructions: 63000001 cycles: 63887848 heartbeat IPC: 0.375066 cumulative IPC: 0.386375 (Simulation time: 0 hr 41 min 20 sec) 
Heartbeat CPU 0 instructions: 64000000 cycles: 66543456 heartbeat IPC: 0.376561 cumulative IPC: 0.385657 (Simulation time: 0 hr 42 min 1 sec) 
Heartbeat CPU 0 instructions: 65000003 cycles: 69181356 heartbeat IPC: 0.379091 cumulative IPC: 0.385212 (Simulation time: 0 hr 42 min 43 sec) 
Heartbeat CPU 0 instructions: 66000001 cycles: 71809817 heartbeat IPC: 0.38045 cumulative IPC: 0.384911 (Simulation time: 0 hr 43 min 25 sec) 
Heartbeat CPU 0 instructions: 67000001 cycles: 74423163 heartbeat IPC: 0.382651 cumulative IPC: 0.384777 (Simulation time: 0 hr 44 min 11 sec) 
Heartbeat CPU 0 instructions: 68000000 cycles: 77089641 heartbeat IPC: 0.375026 cumulative IPC: 0.384222 (Simulation time: 0 hr 45 min 1 sec) 
Heartbeat CPU 0 instructions: 69000001 cycles: 79726949 heartbeat IPC: 0.379175 cumulative IPC: 0.383953 (Simulation time: 0 hr 45 min 48 sec) 
Heartbeat CPU 0 instructions: 70000001 cycles: 82337605 heartbeat IPC: 0.383045 cumulative IPC: 0.383908 (Simulation time: 0 hr 46 min 33 sec) 
Heartbeat CPU 0 instructions: 71000001 cycles: 85053953 heartbeat IPC: 0.368141 cumulative IPC: 0.383126 (Simulation time: 0 hr 47 min 23 sec) 
Heartbeat CPU 0 instructions: 72000000 cycles: 87676658 heartbeat IPC: 0.381285 cumulative IPC: 0.383042 (Simulation time: 0 hr 48 min 18 sec) 
Heartbeat CPU 0 instructions: 73000002 cycles: 90314713 heartbeat IPC: 0.379068 cumulative IPC: 0.382868 (Simulation time: 0 hr 49 min 7 sec) 
Heartbeat CPU 0 instructions: 74000001 cycles: 92992748 heartbeat IPC: 0.373408 cumulative IPC: 0.382464 (Simulation time: 0 hr 49 min 50 sec) 
Heartbeat CPU 0 instructions: 75000001 cycles: 95650539 heartbeat IPC: 0.376252 cumulative IPC: 0.382212 (Simulation time: 0 hr 50 min 34 sec) 
Heartbeat CPU 0 instructions: 76000000 cycles: 98291175 heartbeat IPC: 0.378696 cumulative IPC: 0.382075 (Simulation time: 0 hr 51 min 21 sec) 
Heartbeat CPU 0 instructions: 77000002 cycles: 100963596 heartbeat IPC: 0.374193 cumulative IPC: 0.381777 (Simulation time: 0 hr 52 min 11 sec) 
Heartbeat CPU 0 instructions: 78000000 cycles: 103617073 heartbeat IPC: 0.376863 cumulative IPC: 0.3816 (Simulation time: 0 hr 52 min 56 sec) 
Heartbeat CPU 0 instructions: 79000002 cycles: 106278183 heartbeat IPC: 0.375784 cumulative IPC: 0.381396 (Simulation time: 0 hr 53 min 37 sec) 
Heartbeat CPU 0 instructions: 80000000 cycles: 108912911 heartbeat IPC: 0.379545 cumulative IPC: 0.381334 (Simulation time: 0 hr 54 min 25 sec) 
Heartbeat CPU 0 instructions: 81000000 cycles: 111527257 heartbeat IPC: 0.382505 cumulative IPC: 0.381372 (Simulation time: 0 hr 55 min 7 sec) 
Heartbeat CPU 0 instructions: 82000002 cycles: 114203881 heartbeat IPC: 0.373606 cumulative IPC: 0.381124 (Simulation time: 0 hr 55 min 53 sec) 
Heartbeat CPU 0 instructions: 83000000 cycles: 116849340 heartbeat IPC: 0.378005 cumulative IPC: 0.381029 (Simulation time: 0 hr 56 min 37 sec) 
Heartbeat CPU 0 instructions: 84000000 cycles: 119504999 heartbeat IPC: 0.376554 cumulative IPC: 0.380896 (Simulation time: 0 hr 57 min 19 sec) 
Heartbeat CPU 0 instructions: 85000001 cycles: 122181299 heartbeat IPC: 0.373651 cumulative IPC: 0.380685 (Simulation time: 0 hr 58 min 6 sec) 
Heartbeat CPU 0 instructions: 86000000 cycles: 124676643 heartbeat IPC: 0.400746 cumulative IPC: 0.381215 (Simulation time: 0 hr 58 min 52 sec) 
Heartbeat CPU 0 instructions: 87000000 cycles: 126830025 heartbeat IPC: 0.464386 cumulative IPC: 0.383069 (Simulation time: 0 hr 59 min 30 sec) 
Heartbeat CPU 0 instructions: 88000000 cycles: 128827206 heartbeat IPC: 0.500706 cumulative IPC: 0.385452 (Simulation time: 1 hr 0 min 6 sec) 
Heartbeat CPU 0 instructions: 89000001 cycles: 130914669 heartbeat IPC: 0.479051 cumulative IPC: 0.387393 (Simulation time: 1 hr 0 min 45 sec) 
Heartbeat CPU 0 instructions: 90000000 cycles: 133629152 heartbeat IPC: 0.368394 cumulative IPC: 0.386894 (Simulation time: 1 hr 1 min 40 sec) 
Heartbeat CPU 0 instructions: 91000001 cycles: 136395183 heartbeat IPC: 0.361529 cumulative IPC: 0.386233 (Simulation time: 1 hr 2 min 31 sec) 
Heartbeat CPU 0 instructions: 92000000 cycles: 139077212 heartbeat IPC: 0.372852 cumulative IPC: 0.385904 (Simulation time: 1 hr 3 min 16 sec) 
Heartbeat CPU 0 instructions: 93000000 cycles: 141726978 heartbeat IPC: 0.377392 cumulative IPC: 0.385701 (Simulation time: 1 hr 4 min 0 sec) 
Heartbeat CPU 0 instructions: 94000002 cycles: 144374572 heartbeat IPC: 0.377702 cumulative IPC: 0.385516 (Simulation time: 1 hr 4 min 40 sec) 
Heartbeat CPU 0 instructions: 95000000 cycles: 146994150 heartbeat IPC: 0.38174 cumulative IPC: 0.385431 (Simulation time: 1 hr 5 min 20 sec) 
Heartbeat CPU 0 instructions: 96000000 cycles: 149658804 heartbeat IPC: 0.375283 cumulative IPC: 0.385205 (Simulation time: 1 hr 6 min 4 sec) 
Heartbeat CPU 0 instructions: 97000000 cycles: 152299154 heartbeat IPC: 0.378738 cumulative IPC: 0.385065 (Simulation time: 1 hr 6 min 46 sec) 
Heartbeat CPU 0 instructions: 98000000 cycles: 154921597 heartbeat IPC: 0.381324 cumulative IPC: 0.384986 (Simulation time: 1 hr 7 min 31 sec) 
Heartbeat CPU 0 instructions: 99000002 cycles: 157530622 heartbeat IPC: 0.383286 cumulative IPC: 0.384951 (Simulation time: 1 hr 8 min 14 sec) 
Heartbeat CPU 0 instructions: 100000000 cycles: 160157552 heartbeat IPC: 0.380672 cumulative IPC: 0.384865 (Simulation time: 1 hr 8 min 53 sec) 
Heartbeat CPU 0 instructions: 101000002 cycles: 162811746 heartbeat IPC: 0.376763 cumulative IPC: 0.384702 (Simulation time: 1 hr 9 min 32 sec) 
Heartbeat CPU 0 instructions: 102000000 cycles: 165443803 heartbeat IPC: 0.37993 cumulative IPC: 0.38461 (Simulation time: 1 hr 10 min 9 sec) 
Heartbeat CPU 0 instructions: 103000000 cycles: 168070200 heartbeat IPC: 0.38075 cumulative IPC: 0.384536 (Simulation time: 1 hr 10 min 46 sec) 
Heartbeat CPU 0 instructions: 104000000 cycles: 170732553 heartbeat IPC: 0.375608 cumulative IPC: 0.384367 (Simulation time: 1 hr 11 min 27 sec) 
Heartbeat CPU 0 instructions: 105000003 cycles: 172914358 heartbeat IPC: 0.458337 cumulative IPC: 0.385498 (Simulation time: 1 hr 11 min 59 sec) 
Heartbeat CPU 0 instructions: 106000000 cycles: 174891095 heartbeat IPC: 0.505883 cumulative IPC: 0.387143 (Simulation time: 1 hr 12 min 31 sec) 
Heartbeat CPU 0 instructions: 107000003 cycles: 176865604 heartbeat IPC: 0.506457 cumulative IPC: 0.38875 (Simulation time: 1 hr 13 min 10 sec) 
Heartbeat CPU 0 instructions: 108000000 cycles: 179678269 heartbeat IPC: 0.355534 cumulative IPC: 0.388125 (Simulation time: 1 hr 13 min 47 sec) 
Heartbeat CPU 0 instructions: 109000001 cycles: 182380347 heartbeat IPC: 0.370086 cumulative IPC: 0.387804 (Simulation time: 1 hr 14 min 24 sec) 
Heartbeat CPU 0 instructions: 110000000 cycles: 184918289 heartbeat IPC: 0.39402 cumulative IPC: 0.387906 (Simulation time: 1 hr 15 min 1 sec) 
Heartbeat CPU 0 instructions: 111000000 cycles: 187734578 heartbeat IPC: 0.355077 cumulative IPC: 0.387319 (Simulation time: 1 hr 15 min 35 sec) 
Heartbeat CPU 0 instructions: 112000000 cycles: 190748022 heartbeat IPC: 0.331846 cumulative IPC: 0.386278 (Simulation time: 1 hr 16 min 8 sec) 
Heartbeat CPU 0 instructions: 113000000 cycles: 193696731 heartbeat IPC: 0.339131 cumulative IPC: 0.385427 (Simulation time: 1 hr 16 min 41 sec) 
Heartbeat CPU 0 instructions: 114000000 cycles: 196341675 heartbeat IPC: 0.37808 cumulative IPC: 0.38531 (Simulation time: 1 hr 17 min 13 sec) 
Heartbeat CPU 0 instructions: 115000000 cycles: 199071401 heartbeat IPC: 0.366337 cumulative IPC: 0.385003 (Simulation time: 1 hr 17 min 42 sec) 
Heartbeat CPU 0 instructions: 116000000 cycles: 201777646 heartbeat IPC: 0.369516 cumulative IPC: 0.384759 (Simulation time: 1 hr 18 min 11 sec) 
Heartbeat CPU 0 instructions: 117000000 cycles: 204636932 heartbeat IPC: 0.349738 cumulative IPC: 0.384185 (Simulation time: 1 hr 18 min 37 sec) 
Heartbeat CPU 0 instructions: 118000003 cycles: 207193709 heartbeat IPC: 0.391119 cumulative IPC: 0.384285 (Simulation time: 1 hr 19 min 6 sec) 
Heartbeat CPU 0 instructions: 119000002 cycles: 208699175 heartbeat IPC: 0.664245 cumulative IPC: 0.386647 (Simulation time: 1 hr 19 min 27 sec) 
Heartbeat CPU 0 instructions: 120000000 cycles: 210736122 heartbeat IPC: 0.49093 cumulative IPC: 0.387824 (Simulation time: 1 hr 19 min 49 sec) 
Heartbeat CPU 0 instructions: 121000003 cycles: 212665264 heartbeat IPC: 0.518367 cumulative IPC: 0.389204 (Simulation time: 1 hr 20 min 10 sec) 
Heartbeat CPU 0 instructions: 122000000 cycles: 214593031 heartbeat IPC: 0.518733 cumulative IPC: 0.390559 (Simulation time: 1 hr 20 min 32 sec) 
Heartbeat CPU 0 instructions: 123000000 cycles: 216592344 heartbeat IPC: 0.500172 cumulative IPC: 0.391735 (Simulation time: 1 hr 20 min 56 sec) 
Heartbeat CPU 0 instructions: 124000000 cycles: 218984320 heartbeat IPC: 0.418064 cumulative IPC: 0.392068 (Simulation time: 1 hr 21 min 21 sec) 
Heartbeat CPU 0 instructions: 125000002 cycles: 220760577 heartbeat IPC: 0.562983 cumulative IPC: 0.393662 (Simulation time: 1 hr 21 min 39 sec) 
Heartbeat CPU 0 instructions: 126000001 cycles: 222688274 heartbeat IPC: 0.518753 cumulative IPC: 0.394915 (Simulation time: 1 hr 21 min 58 sec) 
Heartbeat CPU 0 instructions: 127000001 cycles: 224614657 heartbeat IPC: 0.519108 cumulative IPC: 0.396146 (Simulation time: 1 hr 22 min 16 sec) 
Heartbeat CPU 0 instructions: 128000000 cycles: 226791023 heartbeat IPC: 0.459481 cumulative IPC: 0.396847 (Simulation time: 1 hr 22 min 35 sec) 
Heartbeat CPU 0 instructions: 129000001 cycles: 229552929 heartbeat IPC: 0.362069 cumulative IPC: 0.396365 (Simulation time: 1 hr 22 min 55 sec) 
Heartbeat CPU 0 instructions: 130000002 cycles: 232072124 heartbeat IPC: 0.396953 cumulative IPC: 0.396372 (Simulation time: 1 hr 23 min 15 sec) 
Heartbeat CPU 0 instructions: 131000000 cycles: 234902032 heartbeat IPC: 0.353368 cumulative IPC: 0.395778 (Simulation time: 1 hr 23 min 35 sec) 
Heartbeat CPU 0 instructions: 132000000 cycles: 237649944 heartbeat IPC: 0.363913 cumulative IPC: 0.395356 (Simulation time: 1 hr 23 min 55 sec) 
Heartbeat CPU 0 instructions: 133000000 cycles: 240584943 heartbeat IPC: 0.340716 cumulative IPC: 0.394593 (Simulation time: 1 hr 24 min 14 sec) 
Heartbeat CPU 0 instructions: 134000000 cycles: 243291234 heartbeat IPC: 0.369509 cumulative IPC: 0.394275 (Simulation time: 1 hr 24 min 32 sec) 
Heartbeat CPU 0 instructions: 135000000 cycles: 246091975 heartbeat IPC: 0.357048 cumulative IPC: 0.393792 (Simulation time: 1 hr 24 min 50 sec) 
Heartbeat CPU 0 instructions: 136000000 cycles: 249015244 heartbeat IPC: 0.342083 cumulative IPC: 0.393101 (Simulation time: 1 hr 25 min 7 sec) 
Heartbeat CPU 0 instructions: 137000003 cycles: 251813940 heartbeat IPC: 0.35731 cumulative IPC: 0.392649 (Simulation time: 1 hr 25 min 26 sec) 
Heartbeat CPU 0 instructions: 138000000 cycles: 253954412 heartbeat IPC: 0.467185 cumulative IPC: 0.393362 (Simulation time: 1 hr 25 min 45 sec) 
Heartbeat CPU 0 instructions: 139000000 cycles: 256716187 heartbeat IPC: 0.362086 cumulative IPC: 0.39298 (Simulation time: 1 hr 26 min 5 sec) 
Heartbeat CPU 0 instructions: 140000000 cycles: 259559914 heartbeat IPC: 0.351651 cumulative IPC: 0.392468 (Simulation time: 1 hr 26 min 20 sec) 
Heartbeat CPU 0 instructions: 141000001 cycles: 262250530 heartbeat IPC: 0.371662 cumulative IPC: 0.392227 (Simulation time: 1 hr 26 min 34 sec) 
Heartbeat CPU 0 instructions: 142000002 cycles: 264862451 heartbeat IPC: 0.38286 cumulative IPC: 0.392122 (Simulation time: 1 hr 26 min 49 sec) 
Heartbeat CPU 0 instructions: 143000001 cycles: 267509358 heartbeat IPC: 0.377799 cumulative IPC: 0.391962 (Simulation time: 1 hr 27 min 3 sec) 
Heartbeat CPU 0 instructions: 144000000 cycles: 270093821 heartbeat IPC: 0.386927 cumulative IPC: 0.391908 (Simulation time: 1 hr 27 min 18 sec) 
Heartbeat CPU 0 instructions: 145000000 cycles: 272703914 heartbeat IPC: 0.383128 cumulative IPC: 0.391814 (Simulation time: 1 hr 27 min 32 sec) 
Heartbeat CPU 0 instructions: 146000000 cycles: 275320752 heartbeat IPC: 0.382141 cumulative IPC: 0.39171 (Simulation time: 1 hr 27 min 46 sec) 
Heartbeat CPU 0 instructions: 147000002 cycles: 277721716 heartbeat IPC: 0.4165 cumulative IPC: 0.391951 (Simulation time: 1 hr 28 min 0 sec) 
Heartbeat CPU 0 instructions: 148000000 cycles: 279791564 heartbeat IPC: 0.483126 cumulative IPC: 0.392707 (Simulation time: 1 hr 28 min 14 sec) 
Heartbeat CPU 0 instructions: 149000001 cycles: 282232096 heartbeat IPC: 0.409747 cumulative IPC: 0.392872 (Simulation time: 1 hr 28 min 28 sec) 
Heartbeat CPU 0 instructions: 150000002 cycles: 284972587 heartbeat IPC: 0.364898 cumulative IPC: 0.392571 (Simulation time: 1 hr 28 min 41 sec) 
Finished CPU 0 instructions: 100000000 cycles: 254730838 cummulative IPC: 0.392571 (Simulation time: 1 hr 28 min 41 sec) 

ChampSim completed all CPUs

Region of Interest Statistics

CPU 0 cummulative IPC: 0.392571 instructions: 100000000 cycles: 254730838
LLC TOTAL     ACCESS:     651892  HIT:     607840  MISS:      44052
LLC LOAD      ACCESS:     308408  HIT:     290124  MISS:      18284
LLC RFO       ACCESS:      29186  HIT:      23826  MISS:       5360
LLC PREFETCH  ACCESS:     213176  HIT:     193560  MISS:      19616
LLC WRITEBACK ACCESS:     101122  HIT:     100330  MISS:        792
OPTgen accesses: 7688
OPTgen hits: 9088
OPTgen hit rate: 118.21


