
*** ChampSim Multicore Out-of-Order Simulator ***

Warmup Instructions: 50000000
Simulation Instructions: 100000000
Configuration: 2
Number of CPUs: 1
LLC sets: 2048
LLC ways: 16
Off-chip DRAM Channels: 1 Width: 64-bit Data Rate: 1600 MT/s

CPU 0 runs /datasets/cs240c-wi22-a00-public/data/Assignment2-gz/astar_23B.trace.gz
CPU 0 L1D next line prefetcher
CPU 0 L2C IP-based stride prefetcher
Initialize Hawkeye state
Heartbeat CPU 0 instructions: 1000000 cycles: 359869 heartbeat IPC: 2.77879 cumulative IPC: 2.77879 (Simulation time: 0 hr 0 min 38 sec) 
Heartbeat CPU 0 instructions: 2000001 cycles: 720498 heartbeat IPC: 2.77294 cumulative IPC: 2.77586 (Simulation time: 0 hr 1 min 13 sec) 
Heartbeat CPU 0 instructions: 3000000 cycles: 1079245 heartbeat IPC: 2.78748 cumulative IPC: 2.77972 (Simulation time: 0 hr 1 min 45 sec) 
Heartbeat CPU 0 instructions: 4000000 cycles: 1440499 heartbeat IPC: 2.76814 cumulative IPC: 2.77682 (Simulation time: 0 hr 2 min 17 sec) 
Heartbeat CPU 0 instructions: 5000000 cycles: 1802439 heartbeat IPC: 2.76289 cumulative IPC: 2.77402 (Simulation time: 0 hr 2 min 53 sec) 
Heartbeat CPU 0 instructions: 6000002 cycles: 2163910 heartbeat IPC: 2.76648 cumulative IPC: 2.77276 (Simulation time: 0 hr 3 min 28 sec) 
Heartbeat CPU 0 instructions: 7000002 cycles: 2525202 heartbeat IPC: 2.76784 cumulative IPC: 2.77206 (Simulation time: 0 hr 4 min 1 sec) 
Heartbeat CPU 0 instructions: 8000000 cycles: 2887899 heartbeat IPC: 2.75712 cumulative IPC: 2.77018 (Simulation time: 0 hr 4 min 38 sec) 
Heartbeat CPU 0 instructions: 9000000 cycles: 3250621 heartbeat IPC: 2.75693 cumulative IPC: 2.7687 (Simulation time: 0 hr 5 min 16 sec) 
Heartbeat CPU 0 instructions: 10000003 cycles: 3615245 heartbeat IPC: 2.74256 cumulative IPC: 2.76607 (Simulation time: 0 hr 5 min 47 sec) 
Heartbeat CPU 0 instructions: 11000000 cycles: 3979319 heartbeat IPC: 2.74669 cumulative IPC: 2.76429 (Simulation time: 0 hr 6 min 19 sec) 
Heartbeat CPU 0 instructions: 12000000 cycles: 4343809 heartbeat IPC: 2.74356 cumulative IPC: 2.76255 (Simulation time: 0 hr 6 min 51 sec) 
Heartbeat CPU 0 instructions: 13000001 cycles: 4706262 heartbeat IPC: 2.75898 cumulative IPC: 2.76228 (Simulation time: 0 hr 7 min 22 sec) 
Heartbeat CPU 0 instructions: 14000003 cycles: 5069096 heartbeat IPC: 2.75609 cumulative IPC: 2.76183 (Simulation time: 0 hr 7 min 55 sec) 
Heartbeat CPU 0 instructions: 15000003 cycles: 5431707 heartbeat IPC: 2.75778 cumulative IPC: 2.76156 (Simulation time: 0 hr 8 min 29 sec) 
Heartbeat CPU 0 instructions: 16000000 cycles: 5794049 heartbeat IPC: 2.75982 cumulative IPC: 2.76145 (Simulation time: 0 hr 9 min 1 sec) 
Heartbeat CPU 0 instructions: 17000000 cycles: 6155188 heartbeat IPC: 2.76902 cumulative IPC: 2.7619 (Simulation time: 0 hr 9 min 33 sec) 
Heartbeat CPU 0 instructions: 18000001 cycles: 6515371 heartbeat IPC: 2.77637 cumulative IPC: 2.7627 (Simulation time: 0 hr 10 min 6 sec) 
Heartbeat CPU 0 instructions: 19000002 cycles: 6876050 heartbeat IPC: 2.77255 cumulative IPC: 2.76321 (Simulation time: 0 hr 10 min 40 sec) 
Heartbeat CPU 0 instructions: 20000000 cycles: 7236049 heartbeat IPC: 2.77778 cumulative IPC: 2.76394 (Simulation time: 0 hr 11 min 13 sec) 
Heartbeat CPU 0 instructions: 21000001 cycles: 7596965 heartbeat IPC: 2.77073 cumulative IPC: 2.76426 (Simulation time: 0 hr 11 min 47 sec) 
Heartbeat CPU 0 instructions: 22000000 cycles: 7958985 heartbeat IPC: 2.76228 cumulative IPC: 2.76417 (Simulation time: 0 hr 12 min 19 sec) 
Heartbeat CPU 0 instructions: 23000000 cycles: 8320214 heartbeat IPC: 2.76833 cumulative IPC: 2.76435 (Simulation time: 0 hr 12 min 53 sec) 
Heartbeat CPU 0 instructions: 24000000 cycles: 8681015 heartbeat IPC: 2.77161 cumulative IPC: 2.76465 (Simulation time: 0 hr 13 min 29 sec) 
Heartbeat CPU 0 instructions: 25000001 cycles: 9041604 heartbeat IPC: 2.77324 cumulative IPC: 2.765 (Simulation time: 0 hr 13 min 59 sec) 
Heartbeat CPU 0 instructions: 26000002 cycles: 9402713 heartbeat IPC: 2.76925 cumulative IPC: 2.76516 (Simulation time: 0 hr 14 min 34 sec) 
Heartbeat CPU 0 instructions: 27000000 cycles: 9763215 heartbeat IPC: 2.7739 cumulative IPC: 2.76548 (Simulation time: 0 hr 15 min 8 sec) 
Heartbeat CPU 0 instructions: 28000000 cycles: 10124496 heartbeat IPC: 2.76793 cumulative IPC: 2.76557 (Simulation time: 0 hr 15 min 44 sec) 
Heartbeat CPU 0 instructions: 29000000 cycles: 10485988 heartbeat IPC: 2.76631 cumulative IPC: 2.7656 (Simulation time: 0 hr 16 min 21 sec) 
Heartbeat CPU 0 instructions: 30000000 cycles: 10848150 heartbeat IPC: 2.7612 cumulative IPC: 2.76545 (Simulation time: 0 hr 16 min 52 sec) 
Heartbeat CPU 0 instructions: 31000001 cycles: 11209319 heartbeat IPC: 2.76879 cumulative IPC: 2.76556 (Simulation time: 0 hr 17 min 23 sec) 
Heartbeat CPU 0 instructions: 32000000 cycles: 11570039 heartbeat IPC: 2.77223 cumulative IPC: 2.76576 (Simulation time: 0 hr 17 min 54 sec) 
Heartbeat CPU 0 instructions: 33000002 cycles: 11930963 heartbeat IPC: 2.77067 cumulative IPC: 2.76591 (Simulation time: 0 hr 18 min 26 sec) 
Heartbeat CPU 0 instructions: 34000001 cycles: 12292587 heartbeat IPC: 2.7653 cumulative IPC: 2.76589 (Simulation time: 0 hr 18 min 58 sec) 
Heartbeat CPU 0 instructions: 35000000 cycles: 12653294 heartbeat IPC: 2.77233 cumulative IPC: 2.76608 (Simulation time: 0 hr 19 min 34 sec) 
Heartbeat CPU 0 instructions: 36000000 cycles: 13013133 heartbeat IPC: 2.77902 cumulative IPC: 2.76644 (Simulation time: 0 hr 20 min 9 sec) 
Heartbeat CPU 0 instructions: 37000000 cycles: 13372958 heartbeat IPC: 2.77913 cumulative IPC: 2.76678 (Simulation time: 0 hr 20 min 45 sec) 
Heartbeat CPU 0 instructions: 38000003 cycles: 13733011 heartbeat IPC: 2.77738 cumulative IPC: 2.76706 (Simulation time: 0 hr 21 min 19 sec) 
Heartbeat CPU 0 instructions: 39000003 cycles: 14093626 heartbeat IPC: 2.77304 cumulative IPC: 2.76721 (Simulation time: 0 hr 21 min 53 sec) 
Heartbeat CPU 0 instructions: 40000000 cycles: 14453877 heartbeat IPC: 2.77583 cumulative IPC: 2.76742 (Simulation time: 0 hr 22 min 27 sec) 
Heartbeat CPU 0 instructions: 41000002 cycles: 14813998 heartbeat IPC: 2.77685 cumulative IPC: 2.76765 (Simulation time: 0 hr 23 min 1 sec) 
Heartbeat CPU 0 instructions: 42000003 cycles: 15175810 heartbeat IPC: 2.76387 cumulative IPC: 2.76756 (Simulation time: 0 hr 23 min 36 sec) 
Heartbeat CPU 0 instructions: 43000003 cycles: 15537000 heartbeat IPC: 2.76863 cumulative IPC: 2.76759 (Simulation time: 0 hr 24 min 12 sec) 
Heartbeat CPU 0 instructions: 44000000 cycles: 15899924 heartbeat IPC: 2.75539 cumulative IPC: 2.76731 (Simulation time: 0 hr 24 min 45 sec) 
Heartbeat CPU 0 instructions: 45000002 cycles: 16264041 heartbeat IPC: 2.74638 cumulative IPC: 2.76684 (Simulation time: 0 hr 25 min 20 sec) 
Heartbeat CPU 0 instructions: 46000001 cycles: 16628067 heartbeat IPC: 2.74705 cumulative IPC: 2.76641 (Simulation time: 0 hr 25 min 54 sec) 
Heartbeat CPU 0 instructions: 47000002 cycles: 16991880 heartbeat IPC: 2.74867 cumulative IPC: 2.76603 (Simulation time: 0 hr 26 min 29 sec) 
Heartbeat CPU 0 instructions: 48000000 cycles: 17354259 heartbeat IPC: 2.75954 cumulative IPC: 2.76589 (Simulation time: 0 hr 27 min 3 sec) 
Heartbeat CPU 0 instructions: 49000000 cycles: 17716466 heartbeat IPC: 2.76085 cumulative IPC: 2.76579 (Simulation time: 0 hr 27 min 34 sec) 
Heartbeat CPU 0 instructions: 50000000 cycles: 18078275 heartbeat IPC: 2.76389 cumulative IPC: 2.76575 (Simulation time: 0 hr 28 min 6 sec) 

Warmup complete CPU 0 instructions: 50000004 cycles: 18078276 (Simulation time: 0 hr 28 min 6 sec) 

Heartbeat CPU 0 instructions: 51000001 cycles: 21806694 heartbeat IPC: 0.26821 cumulative IPC: 0.268209 (Simulation time: 0 hr 28 min 39 sec) 
Heartbeat CPU 0 instructions: 52000000 cycles: 25780257 heartbeat IPC: 0.251663 cumulative IPC: 0.259673 (Simulation time: 0 hr 29 min 17 sec) 
Heartbeat CPU 0 instructions: 53000000 cycles: 28588838 heartbeat IPC: 0.356052 cumulative IPC: 0.285427 (Simulation time: 0 hr 29 min 50 sec) 
Heartbeat CPU 0 instructions: 54000002 cycles: 31446832 heartbeat IPC: 0.349896 cumulative IPC: 0.299209 (Simulation time: 0 hr 30 min 27 sec) 
Heartbeat CPU 0 instructions: 55000002 cycles: 34260505 heartbeat IPC: 0.355407 cumulative IPC: 0.308981 (Simulation time: 0 hr 31 min 2 sec) 
Heartbeat CPU 0 instructions: 56000000 cycles: 37021780 heartbeat IPC: 0.362151 cumulative IPC: 0.316731 (Simulation time: 0 hr 31 min 36 sec) 
Heartbeat CPU 0 instructions: 57000000 cycles: 39612492 heartbeat IPC: 0.385994 cumulative IPC: 0.325064 (Simulation time: 0 hr 32 min 4 sec) 
Heartbeat CPU 0 instructions: 58000001 cycles: 42180583 heartbeat IPC: 0.389395 cumulative IPC: 0.331918 (Simulation time: 0 hr 32 min 36 sec) 
Heartbeat CPU 0 instructions: 59000000 cycles: 44950348 heartbeat IPC: 0.361041 cumulative IPC: 0.33492 (Simulation time: 0 hr 33 min 5 sec) 
Heartbeat CPU 0 instructions: 60000000 cycles: 47524578 heartbeat IPC: 0.388466 cumulative IPC: 0.339601 (Simulation time: 0 hr 33 min 38 sec) 
Heartbeat CPU 0 instructions: 61000000 cycles: 50017358 heartbeat IPC: 0.401159 cumulative IPC: 0.344406 (Simulation time: 0 hr 34 min 7 sec) 
Heartbeat CPU 0 instructions: 62000003 cycles: 52487000 heartbeat IPC: 0.404918 cumulative IPC: 0.348749 (Simulation time: 0 hr 34 min 38 sec) 
Heartbeat CPU 0 instructions: 63000000 cycles: 55105426 heartbeat IPC: 0.381908 cumulative IPC: 0.351094 (Simulation time: 0 hr 35 min 7 sec) 
Heartbeat CPU 0 instructions: 64000000 cycles: 57630334 heartbeat IPC: 0.396054 cumulative IPC: 0.353964 (Simulation time: 0 hr 35 min 40 sec) 
Heartbeat CPU 0 instructions: 65000000 cycles: 60074797 heartbeat IPC: 0.409088 cumulative IPC: 0.357172 (Simulation time: 0 hr 36 min 9 sec) 
Heartbeat CPU 0 instructions: 66000000 cycles: 62539470 heartbeat IPC: 0.405733 cumulative IPC: 0.359864 (Simulation time: 0 hr 36 min 39 sec) 
Heartbeat CPU 0 instructions: 67000000 cycles: 65013137 heartbeat IPC: 0.404258 cumulative IPC: 0.362204 (Simulation time: 0 hr 37 min 8 sec) 
Heartbeat CPU 0 instructions: 68000000 cycles: 67404474 heartbeat IPC: 0.418176 cumulative IPC: 0.364918 (Simulation time: 0 hr 37 min 43 sec) 
Heartbeat CPU 0 instructions: 69000000 cycles: 69987259 heartbeat IPC: 0.387179 cumulative IPC: 0.366025 (Simulation time: 0 hr 38 min 16 sec) 
Heartbeat CPU 0 instructions: 70000000 cycles: 72524376 heartbeat IPC: 0.394148 cumulative IPC: 0.367336 (Simulation time: 0 hr 38 min 47 sec) 
Heartbeat CPU 0 instructions: 71000001 cycles: 75121480 heartbeat IPC: 0.385045 cumulative IPC: 0.368142 (Simulation time: 0 hr 39 min 19 sec) 
Heartbeat CPU 0 instructions: 72000000 cycles: 77745784 heartbeat IPC: 0.381053 cumulative IPC: 0.36871 (Simulation time: 0 hr 39 min 50 sec) 
Heartbeat CPU 0 instructions: 73000001 cycles: 80247421 heartbeat IPC: 0.399739 cumulative IPC: 0.369958 (Simulation time: 0 hr 40 min 20 sec) 
Heartbeat CPU 0 instructions: 74000002 cycles: 82494744 heartbeat IPC: 0.444974 cumulative IPC: 0.372575 (Simulation time: 0 hr 40 min 53 sec) 
Heartbeat CPU 0 instructions: 75000002 cycles: 84982951 heartbeat IPC: 0.401896 cumulative IPC: 0.373666 (Simulation time: 0 hr 41 min 23 sec) 
Heartbeat CPU 0 instructions: 76000000 cycles: 87477212 heartbeat IPC: 0.40092 cumulative IPC: 0.374645 (Simulation time: 0 hr 41 min 52 sec) 
Heartbeat CPU 0 instructions: 77000000 cycles: 90536768 heartbeat IPC: 0.326845 cumulative IPC: 0.372627 (Simulation time: 0 hr 42 min 22 sec) 
Heartbeat CPU 0 instructions: 78000003 cycles: 93552977 heartbeat IPC: 0.331543 cumulative IPC: 0.370985 (Simulation time: 0 hr 42 min 55 sec) 
Heartbeat CPU 0 instructions: 79000001 cycles: 96001506 heartbeat IPC: 0.408408 cumulative IPC: 0.372161 (Simulation time: 0 hr 43 min 27 sec) 
Heartbeat CPU 0 instructions: 80000000 cycles: 98570945 heartbeat IPC: 0.38919 cumulative IPC: 0.372705 (Simulation time: 0 hr 43 min 59 sec) 
Heartbeat CPU 0 instructions: 81000001 cycles: 101169213 heartbeat IPC: 0.384872 cumulative IPC: 0.373085 (Simulation time: 0 hr 44 min 30 sec) 
Heartbeat CPU 0 instructions: 82000002 cycles: 103712093 heartbeat IPC: 0.393255 cumulative IPC: 0.373684 (Simulation time: 0 hr 45 min 4 sec) 
Heartbeat CPU 0 instructions: 83000002 cycles: 106148194 heartbeat IPC: 0.410492 cumulative IPC: 0.374702 (Simulation time: 0 hr 45 min 38 sec) 
Heartbeat CPU 0 instructions: 84000000 cycles: 108624444 heartbeat IPC: 0.403836 cumulative IPC: 0.375499 (Simulation time: 0 hr 46 min 9 sec) 
Heartbeat CPU 0 instructions: 85000000 cycles: 111123961 heartbeat IPC: 0.400077 cumulative IPC: 0.376159 (Simulation time: 0 hr 46 min 40 sec) 
Heartbeat CPU 0 instructions: 86000001 cycles: 113529119 heartbeat IPC: 0.415774 cumulative IPC: 0.377157 (Simulation time: 0 hr 47 min 11 sec) 
Heartbeat CPU 0 instructions: 87000000 cycles: 115898678 heartbeat IPC: 0.422019 cumulative IPC: 0.378244 (Simulation time: 0 hr 47 min 45 sec) 
Heartbeat CPU 0 instructions: 88000000 cycles: 118416553 heartbeat IPC: 0.39716 cumulative IPC: 0.378719 (Simulation time: 0 hr 48 min 20 sec) 
Heartbeat CPU 0 instructions: 89000000 cycles: 120959956 heartbeat IPC: 0.393174 cumulative IPC: 0.379076 (Simulation time: 0 hr 48 min 54 sec) 
Heartbeat CPU 0 instructions: 90000001 cycles: 123442692 heartbeat IPC: 0.402782 cumulative IPC: 0.379635 (Simulation time: 0 hr 49 min 26 sec) 
Heartbeat CPU 0 instructions: 91000000 cycles: 125884483 heartbeat IPC: 0.409535 cumulative IPC: 0.380312 (Simulation time: 0 hr 49 min 58 sec) 
Heartbeat CPU 0 instructions: 92000000 cycles: 128821614 heartbeat IPC: 0.340468 cumulative IPC: 0.379255 (Simulation time: 0 hr 50 min 29 sec) 
Heartbeat CPU 0 instructions: 93000000 cycles: 131352656 heartbeat IPC: 0.395094 cumulative IPC: 0.379609 (Simulation time: 0 hr 50 min 59 sec) 
Heartbeat CPU 0 instructions: 94000003 cycles: 133889894 heartbeat IPC: 0.394131 cumulative IPC: 0.379927 (Simulation time: 0 hr 51 min 32 sec) 
Heartbeat CPU 0 instructions: 95000000 cycles: 136317952 heartbeat IPC: 0.411851 cumulative IPC: 0.380583 (Simulation time: 0 hr 52 min 4 sec) 
Heartbeat CPU 0 instructions: 96000000 cycles: 138831853 heartbeat IPC: 0.397788 cumulative IPC: 0.380941 (Simulation time: 0 hr 52 min 34 sec) 
Heartbeat CPU 0 instructions: 97000000 cycles: 141260306 heartbeat IPC: 0.411785 cumulative IPC: 0.381549 (Simulation time: 0 hr 53 min 2 sec) 
Heartbeat CPU 0 instructions: 98000000 cycles: 143780657 heartbeat IPC: 0.39677 cumulative IPC: 0.381854 (Simulation time: 0 hr 53 min 34 sec) 
Heartbeat CPU 0 instructions: 99000002 cycles: 146736898 heartbeat IPC: 0.338268 cumulative IPC: 0.380853 (Simulation time: 0 hr 54 min 10 sec) 
Heartbeat CPU 0 instructions: 100000000 cycles: 149488037 heartbeat IPC: 0.363485 cumulative IPC: 0.380489 (Simulation time: 0 hr 54 min 44 sec) 
Heartbeat CPU 0 instructions: 101000000 cycles: 152419694 heartbeat IPC: 0.341104 cumulative IPC: 0.37963 (Simulation time: 0 hr 55 min 13 sec) 
Heartbeat CPU 0 instructions: 102000001 cycles: 155885158 heartbeat IPC: 0.288562 cumulative IPC: 0.37734 (Simulation time: 0 hr 55 min 45 sec) 
Heartbeat CPU 0 instructions: 103000002 cycles: 159357772 heartbeat IPC: 0.287968 cumulative IPC: 0.375143 (Simulation time: 0 hr 56 min 18 sec) 
Heartbeat CPU 0 instructions: 104000000 cycles: 162460904 heartbeat IPC: 0.322254 cumulative IPC: 0.374006 (Simulation time: 0 hr 56 min 49 sec) 
Heartbeat CPU 0 instructions: 105000001 cycles: 165265311 heartbeat IPC: 0.356582 cumulative IPC: 0.373674 (Simulation time: 0 hr 57 min 20 sec) 
Heartbeat CPU 0 instructions: 106000001 cycles: 167877754 heartbeat IPC: 0.382783 cumulative IPC: 0.373833 (Simulation time: 0 hr 57 min 53 sec) 
Heartbeat CPU 0 instructions: 107000002 cycles: 170648221 heartbeat IPC: 0.36095 cumulative IPC: 0.373599 (Simulation time: 0 hr 58 min 23 sec) 
Heartbeat CPU 0 instructions: 108000000 cycles: 173570036 heartbeat IPC: 0.342252 cumulative IPC: 0.37301 (Simulation time: 0 hr 58 min 58 sec) 
Heartbeat CPU 0 instructions: 109000003 cycles: 176623413 heartbeat IPC: 0.327507 cumulative IPC: 0.372134 (Simulation time: 0 hr 59 min 30 sec) 
Heartbeat CPU 0 instructions: 110000003 cycles: 179614934 heartbeat IPC: 0.334278 cumulative IPC: 0.371433 (Simulation time: 0 hr 59 min 59 sec) 
Heartbeat CPU 0 instructions: 111000001 cycles: 182755201 heartbeat IPC: 0.318444 cumulative IPC: 0.370422 (Simulation time: 1 hr 0 min 29 sec) 
Heartbeat CPU 0 instructions: 112000000 cycles: 185937746 heartbeat IPC: 0.314214 cumulative IPC: 0.369357 (Simulation time: 1 hr 1 min 0 sec) 
Heartbeat CPU 0 instructions: 113000001 cycles: 188819033 heartbeat IPC: 0.347067 cumulative IPC: 0.36898 (Simulation time: 1 hr 1 min 36 sec) 
Heartbeat CPU 0 instructions: 114000000 cycles: 191555008 heartbeat IPC: 0.3655 cumulative IPC: 0.368926 (Simulation time: 1 hr 2 min 10 sec) 
Heartbeat CPU 0 instructions: 115000000 cycles: 194294108 heartbeat IPC: 0.365083 cumulative IPC: 0.368866 (Simulation time: 1 hr 2 min 41 sec) 
Heartbeat CPU 0 instructions: 116000000 cycles: 196996311 heartbeat IPC: 0.370068 cumulative IPC: 0.368884 (Simulation time: 1 hr 3 min 15 sec) 
Heartbeat CPU 0 instructions: 117000001 cycles: 199345222 heartbeat IPC: 0.42573 cumulative IPC: 0.369621 (Simulation time: 1 hr 3 min 44 sec) 
Heartbeat CPU 0 instructions: 118000002 cycles: 201630832 heartbeat IPC: 0.43752 cumulative IPC: 0.370466 (Simulation time: 1 hr 4 min 16 sec) 
Heartbeat CPU 0 instructions: 119000002 cycles: 204151029 heartbeat IPC: 0.396794 cumulative IPC: 0.370823 (Simulation time: 1 hr 4 min 47 sec) 
Heartbeat CPU 0 instructions: 120000000 cycles: 206904485 heartbeat IPC: 0.363179 cumulative IPC: 0.370711 (Simulation time: 1 hr 5 min 21 sec) 
Heartbeat CPU 0 instructions: 121000002 cycles: 209611260 heartbeat IPC: 0.369444 cumulative IPC: 0.370693 (Simulation time: 1 hr 5 min 52 sec) 
Heartbeat CPU 0 instructions: 122000001 cycles: 212549079 heartbeat IPC: 0.340388 cumulative IPC: 0.370236 (Simulation time: 1 hr 6 min 25 sec) 
Heartbeat CPU 0 instructions: 123000000 cycles: 215815260 heartbeat IPC: 0.306168 cumulative IPC: 0.369177 (Simulation time: 1 hr 6 min 56 sec) 
Heartbeat CPU 0 instructions: 124000000 cycles: 219357466 heartbeat IPC: 0.28231 cumulative IPC: 0.367649 (Simulation time: 1 hr 7 min 27 sec) 
Heartbeat CPU 0 instructions: 125000002 cycles: 222905098 heartbeat IPC: 0.281879 cumulative IPC: 0.366163 (Simulation time: 1 hr 7 min 55 sec) 
Heartbeat CPU 0 instructions: 126000000 cycles: 226827122 heartbeat IPC: 0.25497 cumulative IPC: 0.364074 (Simulation time: 1 hr 8 min 23 sec) 
Heartbeat CPU 0 instructions: 127000002 cycles: 231017019 heartbeat IPC: 0.23867 cumulative IPC: 0.361606 (Simulation time: 1 hr 8 min 52 sec) 
Heartbeat CPU 0 instructions: 128000000 cycles: 235149101 heartbeat IPC: 0.242008 cumulative IPC: 0.35933 (Simulation time: 1 hr 9 min 21 sec) 
Heartbeat CPU 0 instructions: 129000003 cycles: 239343552 heartbeat IPC: 0.238411 cumulative IPC: 0.357037 (Simulation time: 1 hr 9 min 48 sec) 
Heartbeat CPU 0 instructions: 130000003 cycles: 243466144 heartbeat IPC: 0.242566 cumulative IPC: 0.354944 (Simulation time: 1 hr 10 min 16 sec) 
Heartbeat CPU 0 instructions: 131000000 cycles: 247373792 heartbeat IPC: 0.255908 cumulative IPC: 0.353256 (Simulation time: 1 hr 10 min 43 sec) 
Heartbeat CPU 0 instructions: 132000000 cycles: 251471767 heartbeat IPC: 0.244023 cumulative IPC: 0.351338 (Simulation time: 1 hr 11 min 8 sec) 
Heartbeat CPU 0 instructions: 133000002 cycles: 255455578 heartbeat IPC: 0.251016 cumulative IPC: 0.349654 (Simulation time: 1 hr 11 min 33 sec) 
Heartbeat CPU 0 instructions: 134000000 cycles: 259451334 heartbeat IPC: 0.250265 cumulative IPC: 0.348009 (Simulation time: 1 hr 11 min 59 sec) 
Heartbeat CPU 0 instructions: 135000001 cycles: 263653658 heartbeat IPC: 0.237964 cumulative IPC: 0.346126 (Simulation time: 1 hr 12 min 24 sec) 
Heartbeat CPU 0 instructions: 136000000 cycles: 268129634 heartbeat IPC: 0.223415 cumulative IPC: 0.343929 (Simulation time: 1 hr 12 min 51 sec) 
Heartbeat CPU 0 instructions: 137000000 cycles: 272760062 heartbeat IPC: 0.215963 cumulative IPC: 0.341603 (Simulation time: 1 hr 13 min 16 sec) 
Heartbeat CPU 0 instructions: 138000000 cycles: 276608380 heartbeat IPC: 0.259854 cumulative IPC: 0.340386 (Simulation time: 1 hr 13 min 41 sec) 
Heartbeat CPU 0 instructions: 139000001 cycles: 278893147 heartbeat IPC: 0.437682 cumulative IPC: 0.341238 (Simulation time: 1 hr 14 min 7 sec) 
Heartbeat CPU 0 instructions: 140000000 cycles: 281468172 heartbeat IPC: 0.388345 cumulative IPC: 0.341699 (Simulation time: 1 hr 14 min 32 sec) 
Heartbeat CPU 0 instructions: 141000000 cycles: 283616571 heartbeat IPC: 0.465463 cumulative IPC: 0.3427 (Simulation time: 1 hr 14 min 55 sec) 
Heartbeat CPU 0 instructions: 142000000 cycles: 285978444 heartbeat IPC: 0.423393 cumulative IPC: 0.343412 (Simulation time: 1 hr 15 min 17 sec) 
Heartbeat CPU 0 instructions: 143000000 cycles: 288543605 heartbeat IPC: 0.389839 cumulative IPC: 0.343852 (Simulation time: 1 hr 15 min 39 sec) 
Heartbeat CPU 0 instructions: 144000000 cycles: 291074110 heartbeat IPC: 0.395178 cumulative IPC: 0.344328 (Simulation time: 1 hr 16 min 1 sec) 
Heartbeat CPU 0 instructions: 145000000 cycles: 293486895 heartbeat IPC: 0.414459 cumulative IPC: 0.344942 (Simulation time: 1 hr 16 min 23 sec) 
Heartbeat CPU 0 instructions: 146000001 cycles: 296273948 heartbeat IPC: 0.358802 cumulative IPC: 0.345081 (Simulation time: 1 hr 16 min 46 sec) 
Heartbeat CPU 0 instructions: 147000001 cycles: 298936206 heartbeat IPC: 0.375621 cumulative IPC: 0.34537 (Simulation time: 1 hr 17 min 9 sec) 
Heartbeat CPU 0 instructions: 148000000 cycles: 301616857 heartbeat IPC: 0.373043 cumulative IPC: 0.345632 (Simulation time: 1 hr 17 min 31 sec) 
Heartbeat CPU 0 instructions: 149000002 cycles: 304202457 heartbeat IPC: 0.386758 cumulative IPC: 0.346004 (Simulation time: 1 hr 17 min 52 sec) 
Heartbeat CPU 0 instructions: 150000001 cycles: 307372535 heartbeat IPC: 0.315449 cumulative IPC: 0.345669 (Simulation time: 1 hr 18 min 14 sec) 
Finished CPU 0 instructions: 100000000 cycles: 289294277 cummulative IPC: 0.345669 (Simulation time: 1 hr 18 min 14 sec) 

ChampSim completed all CPUs

Region of Interest Statistics

CPU 0 cummulative IPC: 0.345669 instructions: 100000000 cycles: 289294277
LLC TOTAL     ACCESS:    5177827  HIT:    4881098  MISS:     296729
LLC LOAD      ACCESS:    2110908  HIT:    2001093  MISS:     109815
LLC RFO       ACCESS:      25553  HIT:      25053  MISS:        500
LLC PREFETCH  ACCESS:    2248609  HIT:    2064245  MISS:     184364
LLC WRITEBACK ACCESS:     792757  HIT:     790707  MISS:       2050
OPTgen accesses: 51963
OPTgen hits: 65841
OPTgen hit rate: 126.707


