
*** ChampSim Multicore Out-of-Order Simulator ***

Warmup Instructions: 50000000
Simulation Instructions: 100000000
Configuration: 2
Number of CPUs: 1
LLC sets: 2048
LLC ways: 16
Off-chip DRAM Channels: 1 Width: 64-bit Data Rate: 1600 MT/s

CPU 0 runs /datasets/cs240c-wi22-a00-public/data/Assignment2-gz/milc_360B.trace.gz
CPU 0 L1D next line prefetcher
CPU 0 L2C IP-based stride prefetcher
Initialize Hawkeye state
Heartbeat CPU 0 instructions: 1000001 cycles: 549511 heartbeat IPC: 1.8198 cumulative IPC: 1.8198 (Simulation time: 0 hr 0 min 33 sec) 
Heartbeat CPU 0 instructions: 2000003 cycles: 1099026 heartbeat IPC: 1.81979 cumulative IPC: 1.8198 (Simulation time: 0 hr 1 min 3 sec) 
Heartbeat CPU 0 instructions: 3000001 cycles: 1648486 heartbeat IPC: 1.81997 cumulative IPC: 1.81985 (Simulation time: 0 hr 1 min 33 sec) 
Heartbeat CPU 0 instructions: 4000000 cycles: 2197959 heartbeat IPC: 1.81992 cumulative IPC: 1.81987 (Simulation time: 0 hr 2 min 1 sec) 
Heartbeat CPU 0 instructions: 5000002 cycles: 2747468 heartbeat IPC: 1.81981 cumulative IPC: 1.81986 (Simulation time: 0 hr 2 min 31 sec) 
Heartbeat CPU 0 instructions: 6000001 cycles: 3296983 heartbeat IPC: 1.81978 cumulative IPC: 1.81985 (Simulation time: 0 hr 3 min 3 sec) 
Heartbeat CPU 0 instructions: 7000000 cycles: 3846462 heartbeat IPC: 1.8199 cumulative IPC: 1.81985 (Simulation time: 0 hr 3 min 34 sec) 
Heartbeat CPU 0 instructions: 8000000 cycles: 4395923 heartbeat IPC: 1.81997 cumulative IPC: 1.81987 (Simulation time: 0 hr 4 min 4 sec) 
Heartbeat CPU 0 instructions: 9000001 cycles: 4945436 heartbeat IPC: 1.8198 cumulative IPC: 1.81986 (Simulation time: 0 hr 4 min 35 sec) 
Heartbeat CPU 0 instructions: 10000001 cycles: 5494911 heartbeat IPC: 1.81992 cumulative IPC: 1.81987 (Simulation time: 0 hr 5 min 7 sec) 
Heartbeat CPU 0 instructions: 11000001 cycles: 6044376 heartbeat IPC: 1.81995 cumulative IPC: 1.81987 (Simulation time: 0 hr 5 min 40 sec) 
Heartbeat CPU 0 instructions: 12000000 cycles: 6593855 heartbeat IPC: 1.8199 cumulative IPC: 1.81988 (Simulation time: 0 hr 6 min 10 sec) 
Heartbeat CPU 0 instructions: 13000001 cycles: 7143384 heartbeat IPC: 1.81974 cumulative IPC: 1.81987 (Simulation time: 0 hr 6 min 40 sec) 
Heartbeat CPU 0 instructions: 14000003 cycles: 7692851 heartbeat IPC: 1.81995 cumulative IPC: 1.81987 (Simulation time: 0 hr 7 min 11 sec) 
Heartbeat CPU 0 instructions: 15000003 cycles: 8242328 heartbeat IPC: 1.81991 cumulative IPC: 1.81987 (Simulation time: 0 hr 7 min 43 sec) 
Heartbeat CPU 0 instructions: 16000000 cycles: 8791808 heartbeat IPC: 1.8199 cumulative IPC: 1.81988 (Simulation time: 0 hr 8 min 16 sec) 
Heartbeat CPU 0 instructions: 17000001 cycles: 9341333 heartbeat IPC: 1.81976 cumulative IPC: 1.81987 (Simulation time: 0 hr 8 min 46 sec) 
Heartbeat CPU 0 instructions: 18000001 cycles: 9890809 heartbeat IPC: 1.81992 cumulative IPC: 1.81987 (Simulation time: 0 hr 9 min 15 sec) 
Heartbeat CPU 0 instructions: 19000000 cycles: 10440288 heartbeat IPC: 1.8199 cumulative IPC: 1.81987 (Simulation time: 0 hr 9 min 44 sec) 
Heartbeat CPU 0 instructions: 20000000 cycles: 10989424 heartbeat IPC: 1.82104 cumulative IPC: 1.81993 (Simulation time: 0 hr 10 min 12 sec) 
Heartbeat CPU 0 instructions: 21000000 cycles: 11536405 heartbeat IPC: 1.82822 cumulative IPC: 1.82032 (Simulation time: 0 hr 10 min 42 sec) 
Heartbeat CPU 0 instructions: 22000003 cycles: 12083409 heartbeat IPC: 1.82815 cumulative IPC: 1.82068 (Simulation time: 0 hr 11 min 13 sec) 
Heartbeat CPU 0 instructions: 23000003 cycles: 12630401 heartbeat IPC: 1.82818 cumulative IPC: 1.821 (Simulation time: 0 hr 11 min 45 sec) 
Heartbeat CPU 0 instructions: 24000000 cycles: 13177380 heartbeat IPC: 1.82822 cumulative IPC: 1.8213 (Simulation time: 0 hr 12 min 15 sec) 
Heartbeat CPU 0 instructions: 25000003 cycles: 13724416 heartbeat IPC: 1.82804 cumulative IPC: 1.82157 (Simulation time: 0 hr 12 min 47 sec) 
Heartbeat CPU 0 instructions: 26000003 cycles: 14271406 heartbeat IPC: 1.82819 cumulative IPC: 1.82182 (Simulation time: 0 hr 13 min 17 sec) 
Heartbeat CPU 0 instructions: 27000000 cycles: 14818381 heartbeat IPC: 1.82823 cumulative IPC: 1.82206 (Simulation time: 0 hr 13 min 46 sec) 
Heartbeat CPU 0 instructions: 28000000 cycles: 15365365 heartbeat IPC: 1.82821 cumulative IPC: 1.82228 (Simulation time: 0 hr 14 min 16 sec) 
Heartbeat CPU 0 instructions: 29000003 cycles: 15912381 heartbeat IPC: 1.82811 cumulative IPC: 1.82248 (Simulation time: 0 hr 14 min 48 sec) 
Heartbeat CPU 0 instructions: 30000000 cycles: 16459393 heartbeat IPC: 1.82811 cumulative IPC: 1.82267 (Simulation time: 0 hr 15 min 17 sec) 
Heartbeat CPU 0 instructions: 31000003 cycles: 17006360 heartbeat IPC: 1.82827 cumulative IPC: 1.82285 (Simulation time: 0 hr 15 min 48 sec) 
Heartbeat CPU 0 instructions: 32000000 cycles: 17553384 heartbeat IPC: 1.82807 cumulative IPC: 1.82301 (Simulation time: 0 hr 16 min 20 sec) 
Heartbeat CPU 0 instructions: 33000000 cycles: 18100356 heartbeat IPC: 1.82825 cumulative IPC: 1.82317 (Simulation time: 0 hr 16 min 52 sec) 
Heartbeat CPU 0 instructions: 34000001 cycles: 18647368 heartbeat IPC: 1.82812 cumulative IPC: 1.82331 (Simulation time: 0 hr 17 min 22 sec) 
Heartbeat CPU 0 instructions: 35000001 cycles: 19194373 heartbeat IPC: 1.82814 cumulative IPC: 1.82345 (Simulation time: 0 hr 17 min 52 sec) 
Heartbeat CPU 0 instructions: 36000000 cycles: 19741323 heartbeat IPC: 1.82832 cumulative IPC: 1.82359 (Simulation time: 0 hr 18 min 23 sec) 
Heartbeat CPU 0 instructions: 37000001 cycles: 20288363 heartbeat IPC: 1.82802 cumulative IPC: 1.82371 (Simulation time: 0 hr 18 min 52 sec) 
Heartbeat CPU 0 instructions: 38000001 cycles: 20835354 heartbeat IPC: 1.82818 cumulative IPC: 1.82382 (Simulation time: 0 hr 19 min 24 sec) 
Heartbeat CPU 0 instructions: 39000000 cycles: 21382325 heartbeat IPC: 1.82825 cumulative IPC: 1.82394 (Simulation time: 0 hr 19 min 53 sec) 
Heartbeat CPU 0 instructions: 40000000 cycles: 21929320 heartbeat IPC: 1.82817 cumulative IPC: 1.82404 (Simulation time: 0 hr 20 min 23 sec) 
Heartbeat CPU 0 instructions: 41000001 cycles: 22476331 heartbeat IPC: 1.82812 cumulative IPC: 1.82414 (Simulation time: 0 hr 20 min 54 sec) 
Heartbeat CPU 0 instructions: 42000001 cycles: 23023324 heartbeat IPC: 1.82818 cumulative IPC: 1.82424 (Simulation time: 0 hr 21 min 25 sec) 
Heartbeat CPU 0 instructions: 43000000 cycles: 23570300 heartbeat IPC: 1.82823 cumulative IPC: 1.82433 (Simulation time: 0 hr 21 min 54 sec) 
Heartbeat CPU 0 instructions: 44000000 cycles: 24074427 heartbeat IPC: 1.98363 cumulative IPC: 1.82767 (Simulation time: 0 hr 22 min 27 sec) 
Heartbeat CPU 0 instructions: 45000002 cycles: 24567679 heartbeat IPC: 2.02737 cumulative IPC: 1.83167 (Simulation time: 0 hr 23 min 1 sec) 
Heartbeat CPU 0 instructions: 46000000 cycles: 25060917 heartbeat IPC: 2.02741 cumulative IPC: 1.83553 (Simulation time: 0 hr 23 min 33 sec) 
Heartbeat CPU 0 instructions: 47000000 cycles: 25554137 heartbeat IPC: 2.02749 cumulative IPC: 1.83923 (Simulation time: 0 hr 24 min 10 sec) 
Heartbeat CPU 0 instructions: 48000000 cycles: 26047374 heartbeat IPC: 2.02742 cumulative IPC: 1.8428 (Simulation time: 0 hr 24 min 42 sec) 
Heartbeat CPU 0 instructions: 49000002 cycles: 26540623 heartbeat IPC: 2.02738 cumulative IPC: 1.84623 (Simulation time: 0 hr 25 min 13 sec) 
Heartbeat CPU 0 instructions: 50000000 cycles: 27018579 heartbeat IPC: 2.09224 cumulative IPC: 1.85058 (Simulation time: 0 hr 25 min 42 sec) 

Warmup complete CPU 0 instructions: 50000004 cycles: 27018580 (Simulation time: 0 hr 25 min 42 sec) 

Heartbeat CPU 0 instructions: 51000002 cycles: 28334757 heartbeat IPC: 0.759777 cumulative IPC: 0.759775 (Simulation time: 0 hr 26 min 16 sec) 
Heartbeat CPU 0 instructions: 52000000 cycles: 30262554 heartbeat IPC: 0.518726 cumulative IPC: 0.616527 (Simulation time: 0 hr 26 min 51 sec) 
Heartbeat CPU 0 instructions: 53000002 cycles: 32527973 heartbeat IPC: 0.44142 cumulative IPC: 0.544524 (Simulation time: 0 hr 27 min 27 sec) 
Heartbeat CPU 0 instructions: 54000003 cycles: 34792753 heartbeat IPC: 0.441544 cumulative IPC: 0.514524 (Simulation time: 0 hr 28 min 3 sec) 
Heartbeat CPU 0 instructions: 55000003 cycles: 37038038 heartbeat IPC: 0.445378 cumulative IPC: 0.499029 (Simulation time: 0 hr 28 min 37 sec) 
Heartbeat CPU 0 instructions: 56000000 cycles: 39272213 heartbeat IPC: 0.447591 cumulative IPC: 0.48965 (Simulation time: 0 hr 29 min 11 sec) 
Heartbeat CPU 0 instructions: 57000000 cycles: 41505098 heartbeat IPC: 0.447851 cumulative IPC: 0.483208 (Simulation time: 0 hr 29 min 48 sec) 
Heartbeat CPU 0 instructions: 58000000 cycles: 43734621 heartbeat IPC: 0.448526 cumulative IPC: 0.478582 (Simulation time: 0 hr 30 min 24 sec) 
Heartbeat CPU 0 instructions: 59000001 cycles: 45968187 heartbeat IPC: 0.447715 cumulative IPC: 0.474944 (Simulation time: 0 hr 31 min 0 sec) 
Heartbeat CPU 0 instructions: 60000000 cycles: 48197218 heartbeat IPC: 0.448625 cumulative IPC: 0.472174 (Simulation time: 0 hr 31 min 33 sec) 
Heartbeat CPU 0 instructions: 61000000 cycles: 50427460 heartbeat IPC: 0.448382 cumulative IPC: 0.469907 (Simulation time: 0 hr 32 min 6 sec) 
Heartbeat CPU 0 instructions: 62000003 cycles: 52657678 heartbeat IPC: 0.448388 cumulative IPC: 0.468035 (Simulation time: 0 hr 32 min 40 sec) 
Heartbeat CPU 0 instructions: 63000003 cycles: 54888765 heartbeat IPC: 0.448212 cumulative IPC: 0.466448 (Simulation time: 0 hr 33 min 12 sec) 
Heartbeat CPU 0 instructions: 64000000 cycles: 57123215 heartbeat IPC: 0.447536 cumulative IPC: 0.465045 (Simulation time: 0 hr 33 min 43 sec) 
Heartbeat CPU 0 instructions: 65000001 cycles: 59354488 heartbeat IPC: 0.448175 cumulative IPC: 0.463881 (Simulation time: 0 hr 34 min 17 sec) 
Heartbeat CPU 0 instructions: 66000001 cycles: 61583894 heartbeat IPC: 0.44855 cumulative IPC: 0.462892 (Simulation time: 0 hr 34 min 49 sec) 
Heartbeat CPU 0 instructions: 67000002 cycles: 63818059 heartbeat IPC: 0.447595 cumulative IPC: 0.461963 (Simulation time: 0 hr 35 min 21 sec) 
Heartbeat CPU 0 instructions: 68000000 cycles: 66051182 heartbeat IPC: 0.447802 cumulative IPC: 0.461153 (Simulation time: 0 hr 35 min 55 sec) 
Heartbeat CPU 0 instructions: 69000001 cycles: 68283008 heartbeat IPC: 0.448064 cumulative IPC: 0.460445 (Simulation time: 0 hr 36 min 30 sec) 
Heartbeat CPU 0 instructions: 70000000 cycles: 70517729 heartbeat IPC: 0.447483 cumulative IPC: 0.459779 (Simulation time: 0 hr 37 min 7 sec) 
Heartbeat CPU 0 instructions: 71000000 cycles: 72755564 heartbeat IPC: 0.44686 cumulative IPC: 0.459147 (Simulation time: 0 hr 37 min 47 sec) 
Heartbeat CPU 0 instructions: 72000000 cycles: 74986136 heartbeat IPC: 0.448316 cumulative IPC: 0.458643 (Simulation time: 0 hr 38 min 21 sec) 
Heartbeat CPU 0 instructions: 73000001 cycles: 77206563 heartbeat IPC: 0.450364 cumulative IPC: 0.458277 (Simulation time: 0 hr 38 min 58 sec) 
Heartbeat CPU 0 instructions: 74000002 cycles: 78782380 heartbeat IPC: 0.634592 cumulative IPC: 0.463644 (Simulation time: 0 hr 39 min 36 sec) 
Heartbeat CPU 0 instructions: 75000003 cycles: 80369179 heartbeat IPC: 0.6302 cumulative IPC: 0.468598 (Simulation time: 0 hr 40 min 11 sec) 
Heartbeat CPU 0 instructions: 76000000 cycles: 81958825 heartbeat IPC: 0.629069 cumulative IPC: 0.473241 (Simulation time: 0 hr 40 min 47 sec) 
Heartbeat CPU 0 instructions: 77000000 cycles: 83542688 heartbeat IPC: 0.631368 cumulative IPC: 0.477672 (Simulation time: 0 hr 41 min 21 sec) 
Heartbeat CPU 0 instructions: 78000000 cycles: 85127995 heartbeat IPC: 0.630793 cumulative IPC: 0.48185 (Simulation time: 0 hr 41 min 57 sec) 
Heartbeat CPU 0 instructions: 79000000 cycles: 86710626 heartbeat IPC: 0.631859 cumulative IPC: 0.485827 (Simulation time: 0 hr 42 min 35 sec) 
Heartbeat CPU 0 instructions: 80000000 cycles: 88296998 heartbeat IPC: 0.630369 cumulative IPC: 0.489569 (Simulation time: 0 hr 43 min 12 sec) 
Heartbeat CPU 0 instructions: 81000003 cycles: 89882716 heartbeat IPC: 0.630631 cumulative IPC: 0.493127 (Simulation time: 0 hr 43 min 47 sec) 
Heartbeat CPU 0 instructions: 82000003 cycles: 91473406 heartbeat IPC: 0.628658 cumulative IPC: 0.496472 (Simulation time: 0 hr 44 min 22 sec) 
Heartbeat CPU 0 instructions: 83000002 cycles: 93058471 heartbeat IPC: 0.630888 cumulative IPC: 0.499698 (Simulation time: 0 hr 45 min 6 sec) 
Heartbeat CPU 0 instructions: 84000000 cycles: 94651487 heartbeat IPC: 0.627739 cumulative IPC: 0.502714 (Simulation time: 0 hr 45 min 45 sec) 
Heartbeat CPU 0 instructions: 85000000 cycles: 96237976 heartbeat IPC: 0.630323 cumulative IPC: 0.505639 (Simulation time: 0 hr 46 min 22 sec) 
Heartbeat CPU 0 instructions: 86000000 cycles: 97825343 heartbeat IPC: 0.629974 cumulative IPC: 0.508426 (Simulation time: 0 hr 47 min 5 sec) 
Heartbeat CPU 0 instructions: 87000000 cycles: 99406548 heartbeat IPC: 0.632429 cumulative IPC: 0.511135 (Simulation time: 0 hr 47 min 42 sec) 
Heartbeat CPU 0 instructions: 88000000 cycles: 100992785 heartbeat IPC: 0.630423 cumulative IPC: 0.513692 (Simulation time: 0 hr 48 min 19 sec) 
Heartbeat CPU 0 instructions: 89000002 cycles: 102583151 heartbeat IPC: 0.628787 cumulative IPC: 0.516115 (Simulation time: 0 hr 48 min 54 sec) 
Heartbeat CPU 0 instructions: 90000002 cycles: 104166887 heartbeat IPC: 0.631418 cumulative IPC: 0.518482 (Simulation time: 0 hr 49 min 30 sec) 
Heartbeat CPU 0 instructions: 91000003 cycles: 105751248 heartbeat IPC: 0.63117 cumulative IPC: 0.52075 (Simulation time: 0 hr 50 min 7 sec) 
Heartbeat CPU 0 instructions: 92000000 cycles: 107339121 heartbeat IPC: 0.629771 cumulative IPC: 0.522905 (Simulation time: 0 hr 50 min 42 sec) 
Heartbeat CPU 0 instructions: 93000000 cycles: 108920922 heartbeat IPC: 0.632191 cumulative IPC: 0.525015 (Simulation time: 0 hr 51 min 17 sec) 
Heartbeat CPU 0 instructions: 94000000 cycles: 110509502 heartbeat IPC: 0.629493 cumulative IPC: 0.527003 (Simulation time: 0 hr 51 min 56 sec) 
Heartbeat CPU 0 instructions: 95000000 cycles: 112098237 heartbeat IPC: 0.629432 cumulative IPC: 0.528916 (Simulation time: 0 hr 52 min 30 sec) 
Heartbeat CPU 0 instructions: 96000000 cycles: 113683847 heartbeat IPC: 0.630672 cumulative IPC: 0.530778 (Simulation time: 0 hr 53 min 5 sec) 
Heartbeat CPU 0 instructions: 97000002 cycles: 115256738 heartbeat IPC: 0.635773 cumulative IPC: 0.532649 (Simulation time: 0 hr 53 min 41 sec) 
Heartbeat CPU 0 instructions: 98000003 cycles: 116830869 heartbeat IPC: 0.635272 cumulative IPC: 0.534448 (Simulation time: 0 hr 54 min 17 sec) 
Heartbeat CPU 0 instructions: 99000000 cycles: 118404560 heartbeat IPC: 0.635447 cumulative IPC: 0.536187 (Simulation time: 0 hr 54 min 52 sec) 
Heartbeat CPU 0 instructions: 100000000 cycles: 119977224 heartbeat IPC: 0.635864 cumulative IPC: 0.537874 (Simulation time: 0 hr 55 min 25 sec) 
Heartbeat CPU 0 instructions: 101000002 cycles: 121555498 heartbeat IPC: 0.633605 cumulative IPC: 0.539472 (Simulation time: 0 hr 56 min 3 sec) 
Heartbeat CPU 0 instructions: 102000000 cycles: 123131866 heartbeat IPC: 0.634368 cumulative IPC: 0.541028 (Simulation time: 0 hr 56 min 37 sec) 
Heartbeat CPU 0 instructions: 103000002 cycles: 124708268 heartbeat IPC: 0.634357 cumulative IPC: 0.542534 (Simulation time: 0 hr 57 min 14 sec) 
Heartbeat CPU 0 instructions: 104000000 cycles: 126279636 heartbeat IPC: 0.636387 cumulative IPC: 0.54402 (Simulation time: 0 hr 57 min 51 sec) 
Heartbeat CPU 0 instructions: 105000003 cycles: 127852966 heartbeat IPC: 0.635596 cumulative IPC: 0.545449 (Simulation time: 0 hr 58 min 25 sec) 
Heartbeat CPU 0 instructions: 106000002 cycles: 129432212 heartbeat IPC: 0.633213 cumulative IPC: 0.546802 (Simulation time: 0 hr 59 min 4 sec) 
Heartbeat CPU 0 instructions: 107000000 cycles: 131013838 heartbeat IPC: 0.632259 cumulative IPC: 0.548102 (Simulation time: 0 hr 59 min 39 sec) 
Heartbeat CPU 0 instructions: 108000000 cycles: 132589557 heartbeat IPC: 0.634631 cumulative IPC: 0.549393 (Simulation time: 1 hr 0 min 13 sec) 
Heartbeat CPU 0 instructions: 109000002 cycles: 134162159 heartbeat IPC: 0.63589 cumulative IPC: 0.550663 (Simulation time: 1 hr 0 min 49 sec) 
Heartbeat CPU 0 instructions: 110000000 cycles: 135736871 heartbeat IPC: 0.635036 cumulative IPC: 0.551885 (Simulation time: 1 hr 1 min 25 sec) 
Heartbeat CPU 0 instructions: 111000000 cycles: 137314275 heartbeat IPC: 0.633953 cumulative IPC: 0.553059 (Simulation time: 1 hr 2 min 1 sec) 
Heartbeat CPU 0 instructions: 112000000 cycles: 138890421 heartbeat IPC: 0.634459 cumulative IPC: 0.554206 (Simulation time: 1 hr 2 min 35 sec) 
Heartbeat CPU 0 instructions: 113000002 cycles: 140466717 heartbeat IPC: 0.6344 cumulative IPC: 0.55532 (Simulation time: 1 hr 3 min 8 sec) 
Heartbeat CPU 0 instructions: 114000003 cycles: 142045928 heartbeat IPC: 0.633228 cumulative IPC: 0.556389 (Simulation time: 1 hr 3 min 42 sec) 
Heartbeat CPU 0 instructions: 115000002 cycles: 143621949 heartbeat IPC: 0.634509 cumulative IPC: 0.557445 (Simulation time: 1 hr 4 min 20 sec) 
Heartbeat CPU 0 instructions: 116000000 cycles: 145193705 heartbeat IPC: 0.63623 cumulative IPC: 0.558493 (Simulation time: 1 hr 4 min 57 sec) 
Heartbeat CPU 0 instructions: 117000003 cycles: 146763654 heartbeat IPC: 0.636965 cumulative IPC: 0.559522 (Simulation time: 1 hr 5 min 31 sec) 
Heartbeat CPU 0 instructions: 118000001 cycles: 148335146 heartbeat IPC: 0.636337 cumulative IPC: 0.560517 (Simulation time: 1 hr 6 min 6 sec) 
Heartbeat CPU 0 instructions: 119000000 cycles: 149914049 heartbeat IPC: 0.63335 cumulative IPC: 0.561453 (Simulation time: 1 hr 6 min 40 sec) 
Heartbeat CPU 0 instructions: 120000000 cycles: 151770580 heartbeat IPC: 0.538639 cumulative IPC: 0.561113 (Simulation time: 1 hr 7 min 18 sec) 
Heartbeat CPU 0 instructions: 121000003 cycles: 153973506 heartbeat IPC: 0.453943 cumulative IPC: 0.559254 (Simulation time: 1 hr 7 min 57 sec) 
Heartbeat CPU 0 instructions: 122000002 cycles: 156202199 heartbeat IPC: 0.448693 cumulative IPC: 0.557346 (Simulation time: 1 hr 8 min 35 sec) 
Heartbeat CPU 0 instructions: 123000002 cycles: 158539497 heartbeat IPC: 0.427844 cumulative IPC: 0.555045 (Simulation time: 1 hr 9 min 16 sec) 
Heartbeat CPU 0 instructions: 124000000 cycles: 160968779 heartbeat IPC: 0.411643 cumulative IPC: 0.552444 (Simulation time: 1 hr 9 min 57 sec) 
Heartbeat CPU 0 instructions: 125000002 cycles: 163350594 heartbeat IPC: 0.419849 cumulative IPC: 0.550128 (Simulation time: 1 hr 10 min 36 sec) 
Heartbeat CPU 0 instructions: 126000001 cycles: 165761110 heartbeat IPC: 0.414849 cumulative IPC: 0.547777 (Simulation time: 1 hr 11 min 12 sec) 
Heartbeat CPU 0 instructions: 127000001 cycles: 169991373 heartbeat IPC: 0.236392 cumulative IPC: 0.538564 (Simulation time: 1 hr 12 min 4 sec) 
Heartbeat CPU 0 instructions: 128000000 cycles: 171845158 heartbeat IPC: 0.539436 cumulative IPC: 0.538575 (Simulation time: 1 hr 12 min 32 sec) 
Heartbeat CPU 0 instructions: 129000000 cycles: 173683838 heartbeat IPC: 0.543868 cumulative IPC: 0.538642 (Simulation time: 1 hr 13 min 1 sec) 
Heartbeat CPU 0 instructions: 130000001 cycles: 175525514 heartbeat IPC: 0.542984 cumulative IPC: 0.538695 (Simulation time: 1 hr 13 min 29 sec) 
Heartbeat CPU 0 instructions: 131000003 cycles: 177362693 heartbeat IPC: 0.544314 cumulative IPC: 0.538764 (Simulation time: 1 hr 13 min 59 sec) 
Heartbeat CPU 0 instructions: 132000000 cycles: 179199702 heartbeat IPC: 0.544362 cumulative IPC: 0.538832 (Simulation time: 1 hr 14 min 26 sec) 
Heartbeat CPU 0 instructions: 133000001 cycles: 181024646 heartbeat IPC: 0.547963 cumulative IPC: 0.53894 (Simulation time: 1 hr 14 min 53 sec) 
Heartbeat CPU 0 instructions: 134000003 cycles: 182835559 heartbeat IPC: 0.552209 cumulative IPC: 0.539094 (Simulation time: 1 hr 15 min 20 sec) 
Heartbeat CPU 0 instructions: 135000001 cycles: 184650199 heartbeat IPC: 0.551072 cumulative IPC: 0.539232 (Simulation time: 1 hr 15 min 46 sec) 
Heartbeat CPU 0 instructions: 136000000 cycles: 186466134 heartbeat IPC: 0.55068 cumulative IPC: 0.539362 (Simulation time: 1 hr 16 min 11 sec) 
Heartbeat CPU 0 instructions: 137000001 cycles: 188282253 heartbeat IPC: 0.550625 cumulative IPC: 0.539489 (Simulation time: 1 hr 16 min 37 sec) 
Heartbeat CPU 0 instructions: 138000003 cycles: 190095544 heartbeat IPC: 0.551485 cumulative IPC: 0.539622 (Simulation time: 1 hr 17 min 1 sec) 
Heartbeat CPU 0 instructions: 139000003 cycles: 191911756 heartbeat IPC: 0.550597 cumulative IPC: 0.539743 (Simulation time: 1 hr 17 min 24 sec) 
Heartbeat CPU 0 instructions: 140000000 cycles: 193724087 heartbeat IPC: 0.551774 cumulative IPC: 0.539874 (Simulation time: 1 hr 17 min 47 sec) 
Heartbeat CPU 0 instructions: 141000003 cycles: 195535286 heartbeat IPC: 0.552122 cumulative IPC: 0.540006 (Simulation time: 1 hr 18 min 8 sec) 
Heartbeat CPU 0 instructions: 142000001 cycles: 197350568 heartbeat IPC: 0.550878 cumulative IPC: 0.540122 (Simulation time: 1 hr 18 min 30 sec) 
Heartbeat CPU 0 instructions: 143000003 cycles: 199167443 heartbeat IPC: 0.550397 cumulative IPC: 0.54023 (Simulation time: 1 hr 18 min 51 sec) 
Heartbeat CPU 0 instructions: 144000000 cycles: 200986962 heartbeat IPC: 0.549594 cumulative IPC: 0.540328 (Simulation time: 1 hr 19 min 11 sec) 
Heartbeat CPU 0 instructions: 145000001 cycles: 202797793 heartbeat IPC: 0.552233 cumulative IPC: 0.540451 (Simulation time: 1 hr 19 min 32 sec) 
Heartbeat CPU 0 instructions: 146000001 cycles: 204609381 heartbeat IPC: 0.552002 cumulative IPC: 0.540569 (Simulation time: 1 hr 19 min 53 sec) 
Heartbeat CPU 0 instructions: 147000001 cycles: 206428438 heartbeat IPC: 0.549735 cumulative IPC: 0.540661 (Simulation time: 1 hr 20 min 14 sec) 
Heartbeat CPU 0 instructions: 148000000 cycles: 208243171 heartbeat IPC: 0.551045 cumulative IPC: 0.540765 (Simulation time: 1 hr 20 min 32 sec) 
Heartbeat CPU 0 instructions: 149000001 cycles: 210063236 heartbeat IPC: 0.549432 cumulative IPC: 0.540852 (Simulation time: 1 hr 20 min 51 sec) 
Heartbeat CPU 0 instructions: 150000003 cycles: 211878444 heartbeat IPC: 0.550902 cumulative IPC: 0.54095 (Simulation time: 1 hr 21 min 10 sec) 
Finished CPU 0 instructions: 100000003 cycles: 184859865 cummulative IPC: 0.54095 (Simulation time: 1 hr 21 min 10 sec) 

ChampSim completed all CPUs

Region of Interest Statistics

CPU 0 cummulative IPC: 0.54095 instructions: 100000003 cycles: 184859865
LLC TOTAL     ACCESS:    3782722  HIT:     152417  MISS:    3630305
LLC LOAD      ACCESS:    1109348  HIT:        487  MISS:    1108861
LLC RFO       ACCESS:     348144  HIT:       2920  MISS:     345224
LLC PREFETCH  ACCESS:    1536217  HIT:      14514  MISS:    1521703
LLC WRITEBACK ACCESS:     789013  HIT:     134496  MISS:     654517
OPTgen accesses: 29745
OPTgen hits: 308
OPTgen hit rate: 1.03547


