
*** ChampSim Multicore Out-of-Order Simulator ***

Warmup Instructions: 50000000
Simulation Instructions: 100000000
Configuration: 2
Number of CPUs: 1
LLC sets: 2048
LLC ways: 16
Off-chip DRAM Channels: 1 Width: 64-bit Data Rate: 1600 MT/s

CPU 0 runs /datasets/cs240c-wi22-a00-public/data/Assignment2-gz/gcc_56B.trace.gz
CPU 0 L1D next line prefetcher
CPU 0 L2C IP-based stride prefetcher
Initialize Hawkeye state
Heartbeat CPU 0 instructions: 1000003 cycles: 954151 heartbeat IPC: 1.04806 cumulative IPC: 1.04806 (Simulation time: 0 hr 0 min 42 sec) 
Heartbeat CPU 0 instructions: 2000001 cycles: 1898349 heartbeat IPC: 1.0591 cumulative IPC: 1.05355 (Simulation time: 0 hr 1 min 21 sec) 
Heartbeat CPU 0 instructions: 3000001 cycles: 2885593 heartbeat IPC: 1.01292 cumulative IPC: 1.03965 (Simulation time: 0 hr 2 min 2 sec) 
Heartbeat CPU 0 instructions: 4000000 cycles: 3848221 heartbeat IPC: 1.03882 cumulative IPC: 1.03944 (Simulation time: 0 hr 2 min 39 sec) 
Heartbeat CPU 0 instructions: 5000002 cycles: 4737701 heartbeat IPC: 1.12425 cumulative IPC: 1.05536 (Simulation time: 0 hr 3 min 19 sec) 
Heartbeat CPU 0 instructions: 6000000 cycles: 5685656 heartbeat IPC: 1.0549 cumulative IPC: 1.05529 (Simulation time: 0 hr 3 min 57 sec) 
Heartbeat CPU 0 instructions: 7000000 cycles: 6649890 heartbeat IPC: 1.03709 cumulative IPC: 1.05265 (Simulation time: 0 hr 4 min 34 sec) 
Heartbeat CPU 0 instructions: 8000000 cycles: 7611113 heartbeat IPC: 1.04034 cumulative IPC: 1.05109 (Simulation time: 0 hr 5 min 14 sec) 
Heartbeat CPU 0 instructions: 9000000 cycles: 8622586 heartbeat IPC: 0.988657 cumulative IPC: 1.04377 (Simulation time: 0 hr 5 min 54 sec) 
Heartbeat CPU 0 instructions: 10000002 cycles: 9583098 heartbeat IPC: 1.04111 cumulative IPC: 1.0435 (Simulation time: 0 hr 6 min 33 sec) 
Heartbeat CPU 0 instructions: 11000002 cycles: 10472394 heartbeat IPC: 1.12449 cumulative IPC: 1.05038 (Simulation time: 0 hr 7 min 9 sec) 
Heartbeat CPU 0 instructions: 12000000 cycles: 11357926 heartbeat IPC: 1.12926 cumulative IPC: 1.05653 (Simulation time: 0 hr 7 min 49 sec) 
Heartbeat CPU 0 instructions: 13000001 cycles: 12297173 heartbeat IPC: 1.06468 cumulative IPC: 1.05715 (Simulation time: 0 hr 8 min 29 sec) 
Heartbeat CPU 0 instructions: 14000000 cycles: 13290644 heartbeat IPC: 1.00657 cumulative IPC: 1.05337 (Simulation time: 0 hr 9 min 12 sec) 
Heartbeat CPU 0 instructions: 15000003 cycles: 14246131 heartbeat IPC: 1.04659 cumulative IPC: 1.05292 (Simulation time: 0 hr 9 min 50 sec) 
Heartbeat CPU 0 instructions: 16000000 cycles: 15246173 heartbeat IPC: 0.999955 cumulative IPC: 1.04944 (Simulation time: 0 hr 10 min 29 sec) 
Heartbeat CPU 0 instructions: 17000001 cycles: 16221156 heartbeat IPC: 1.02566 cumulative IPC: 1.04801 (Simulation time: 0 hr 11 min 8 sec) 
Heartbeat CPU 0 instructions: 18000000 cycles: 17121986 heartbeat IPC: 1.11009 cumulative IPC: 1.05128 (Simulation time: 0 hr 11 min 47 sec) 
Heartbeat CPU 0 instructions: 19000000 cycles: 18045880 heartbeat IPC: 1.08238 cumulative IPC: 1.05287 (Simulation time: 0 hr 12 min 25 sec) 
Heartbeat CPU 0 instructions: 20000000 cycles: 18990389 heartbeat IPC: 1.05875 cumulative IPC: 1.05316 (Simulation time: 0 hr 13 min 1 sec) 
Heartbeat CPU 0 instructions: 21000000 cycles: 19947020 heartbeat IPC: 1.04534 cumulative IPC: 1.05279 (Simulation time: 0 hr 13 min 39 sec) 
Heartbeat CPU 0 instructions: 22000000 cycles: 20939404 heartbeat IPC: 1.00767 cumulative IPC: 1.05065 (Simulation time: 0 hr 14 min 20 sec) 
Heartbeat CPU 0 instructions: 23000000 cycles: 21860054 heartbeat IPC: 1.08619 cumulative IPC: 1.05215 (Simulation time: 0 hr 14 min 58 sec) 
Heartbeat CPU 0 instructions: 24000000 cycles: 22777464 heartbeat IPC: 1.09003 cumulative IPC: 1.05367 (Simulation time: 0 hr 15 min 38 sec) 
Heartbeat CPU 0 instructions: 25000000 cycles: 23713196 heartbeat IPC: 1.06868 cumulative IPC: 1.05427 (Simulation time: 0 hr 16 min 20 sec) 
Heartbeat CPU 0 instructions: 26000002 cycles: 24633683 heartbeat IPC: 1.08638 cumulative IPC: 1.05547 (Simulation time: 0 hr 17 min 1 sec) 
Heartbeat CPU 0 instructions: 27000000 cycles: 25585995 heartbeat IPC: 1.05007 cumulative IPC: 1.05526 (Simulation time: 0 hr 17 min 37 sec) 
Heartbeat CPU 0 instructions: 28000000 cycles: 26583766 heartbeat IPC: 1.00223 cumulative IPC: 1.05327 (Simulation time: 0 hr 18 min 15 sec) 
Heartbeat CPU 0 instructions: 29000000 cycles: 27583172 heartbeat IPC: 1.00059 cumulative IPC: 1.05137 (Simulation time: 0 hr 18 min 54 sec) 
Heartbeat CPU 0 instructions: 30000000 cycles: 28562056 heartbeat IPC: 1.02157 cumulative IPC: 1.05034 (Simulation time: 0 hr 19 min 33 sec) 
Heartbeat CPU 0 instructions: 31000000 cycles: 29476451 heartbeat IPC: 1.09362 cumulative IPC: 1.05169 (Simulation time: 0 hr 20 min 12 sec) 
Heartbeat CPU 0 instructions: 32000000 cycles: 30387155 heartbeat IPC: 1.09805 cumulative IPC: 1.05308 (Simulation time: 0 hr 20 min 49 sec) 
Heartbeat CPU 0 instructions: 33000002 cycles: 31312872 heartbeat IPC: 1.08025 cumulative IPC: 1.05388 (Simulation time: 0 hr 21 min 28 sec) 
Heartbeat CPU 0 instructions: 34000002 cycles: 32279386 heartbeat IPC: 1.03465 cumulative IPC: 1.0533 (Simulation time: 0 hr 22 min 7 sec) 
Heartbeat CPU 0 instructions: 35000002 cycles: 33244050 heartbeat IPC: 1.03663 cumulative IPC: 1.05282 (Simulation time: 0 hr 22 min 55 sec) 
Heartbeat CPU 0 instructions: 36000000 cycles: 34239322 heartbeat IPC: 1.00475 cumulative IPC: 1.05142 (Simulation time: 0 hr 23 min 37 sec) 
Heartbeat CPU 0 instructions: 37000000 cycles: 35205869 heartbeat IPC: 1.03461 cumulative IPC: 1.05096 (Simulation time: 0 hr 24 min 18 sec) 
Heartbeat CPU 0 instructions: 38000002 cycles: 36155161 heartbeat IPC: 1.05342 cumulative IPC: 1.05103 (Simulation time: 0 hr 24 min 59 sec) 
Heartbeat CPU 0 instructions: 39000000 cycles: 37066141 heartbeat IPC: 1.09772 cumulative IPC: 1.05217 (Simulation time: 0 hr 25 min 36 sec) 
Heartbeat CPU 0 instructions: 40000000 cycles: 38010461 heartbeat IPC: 1.05896 cumulative IPC: 1.05234 (Simulation time: 0 hr 26 min 16 sec) 
Heartbeat CPU 0 instructions: 41000001 cycles: 38985294 heartbeat IPC: 1.02582 cumulative IPC: 1.05168 (Simulation time: 0 hr 26 min 57 sec) 
Heartbeat CPU 0 instructions: 42000003 cycles: 39974546 heartbeat IPC: 1.01087 cumulative IPC: 1.05067 (Simulation time: 0 hr 27 min 36 sec) 
Heartbeat CPU 0 instructions: 43000001 cycles: 40938705 heartbeat IPC: 1.03717 cumulative IPC: 1.05035 (Simulation time: 0 hr 28 min 18 sec) 
Heartbeat CPU 0 instructions: 44000000 cycles: 41869467 heartbeat IPC: 1.07439 cumulative IPC: 1.05089 (Simulation time: 0 hr 28 min 56 sec) 
Heartbeat CPU 0 instructions: 45000000 cycles: 42778766 heartbeat IPC: 1.09975 cumulative IPC: 1.05192 (Simulation time: 0 hr 29 min 31 sec) 
Heartbeat CPU 0 instructions: 46000001 cycles: 43731189 heartbeat IPC: 1.04995 cumulative IPC: 1.05188 (Simulation time: 0 hr 30 min 7 sec) 
Heartbeat CPU 0 instructions: 47000001 cycles: 44686071 heartbeat IPC: 1.04725 cumulative IPC: 1.05178 (Simulation time: 0 hr 30 min 48 sec) 
Heartbeat CPU 0 instructions: 48000000 cycles: 45666151 heartbeat IPC: 1.02032 cumulative IPC: 1.05111 (Simulation time: 0 hr 31 min 26 sec) 
Heartbeat CPU 0 instructions: 49000002 cycles: 46667610 heartbeat IPC: 0.998545 cumulative IPC: 1.04998 (Simulation time: 0 hr 32 min 4 sec) 
Heartbeat CPU 0 instructions: 50000000 cycles: 47652575 heartbeat IPC: 1.01526 cumulative IPC: 1.04926 (Simulation time: 0 hr 32 min 43 sec) 

Warmup complete CPU 0 instructions: 50000001 cycles: 47652577 (Simulation time: 0 hr 32 min 43 sec) 

Heartbeat CPU 0 instructions: 51000000 cycles: 49006111 heartbeat IPC: 0.738806 cumulative IPC: 0.738806 (Simulation time: 0 hr 33 min 21 sec) 
Heartbeat CPU 0 instructions: 52000000 cycles: 50397136 heartbeat IPC: 0.718894 cumulative IPC: 0.728714 (Simulation time: 0 hr 33 min 59 sec) 
Heartbeat CPU 0 instructions: 53000001 cycles: 51734213 heartbeat IPC: 0.747901 cumulative IPC: 0.734999 (Simulation time: 0 hr 34 min 36 sec) 
Heartbeat CPU 0 instructions: 54000000 cycles: 53049768 heartbeat IPC: 0.760135 cumulative IPC: 0.741126 (Simulation time: 0 hr 35 min 15 sec) 
Heartbeat CPU 0 instructions: 55000001 cycles: 54355803 heartbeat IPC: 0.765677 cumulative IPC: 0.74591 (Simulation time: 0 hr 35 min 56 sec) 
Heartbeat CPU 0 instructions: 56000000 cycles: 55679916 heartbeat IPC: 0.755222 cumulative IPC: 0.747446 (Simulation time: 0 hr 36 min 32 sec) 
Heartbeat CPU 0 instructions: 57000001 cycles: 57012580 heartbeat IPC: 0.750377 cumulative IPC: 0.747863 (Simulation time: 0 hr 37 min 8 sec) 
Heartbeat CPU 0 instructions: 58000000 cycles: 58386621 heartbeat IPC: 0.72778 cumulative IPC: 0.745292 (Simulation time: 0 hr 37 min 49 sec) 
Heartbeat CPU 0 instructions: 59000000 cycles: 59781120 heartbeat IPC: 0.717103 cumulative IPC: 0.742051 (Simulation time: 0 hr 38 min 27 sec) 
Heartbeat CPU 0 instructions: 60000000 cycles: 61157399 heartbeat IPC: 0.726597 cumulative IPC: 0.740476 (Simulation time: 0 hr 39 min 7 sec) 
Heartbeat CPU 0 instructions: 61000000 cycles: 62488460 heartbeat IPC: 0.75128 cumulative IPC: 0.741446 (Simulation time: 0 hr 39 min 46 sec) 
Heartbeat CPU 0 instructions: 62000002 cycles: 63849738 heartbeat IPC: 0.734605 cumulative IPC: 0.740871 (Simulation time: 0 hr 40 min 25 sec) 
Heartbeat CPU 0 instructions: 63000003 cycles: 65165358 heartbeat IPC: 0.760099 cumulative IPC: 0.742315 (Simulation time: 0 hr 41 min 5 sec) 
Heartbeat CPU 0 instructions: 64000000 cycles: 66484783 heartbeat IPC: 0.757904 cumulative IPC: 0.743407 (Simulation time: 0 hr 41 min 42 sec) 
Heartbeat CPU 0 instructions: 65000000 cycles: 67827772 heartbeat IPC: 0.744608 cumulative IPC: 0.743487 (Simulation time: 0 hr 42 min 20 sec) 
Heartbeat CPU 0 instructions: 66000002 cycles: 69217608 heartbeat IPC: 0.719511 cumulative IPC: 0.741942 (Simulation time: 0 hr 43 min 1 sec) 
Heartbeat CPU 0 instructions: 67000002 cycles: 70605296 heartbeat IPC: 0.720623 cumulative IPC: 0.740653 (Simulation time: 0 hr 43 min 39 sec) 
Heartbeat CPU 0 instructions: 68000000 cycles: 71955567 heartbeat IPC: 0.740591 cumulative IPC: 0.74065 (Simulation time: 0 hr 44 min 19 sec) 
Heartbeat CPU 0 instructions: 69000000 cycles: 73283558 heartbeat IPC: 0.753017 cumulative IPC: 0.74129 (Simulation time: 0 hr 44 min 55 sec) 
Heartbeat CPU 0 instructions: 70000000 cycles: 74609709 heartbeat IPC: 0.754062 cumulative IPC: 0.741919 (Simulation time: 0 hr 45 min 36 sec) 
Heartbeat CPU 0 instructions: 71000003 cycles: 75952061 heartbeat IPC: 0.744963 cumulative IPC: 0.742063 (Simulation time: 0 hr 46 min 16 sec) 
Heartbeat CPU 0 instructions: 72000000 cycles: 77288541 heartbeat IPC: 0.748232 cumulative IPC: 0.742341 (Simulation time: 0 hr 46 min 53 sec) 
Heartbeat CPU 0 instructions: 73000003 cycles: 78654331 heartbeat IPC: 0.732179 cumulative IPC: 0.741894 (Simulation time: 0 hr 47 min 31 sec) 
Heartbeat CPU 0 instructions: 74000001 cycles: 80051594 heartbeat IPC: 0.715683 cumulative IPC: 0.740763 (Simulation time: 0 hr 48 min 10 sec) 
Heartbeat CPU 0 instructions: 75000003 cycles: 81424102 heartbeat IPC: 0.728595 cumulative IPC: 0.740269 (Simulation time: 0 hr 48 min 50 sec) 
Heartbeat CPU 0 instructions: 76000000 cycles: 82766333 heartbeat IPC: 0.745026 cumulative IPC: 0.740451 (Simulation time: 0 hr 49 min 32 sec) 
Heartbeat CPU 0 instructions: 77000003 cycles: 84100405 heartbeat IPC: 0.749587 cumulative IPC: 0.740785 (Simulation time: 0 hr 50 min 11 sec) 
Heartbeat CPU 0 instructions: 78000001 cycles: 85432588 heartbeat IPC: 0.750646 cumulative IPC: 0.741133 (Simulation time: 0 hr 50 min 49 sec) 
Heartbeat CPU 0 instructions: 79000000 cycles: 86788323 heartbeat IPC: 0.737607 cumulative IPC: 0.74101 (Simulation time: 0 hr 51 min 26 sec) 
Heartbeat CPU 0 instructions: 80000000 cycles: 88134633 heartbeat IPC: 0.742771 cumulative IPC: 0.741069 (Simulation time: 0 hr 52 min 2 sec) 
Heartbeat CPU 0 instructions: 81000002 cycles: 89511184 heartbeat IPC: 0.726455 cumulative IPC: 0.740588 (Simulation time: 0 hr 52 min 40 sec) 
Heartbeat CPU 0 instructions: 82000000 cycles: 90881135 heartbeat IPC: 0.729952 cumulative IPC: 0.740251 (Simulation time: 0 hr 53 min 20 sec) 
Heartbeat CPU 0 instructions: 83000003 cycles: 92212514 heartbeat IPC: 0.751103 cumulative IPC: 0.740576 (Simulation time: 0 hr 54 min 3 sec) 
Heartbeat CPU 0 instructions: 84000000 cycles: 93554662 heartbeat IPC: 0.745072 cumulative IPC: 0.740707 (Simulation time: 0 hr 54 min 41 sec) 
Heartbeat CPU 0 instructions: 85000002 cycles: 94867839 heartbeat IPC: 0.761513 cumulative IPC: 0.741286 (Simulation time: 0 hr 55 min 21 sec) 
Heartbeat CPU 0 instructions: 86000003 cycles: 96169909 heartbeat IPC: 0.768009 cumulative IPC: 0.742003 (Simulation time: 0 hr 55 min 59 sec) 
Heartbeat CPU 0 instructions: 87000000 cycles: 97550398 heartbeat IPC: 0.724379 cumulative IPC: 0.741515 (Simulation time: 0 hr 56 min 35 sec) 
Heartbeat CPU 0 instructions: 88000000 cycles: 98900352 heartbeat IPC: 0.740766 cumulative IPC: 0.741496 (Simulation time: 0 hr 57 min 13 sec) 
Heartbeat CPU 0 instructions: 89000000 cycles: 100259408 heartbeat IPC: 0.735805 cumulative IPC: 0.741349 (Simulation time: 0 hr 57 min 54 sec) 
Heartbeat CPU 0 instructions: 90000000 cycles: 101576463 heartbeat IPC: 0.75927 cumulative IPC: 0.741786 (Simulation time: 0 hr 58 min 31 sec) 
Heartbeat CPU 0 instructions: 91000001 cycles: 102882684 heartbeat IPC: 0.765568 cumulative IPC: 0.742349 (Simulation time: 0 hr 59 min 14 sec) 
Heartbeat CPU 0 instructions: 92000000 cycles: 104199772 heartbeat IPC: 0.75925 cumulative IPC: 0.742742 (Simulation time: 0 hr 59 min 51 sec) 
Heartbeat CPU 0 instructions: 93000003 cycles: 105582373 heartbeat IPC: 0.723277 cumulative IPC: 0.742278 (Simulation time: 1 hr 0 min 28 sec) 
Heartbeat CPU 0 instructions: 94000000 cycles: 106924754 heartbeat IPC: 0.744943 cumulative IPC: 0.742338 (Simulation time: 1 hr 1 min 10 sec) 
Heartbeat CPU 0 instructions: 95000000 cycles: 108274543 heartbeat IPC: 0.740857 cumulative IPC: 0.742305 (Simulation time: 1 hr 1 min 49 sec) 
Heartbeat CPU 0 instructions: 96000000 cycles: 109608261 heartbeat IPC: 0.749784 cumulative IPC: 0.742466 (Simulation time: 1 hr 2 min 29 sec) 
Heartbeat CPU 0 instructions: 97000000 cycles: 110918817 heartbeat IPC: 0.763035 cumulative IPC: 0.742892 (Simulation time: 1 hr 3 min 9 sec) 
Heartbeat CPU 0 instructions: 98000003 cycles: 112228501 heartbeat IPC: 0.763545 cumulative IPC: 0.743311 (Simulation time: 1 hr 3 min 47 sec) 
Heartbeat CPU 0 instructions: 99000000 cycles: 113615653 heartbeat IPC: 0.720899 cumulative IPC: 0.74284 (Simulation time: 1 hr 4 min 23 sec) 
Heartbeat CPU 0 instructions: 100000000 cycles: 114957521 heartbeat IPC: 0.74523 cumulative IPC: 0.742887 (Simulation time: 1 hr 4 min 59 sec) 
Heartbeat CPU 0 instructions: 101000000 cycles: 116303651 heartbeat IPC: 0.74287 cumulative IPC: 0.742887 (Simulation time: 1 hr 5 min 36 sec) 
Heartbeat CPU 0 instructions: 102000001 cycles: 117618282 heartbeat IPC: 0.76067 cumulative IPC: 0.743221 (Simulation time: 1 hr 6 min 14 sec) 
Heartbeat CPU 0 instructions: 103000001 cycles: 118920747 heartbeat IPC: 0.767775 cumulative IPC: 0.74367 (Simulation time: 1 hr 6 min 53 sec) 
Heartbeat CPU 0 instructions: 104000000 cycles: 120224034 heartbeat IPC: 0.76729 cumulative IPC: 0.744094 (Simulation time: 1 hr 7 min 27 sec) 
Heartbeat CPU 0 instructions: 105000002 cycles: 121603309 heartbeat IPC: 0.72502 cumulative IPC: 0.743738 (Simulation time: 1 hr 8 min 4 sec) 
Heartbeat CPU 0 instructions: 106000000 cycles: 123007486 heartbeat IPC: 0.71216 cumulative IPC: 0.74315 (Simulation time: 1 hr 8 min 39 sec) 
Heartbeat CPU 0 instructions: 107000002 cycles: 124397161 heartbeat IPC: 0.719594 cumulative IPC: 0.742723 (Simulation time: 1 hr 9 min 20 sec) 
Heartbeat CPU 0 instructions: 108000000 cycles: 125753473 heartbeat IPC: 0.737292 cumulative IPC: 0.742629 (Simulation time: 1 hr 9 min 59 sec) 
Heartbeat CPU 0 instructions: 109000000 cycles: 127089915 heartbeat IPC: 0.748255 cumulative IPC: 0.742724 (Simulation time: 1 hr 10 min 33 sec) 
Heartbeat CPU 0 instructions: 110000000 cycles: 128419343 heartbeat IPC: 0.752203 cumulative IPC: 0.74288 (Simulation time: 1 hr 11 min 5 sec) 
Heartbeat CPU 0 instructions: 111000000 cycles: 129756320 heartbeat IPC: 0.747956 cumulative IPC: 0.742962 (Simulation time: 1 hr 11 min 38 sec) 
Heartbeat CPU 0 instructions: 112000000 cycles: 131144653 heartbeat IPC: 0.720288 cumulative IPC: 0.742585 (Simulation time: 1 hr 12 min 10 sec) 
Heartbeat CPU 0 instructions: 113000000 cycles: 132517304 heartbeat IPC: 0.728517 cumulative IPC: 0.742358 (Simulation time: 1 hr 12 min 41 sec) 
Heartbeat CPU 0 instructions: 114000001 cycles: 133845931 heartbeat IPC: 0.752657 cumulative IPC: 0.742517 (Simulation time: 1 hr 13 min 12 sec) 
Heartbeat CPU 0 instructions: 115000000 cycles: 135204803 heartbeat IPC: 0.735904 cumulative IPC: 0.742414 (Simulation time: 1 hr 13 min 42 sec) 
Heartbeat CPU 0 instructions: 116000000 cycles: 136522880 heartbeat IPC: 0.758681 cumulative IPC: 0.742655 (Simulation time: 1 hr 14 min 17 sec) 
Heartbeat CPU 0 instructions: 117000000 cycles: 137829632 heartbeat IPC: 0.765256 cumulative IPC: 0.742983 (Simulation time: 1 hr 14 min 48 sec) 
Heartbeat CPU 0 instructions: 118000002 cycles: 139198238 heartbeat IPC: 0.730672 cumulative IPC: 0.742799 (Simulation time: 1 hr 15 min 20 sec) 
Heartbeat CPU 0 instructions: 119000000 cycles: 140602496 heartbeat IPC: 0.712118 cumulative IPC: 0.742335 (Simulation time: 1 hr 15 min 48 sec) 
Heartbeat CPU 0 instructions: 120000000 cycles: 142032411 heartbeat IPC: 0.699342 cumulative IPC: 0.741684 (Simulation time: 1 hr 16 min 16 sec) 
Heartbeat CPU 0 instructions: 121000000 cycles: 143387452 heartbeat IPC: 0.737985 cumulative IPC: 0.741632 (Simulation time: 1 hr 16 min 44 sec) 
Heartbeat CPU 0 instructions: 122000003 cycles: 144721485 heartbeat IPC: 0.749609 cumulative IPC: 0.741741 (Simulation time: 1 hr 17 min 12 sec) 
Heartbeat CPU 0 instructions: 123000003 cycles: 146049379 heartbeat IPC: 0.753072 cumulative IPC: 0.741894 (Simulation time: 1 hr 17 min 39 sec) 
Heartbeat CPU 0 instructions: 124000000 cycles: 147388796 heartbeat IPC: 0.746591 cumulative IPC: 0.741957 (Simulation time: 1 hr 18 min 6 sec) 
Heartbeat CPU 0 instructions: 125000001 cycles: 148777411 heartbeat IPC: 0.720143 cumulative IPC: 0.741658 (Simulation time: 1 hr 18 min 29 sec) 
Heartbeat CPU 0 instructions: 126000000 cycles: 150107333 heartbeat IPC: 0.751923 cumulative IPC: 0.741791 (Simulation time: 1 hr 18 min 52 sec) 
Heartbeat CPU 0 instructions: 127000003 cycles: 151447233 heartbeat IPC: 0.746327 cumulative IPC: 0.741849 (Simulation time: 1 hr 19 min 14 sec) 
Heartbeat CPU 0 instructions: 128000000 cycles: 152761514 heartbeat IPC: 0.76087 cumulative IPC: 0.742087 (Simulation time: 1 hr 19 min 35 sec) 
Heartbeat CPU 0 instructions: 129000003 cycles: 154063531 heartbeat IPC: 0.768041 cumulative IPC: 0.742405 (Simulation time: 1 hr 19 min 59 sec) 
Heartbeat CPU 0 instructions: 130000000 cycles: 155361374 heartbeat IPC: 0.770507 cumulative IPC: 0.742743 (Simulation time: 1 hr 20 min 21 sec) 
Heartbeat CPU 0 instructions: 131000000 cycles: 156737644 heartbeat IPC: 0.726602 cumulative IPC: 0.74254 (Simulation time: 1 hr 20 min 41 sec) 
Heartbeat CPU 0 instructions: 132000000 cycles: 158135517 heartbeat IPC: 0.715373 cumulative IPC: 0.742196 (Simulation time: 1 hr 21 min 0 sec) 
Heartbeat CPU 0 instructions: 133000003 cycles: 159512922 heartbeat IPC: 0.726005 cumulative IPC: 0.741997 (Simulation time: 1 hr 21 min 21 sec) 
Heartbeat CPU 0 instructions: 134000000 cycles: 160860932 heartbeat IPC: 0.741832 cumulative IPC: 0.741995 (Simulation time: 1 hr 21 min 41 sec) 
Heartbeat CPU 0 instructions: 135000002 cycles: 162181135 heartbeat IPC: 0.757461 cumulative IPC: 0.742173 (Simulation time: 1 hr 22 min 1 sec) 
Heartbeat CPU 0 instructions: 136000000 cycles: 163487930 heartbeat IPC: 0.765229 cumulative IPC: 0.742433 (Simulation time: 1 hr 22 min 20 sec) 
Heartbeat CPU 0 instructions: 137000003 cycles: 164822385 heartbeat IPC: 0.749372 cumulative IPC: 0.742512 (Simulation time: 1 hr 22 min 37 sec) 
Heartbeat CPU 0 instructions: 138000003 cycles: 166174009 heartbeat IPC: 0.739851 cumulative IPC: 0.742482 (Simulation time: 1 hr 22 min 55 sec) 
Heartbeat CPU 0 instructions: 139000000 cycles: 167562736 heartbeat IPC: 0.720082 cumulative IPC: 0.742222 (Simulation time: 1 hr 23 min 12 sec) 
Heartbeat CPU 0 instructions: 140000000 cycles: 168887743 heartbeat IPC: 0.754713 cumulative IPC: 0.742359 (Simulation time: 1 hr 23 min 30 sec) 
Heartbeat CPU 0 instructions: 141000001 cycles: 170209792 heartbeat IPC: 0.756402 cumulative IPC: 0.74251 (Simulation time: 1 hr 23 min 48 sec) 
Heartbeat CPU 0 instructions: 142000000 cycles: 171511160 heartbeat IPC: 0.768421 cumulative IPC: 0.742783 (Simulation time: 1 hr 24 min 6 sec) 
Heartbeat CPU 0 instructions: 143000003 cycles: 172836420 heartbeat IPC: 0.754571 cumulative IPC: 0.742907 (Simulation time: 1 hr 24 min 23 sec) 
Heartbeat CPU 0 instructions: 144000000 cycles: 174181116 heartbeat IPC: 0.74366 cumulative IPC: 0.742915 (Simulation time: 1 hr 24 min 39 sec) 
Heartbeat CPU 0 instructions: 145000001 cycles: 175571668 heartbeat IPC: 0.71914 cumulative IPC: 0.742657 (Simulation time: 1 hr 24 min 55 sec) 
Heartbeat CPU 0 instructions: 146000000 cycles: 176978589 heartbeat IPC: 0.710771 cumulative IPC: 0.74231 (Simulation time: 1 hr 25 min 9 sec) 
Heartbeat CPU 0 instructions: 147000001 cycles: 178337500 heartbeat IPC: 0.735884 cumulative IPC: 0.742243 (Simulation time: 1 hr 25 min 25 sec) 
Heartbeat CPU 0 instructions: 148000000 cycles: 179663093 heartbeat IPC: 0.754379 cumulative IPC: 0.742365 (Simulation time: 1 hr 25 min 40 sec) 
Heartbeat CPU 0 instructions: 149000000 cycles: 180978504 heartbeat IPC: 0.760219 cumulative IPC: 0.742541 (Simulation time: 1 hr 25 min 56 sec) 
Heartbeat CPU 0 instructions: 150000000 cycles: 182300380 heartbeat IPC: 0.756501 cumulative IPC: 0.742678 (Simulation time: 1 hr 26 min 9 sec) 
Finished CPU 0 instructions: 100000000 cycles: 134647812 cummulative IPC: 0.742678 (Simulation time: 1 hr 26 min 9 sec) 

ChampSim completed all CPUs

Region of Interest Statistics

CPU 0 cummulative IPC: 0.742678 instructions: 100000000 cycles: 134647812
LLC TOTAL     ACCESS:   21168195  HIT:   21092248  MISS:      75947
LLC LOAD      ACCESS:     165331  HIT:     129096  MISS:      36235
LLC RFO       ACCESS:   10374956  HIT:   10369314  MISS:       5642
LLC PREFETCH  ACCESS:     183346  HIT:     149597  MISS:      33749
LLC WRITEBACK ACCESS:   10444562  HIT:   10444241  MISS:        321
OPTgen accesses: 250930
OPTgen hits: 252028
OPTgen hit rate: 100.438


