
*** ChampSim Multicore Out-of-Order Simulator ***

Warmup Instructions: 50000000
Simulation Instructions: 100000000
Configuration: 2
Number of CPUs: 1
LLC sets: 2048
LLC ways: 16
Off-chip DRAM Channels: 1 Width: 64-bit Data Rate: 1600 MT/s

CPU 0 runs /datasets/cs240c-wi22-a00-public/data/Assignment2-gz/mcf_46B.trace.gz
CPU 0 L1D next line prefetcher
CPU 0 L2C IP-based stride prefetcher
Initialize Hawkeye state
Heartbeat CPU 0 instructions: 1000002 cycles: 492244 heartbeat IPC: 2.03152 cumulative IPC: 2.03152 (Simulation time: 0 hr 0 min 41 sec) 
Heartbeat CPU 0 instructions: 2000002 cycles: 987637 heartbeat IPC: 2.0186 cumulative IPC: 2.02504 (Simulation time: 0 hr 1 min 19 sec) 
Heartbeat CPU 0 instructions: 3000003 cycles: 1514660 heartbeat IPC: 1.89745 cumulative IPC: 1.98064 (Simulation time: 0 hr 1 min 58 sec) 
Heartbeat CPU 0 instructions: 4000000 cycles: 2032734 heartbeat IPC: 1.93022 cumulative IPC: 1.96779 (Simulation time: 0 hr 2 min 35 sec) 
Heartbeat CPU 0 instructions: 5000000 cycles: 2526543 heartbeat IPC: 2.02507 cumulative IPC: 1.97899 (Simulation time: 0 hr 3 min 14 sec) 
Heartbeat CPU 0 instructions: 6000003 cycles: 3029554 heartbeat IPC: 1.98803 cumulative IPC: 1.98049 (Simulation time: 0 hr 3 min 50 sec) 
Heartbeat CPU 0 instructions: 7000001 cycles: 3571022 heartbeat IPC: 1.84683 cumulative IPC: 1.96022 (Simulation time: 0 hr 4 min 28 sec) 
Heartbeat CPU 0 instructions: 8000000 cycles: 4061840 heartbeat IPC: 2.03741 cumulative IPC: 1.96955 (Simulation time: 0 hr 5 min 5 sec) 
Heartbeat CPU 0 instructions: 9000001 cycles: 4545531 heartbeat IPC: 2.06744 cumulative IPC: 1.97997 (Simulation time: 0 hr 5 min 41 sec) 
Heartbeat CPU 0 instructions: 10000001 cycles: 5080415 heartbeat IPC: 1.86956 cumulative IPC: 1.96834 (Simulation time: 0 hr 6 min 21 sec) 
Heartbeat CPU 0 instructions: 11000002 cycles: 5626564 heartbeat IPC: 1.831 cumulative IPC: 1.95501 (Simulation time: 0 hr 6 min 58 sec) 
Heartbeat CPU 0 instructions: 12000000 cycles: 6105406 heartbeat IPC: 2.08837 cumulative IPC: 1.96547 (Simulation time: 0 hr 7 min 37 sec) 
Heartbeat CPU 0 instructions: 13000000 cycles: 6600890 heartbeat IPC: 2.01823 cumulative IPC: 1.96943 (Simulation time: 0 hr 8 min 14 sec) 
Heartbeat CPU 0 instructions: 14000003 cycles: 7147015 heartbeat IPC: 1.83109 cumulative IPC: 1.95886 (Simulation time: 0 hr 8 min 51 sec) 
Heartbeat CPU 0 instructions: 15000000 cycles: 7624354 heartbeat IPC: 2.09494 cumulative IPC: 1.96738 (Simulation time: 0 hr 9 min 26 sec) 
Heartbeat CPU 0 instructions: 16000000 cycles: 8101570 heartbeat IPC: 2.09549 cumulative IPC: 1.97493 (Simulation time: 0 hr 10 min 1 sec) 
Heartbeat CPU 0 instructions: 17000002 cycles: 8645034 heartbeat IPC: 1.84005 cumulative IPC: 1.96645 (Simulation time: 0 hr 10 min 39 sec) 
Heartbeat CPU 0 instructions: 18000000 cycles: 9132327 heartbeat IPC: 2.05215 cumulative IPC: 1.97102 (Simulation time: 0 hr 11 min 14 sec) 
Heartbeat CPU 0 instructions: 19000002 cycles: 9620788 heartbeat IPC: 2.04725 cumulative IPC: 1.97489 (Simulation time: 0 hr 11 min 50 sec) 
Heartbeat CPU 0 instructions: 20000000 cycles: 10197987 heartbeat IPC: 1.7325 cumulative IPC: 1.96117 (Simulation time: 0 hr 12 min 27 sec) 
Heartbeat CPU 0 instructions: 21000001 cycles: 10742292 heartbeat IPC: 1.83721 cumulative IPC: 1.95489 (Simulation time: 0 hr 13 min 7 sec) 
Heartbeat CPU 0 instructions: 22000002 cycles: 11220929 heartbeat IPC: 2.08927 cumulative IPC: 1.96062 (Simulation time: 0 hr 13 min 44 sec) 
Heartbeat CPU 0 instructions: 23000000 cycles: 11700992 heartbeat IPC: 2.08306 cumulative IPC: 1.96565 (Simulation time: 0 hr 14 min 21 sec) 
Heartbeat CPU 0 instructions: 24000000 cycles: 12231811 heartbeat IPC: 1.88388 cumulative IPC: 1.9621 (Simulation time: 0 hr 14 min 58 sec) 
Heartbeat CPU 0 instructions: 25000002 cycles: 12731619 heartbeat IPC: 2.00077 cumulative IPC: 1.96362 (Simulation time: 0 hr 15 min 37 sec) 
Heartbeat CPU 0 instructions: 26000000 cycles: 13212616 heartbeat IPC: 2.07901 cumulative IPC: 1.96782 (Simulation time: 0 hr 16 min 14 sec) 
Heartbeat CPU 0 instructions: 27000002 cycles: 13725618 heartbeat IPC: 1.94931 cumulative IPC: 1.96712 (Simulation time: 0 hr 16 min 52 sec) 
Heartbeat CPU 0 instructions: 28000000 cycles: 14242419 heartbeat IPC: 1.93498 cumulative IPC: 1.96596 (Simulation time: 0 hr 17 min 29 sec) 
Heartbeat CPU 0 instructions: 29000001 cycles: 14721176 heartbeat IPC: 2.08874 cumulative IPC: 1.96995 (Simulation time: 0 hr 18 min 6 sec) 
Heartbeat CPU 0 instructions: 30000000 cycles: 15218163 heartbeat IPC: 2.01212 cumulative IPC: 1.97133 (Simulation time: 0 hr 18 min 48 sec) 
Heartbeat CPU 0 instructions: 31000002 cycles: 15750405 heartbeat IPC: 1.87885 cumulative IPC: 1.9682 (Simulation time: 0 hr 19 min 28 sec) 
Heartbeat CPU 0 instructions: 32000000 cycles: 16230028 heartbeat IPC: 2.08497 cumulative IPC: 1.97165 (Simulation time: 0 hr 20 min 4 sec) 
Heartbeat CPU 0 instructions: 33000000 cycles: 16735457 heartbeat IPC: 1.97852 cumulative IPC: 1.97186 (Simulation time: 0 hr 20 min 39 sec) 
Heartbeat CPU 0 instructions: 34000000 cycles: 17276592 heartbeat IPC: 1.84797 cumulative IPC: 1.96798 (Simulation time: 0 hr 21 min 17 sec) 
Heartbeat CPU 0 instructions: 35000001 cycles: 17765822 heartbeat IPC: 2.04403 cumulative IPC: 1.97008 (Simulation time: 0 hr 21 min 57 sec) 
Heartbeat CPU 0 instructions: 36000000 cycles: 18271603 heartbeat IPC: 1.97714 cumulative IPC: 1.97027 (Simulation time: 0 hr 22 min 36 sec) 
Heartbeat CPU 0 instructions: 37000002 cycles: 18788098 heartbeat IPC: 1.93613 cumulative IPC: 1.96933 (Simulation time: 0 hr 23 min 15 sec) 
Heartbeat CPU 0 instructions: 38000001 cycles: 19301813 heartbeat IPC: 1.9466 cumulative IPC: 1.96873 (Simulation time: 0 hr 23 min 54 sec) 
Heartbeat CPU 0 instructions: 39000000 cycles: 19779401 heartbeat IPC: 2.09385 cumulative IPC: 1.97175 (Simulation time: 0 hr 24 min 31 sec) 
Heartbeat CPU 0 instructions: 40000000 cycles: 20268547 heartbeat IPC: 2.04438 cumulative IPC: 1.9735 (Simulation time: 0 hr 25 min 10 sec) 
Heartbeat CPU 0 instructions: 41000000 cycles: 20807413 heartbeat IPC: 1.85575 cumulative IPC: 1.97045 (Simulation time: 0 hr 25 min 47 sec) 
Heartbeat CPU 0 instructions: 42000001 cycles: 21291307 heartbeat IPC: 2.06657 cumulative IPC: 1.97264 (Simulation time: 0 hr 26 min 23 sec) 
Heartbeat CPU 0 instructions: 43000000 cycles: 21769057 heartbeat IPC: 2.09314 cumulative IPC: 1.97528 (Simulation time: 0 hr 26 min 58 sec) 
Heartbeat CPU 0 instructions: 44000000 cycles: 22301226 heartbeat IPC: 1.8791 cumulative IPC: 1.97299 (Simulation time: 0 hr 27 min 35 sec) 
Heartbeat CPU 0 instructions: 45000001 cycles: 22795355 heartbeat IPC: 2.02377 cumulative IPC: 1.97409 (Simulation time: 0 hr 28 min 16 sec) 
Heartbeat CPU 0 instructions: 46000001 cycles: 23275537 heartbeat IPC: 2.08254 cumulative IPC: 1.97632 (Simulation time: 0 hr 28 min 52 sec) 
Heartbeat CPU 0 instructions: 47000002 cycles: 23787673 heartbeat IPC: 1.95261 cumulative IPC: 1.97581 (Simulation time: 0 hr 29 min 31 sec) 
Heartbeat CPU 0 instructions: 48000000 cycles: 24307418 heartbeat IPC: 1.92402 cumulative IPC: 1.97471 (Simulation time: 0 hr 30 min 9 sec) 
Heartbeat CPU 0 instructions: 49000000 cycles: 24790785 heartbeat IPC: 2.06882 cumulative IPC: 1.97654 (Simulation time: 0 hr 30 min 44 sec) 
Heartbeat CPU 0 instructions: 50000000 cycles: 25282000 heartbeat IPC: 2.03577 cumulative IPC: 1.97769 (Simulation time: 0 hr 31 min 19 sec) 

Warmup complete CPU 0 instructions: 50000004 cycles: 25282001 (Simulation time: 0 hr 31 min 19 sec) 

Heartbeat CPU 0 instructions: 51000001 cycles: 39592489 heartbeat IPC: 0.0698789 cumulative IPC: 0.0698786 (Simulation time: 0 hr 32 min 28 sec) 
Heartbeat CPU 0 instructions: 52000000 cycles: 44355704 heartbeat IPC: 0.209942 cumulative IPC: 0.104856 (Simulation time: 0 hr 33 min 14 sec) 
Heartbeat CPU 0 instructions: 53000000 cycles: 48588663 heartbeat IPC: 0.236241 cumulative IPC: 0.128718 (Simulation time: 0 hr 33 min 59 sec) 
Heartbeat CPU 0 instructions: 54000002 cycles: 64074487 heartbeat IPC: 0.0645753 cumulative IPC: 0.103113 (Simulation time: 0 hr 35 min 13 sec) 
Heartbeat CPU 0 instructions: 55000002 cycles: 69440468 heartbeat IPC: 0.186359 cumulative IPC: 0.113229 (Simulation time: 0 hr 36 min 6 sec) 
Heartbeat CPU 0 instructions: 56000000 cycles: 73802295 heartbeat IPC: 0.229261 cumulative IPC: 0.12366 (Simulation time: 0 hr 36 min 52 sec) 
Heartbeat CPU 0 instructions: 57000000 cycles: 87065827 heartbeat IPC: 0.0753947 cumulative IPC: 0.113298 (Simulation time: 0 hr 37 min 59 sec) 
Heartbeat CPU 0 instructions: 58000000 cycles: 94650842 heartbeat IPC: 0.131839 cumulative IPC: 0.115325 (Simulation time: 0 hr 38 min 54 sec) 
Heartbeat CPU 0 instructions: 59000002 cycles: 99193493 heartbeat IPC: 0.220136 cumulative IPC: 0.121767 (Simulation time: 0 hr 39 min 40 sec) 
Heartbeat CPU 0 instructions: 60000000 cycles: 110755343 heartbeat IPC: 0.0864912 cumulative IPC: 0.116995 (Simulation time: 0 hr 40 min 45 sec) 
Heartbeat CPU 0 instructions: 61000002 cycles: 120054580 heartbeat IPC: 0.107536 cumulative IPC: 0.116067 (Simulation time: 0 hr 41 min 43 sec) 
Heartbeat CPU 0 instructions: 62000001 cycles: 124301423 heartbeat IPC: 0.235469 cumulative IPC: 0.121188 (Simulation time: 0 hr 42 min 32 sec) 
Heartbeat CPU 0 instructions: 63000001 cycles: 134390864 heartbeat IPC: 0.0991135 cumulative IPC: 0.119147 (Simulation time: 0 hr 43 min 30 sec) 
Heartbeat CPU 0 instructions: 64000000 cycles: 145649920 heartbeat IPC: 0.0888173 cumulative IPC: 0.11631 (Simulation time: 0 hr 44 min 34 sec) 
Heartbeat CPU 0 instructions: 65000002 cycles: 150963109 heartbeat IPC: 0.188211 cumulative IPC: 0.11935 (Simulation time: 0 hr 45 min 20 sec) 
Heartbeat CPU 0 instructions: 66000000 cycles: 157561796 heartbeat IPC: 0.151545 cumulative IPC: 0.120956 (Simulation time: 0 hr 46 min 9 sec) 
Heartbeat CPU 0 instructions: 67000002 cycles: 173130236 heartbeat IPC: 0.0642326 cumulative IPC: 0.114983 (Simulation time: 0 hr 47 min 26 sec) 
Heartbeat CPU 0 instructions: 68000000 cycles: 177817060 heartbeat IPC: 0.213364 cumulative IPC: 0.118006 (Simulation time: 0 hr 48 min 15 sec) 
Heartbeat CPU 0 instructions: 69000000 cycles: 181928712 heartbeat IPC: 0.243211 cumulative IPC: 0.121292 (Simulation time: 0 hr 48 min 59 sec) 
Heartbeat CPU 0 instructions: 70000001 cycles: 195965377 heartbeat IPC: 0.0712421 cumulative IPC: 0.117176 (Simulation time: 0 hr 50 min 8 sec) 
Heartbeat CPU 0 instructions: 71000002 cycles: 204709128 heartbeat IPC: 0.114368 cumulative IPC: 0.117039 (Simulation time: 0 hr 51 min 7 sec) 
Heartbeat CPU 0 instructions: 72000000 cycles: 209617531 heartbeat IPC: 0.203732 cumulative IPC: 0.119348 (Simulation time: 0 hr 51 min 56 sec) 
Heartbeat CPU 0 instructions: 73000002 cycles: 218715007 heartbeat IPC: 0.109921 cumulative IPC: 0.118904 (Simulation time: 0 hr 52 min 55 sec) 
Heartbeat CPU 0 instructions: 74000001 cycles: 230511815 heartbeat IPC: 0.0847686 cumulative IPC: 0.116942 (Simulation time: 0 hr 54 min 4 sec) 
Heartbeat CPU 0 instructions: 75000001 cycles: 235176126 heartbeat IPC: 0.214394 cumulative IPC: 0.119108 (Simulation time: 0 hr 54 min 50 sec) 
Heartbeat CPU 0 instructions: 76000000 cycles: 241241310 heartbeat IPC: 0.164875 cumulative IPC: 0.120393 (Simulation time: 0 hr 55 min 40 sec) 
Heartbeat CPU 0 instructions: 77000001 cycles: 257311476 heartbeat IPC: 0.0622272 cumulative IPC: 0.116365 (Simulation time: 0 hr 56 min 57 sec) 
Heartbeat CPU 0 instructions: 78000002 cycles: 262446072 heartbeat IPC: 0.194757 cumulative IPC: 0.118062 (Simulation time: 0 hr 57 min 47 sec) 
Heartbeat CPU 0 instructions: 79000001 cycles: 266878487 heartbeat IPC: 0.22561 cumulative IPC: 0.120035 (Simulation time: 0 hr 58 min 34 sec) 
Heartbeat CPU 0 instructions: 80000000 cycles: 279972661 heartbeat IPC: 0.0763698 cumulative IPC: 0.11779 (Simulation time: 0 hr 59 min 45 sec) 
Heartbeat CPU 0 instructions: 81000000 cycles: 287469499 heartbeat IPC: 0.13339 cumulative IPC: 0.118236 (Simulation time: 1 hr 0 min 39 sec) 
Heartbeat CPU 0 instructions: 82000000 cycles: 292333977 heartbeat IPC: 0.205572 cumulative IPC: 0.119827 (Simulation time: 1 hr 1 min 26 sec) 
Heartbeat CPU 0 instructions: 83000001 cycles: 302186550 heartbeat IPC: 0.101496 cumulative IPC: 0.119175 (Simulation time: 1 hr 2 min 30 sec) 
Heartbeat CPU 0 instructions: 84000000 cycles: 313398939 heartbeat IPC: 0.089187 cumulative IPC: 0.118008 (Simulation time: 1 hr 3 min 30 sec) 
Heartbeat CPU 0 instructions: 85000001 cycles: 317742406 heartbeat IPC: 0.230231 cumulative IPC: 0.119674 (Simulation time: 1 hr 4 min 14 sec) 
Heartbeat CPU 0 instructions: 86000000 cycles: 325716031 heartbeat IPC: 0.125413 cumulative IPC: 0.119827 (Simulation time: 1 hr 5 min 8 sec) 
Heartbeat CPU 0 instructions: 87000000 cycles: 340052272 heartbeat IPC: 0.0697533 cumulative IPC: 0.117546 (Simulation time: 1 hr 6 min 20 sec) 
Heartbeat CPU 0 instructions: 88000000 cycles: 346298497 heartbeat IPC: 0.160097 cumulative IPC: 0.118374 (Simulation time: 1 hr 7 min 11 sec) 
Heartbeat CPU 0 instructions: 89000000 cycles: 350531554 heartbeat IPC: 0.236236 cumulative IPC: 0.119908 (Simulation time: 1 hr 7 min 55 sec) 
Heartbeat CPU 0 instructions: 90000003 cycles: 362250713 heartbeat IPC: 0.0853306 cumulative IPC: 0.118705 (Simulation time: 1 hr 8 min 53 sec) 
Heartbeat CPU 0 instructions: 91000000 cycles: 371042797 heartbeat IPC: 0.113738 cumulative IPC: 0.118579 (Simulation time: 1 hr 9 min 48 sec) 
Heartbeat CPU 0 instructions: 92000000 cycles: 375337455 heartbeat IPC: 0.232847 cumulative IPC: 0.119981 (Simulation time: 1 hr 10 min 29 sec) 
Heartbeat CPU 0 instructions: 93000002 cycles: 384387438 heartbeat IPC: 0.110498 cumulative IPC: 0.119742 (Simulation time: 1 hr 11 min 18 sec) 
Heartbeat CPU 0 instructions: 94000002 cycles: 395864739 heartbeat IPC: 0.0871285 cumulative IPC: 0.118732 (Simulation time: 1 hr 12 min 17 sec) 
Heartbeat CPU 0 instructions: 95000000 cycles: 401754081 heartbeat IPC: 0.169798 cumulative IPC: 0.119531 (Simulation time: 1 hr 13 min 5 sec) 
Heartbeat CPU 0 instructions: 96000000 cycles: 407362728 heartbeat IPC: 0.178296 cumulative IPC: 0.120393 (Simulation time: 1 hr 13 min 44 sec) 
Heartbeat CPU 0 instructions: 97000000 cycles: 422410008 heartbeat IPC: 0.0664572 cumulative IPC: 0.11835 (Simulation time: 1 hr 14 min 47 sec) 
Heartbeat CPU 0 instructions: 98000002 cycles: 427257549 heartbeat IPC: 0.206291 cumulative IPC: 0.11941 (Simulation time: 1 hr 15 min 28 sec) 
Heartbeat CPU 0 instructions: 99000002 cycles: 432124122 heartbeat IPC: 0.205483 cumulative IPC: 0.12044 (Simulation time: 1 hr 16 min 6 sec) 
Heartbeat CPU 0 instructions: 100000000 cycles: 446052797 heartbeat IPC: 0.0717942 cumulative IPC: 0.11883 (Simulation time: 1 hr 17 min 1 sec) 
Heartbeat CPU 0 instructions: 101000000 cycles: 452934028 heartbeat IPC: 0.145323 cumulative IPC: 0.119256 (Simulation time: 1 hr 17 min 43 sec) 
Heartbeat CPU 0 instructions: 102000003 cycles: 457210705 heartbeat IPC: 0.233827 cumulative IPC: 0.12039 (Simulation time: 1 hr 18 min 17 sec) 
Heartbeat CPU 0 instructions: 103000003 cycles: 469110071 heartbeat IPC: 0.0840381 cumulative IPC: 0.119416 (Simulation time: 1 hr 18 min 58 sec) 
Heartbeat CPU 0 instructions: 104000000 cycles: 480437571 heartbeat IPC: 0.0882805 cumulative IPC: 0.118641 (Simulation time: 1 hr 19 min 39 sec) 
Heartbeat CPU 0 instructions: 105000000 cycles: 485229214 heartbeat IPC: 0.208697 cumulative IPC: 0.119579 (Simulation time: 1 hr 20 min 9 sec) 
Heartbeat CPU 0 instructions: 106000000 cycles: 489427759 heartbeat IPC: 0.238178 cumulative IPC: 0.120652 (Simulation time: 1 hr 20 min 38 sec) 
Heartbeat CPU 0 instructions: 107000002 cycles: 504645631 heartbeat IPC: 0.0657123 cumulative IPC: 0.118908 (Simulation time: 1 hr 21 min 20 sec) 
Heartbeat CPU 0 instructions: 108000000 cycles: 510102693 heartbeat IPC: 0.183248 cumulative IPC: 0.119632 (Simulation time: 1 hr 21 min 48 sec) 
Heartbeat CPU 0 instructions: 109000001 cycles: 514491902 heartbeat IPC: 0.227832 cumulative IPC: 0.120603 (Simulation time: 1 hr 22 min 14 sec) 
Heartbeat CPU 0 instructions: 110000002 cycles: 524341562 heartbeat IPC: 0.101526 cumulative IPC: 0.120226 (Simulation time: 1 hr 22 min 46 sec) 
Heartbeat CPU 0 instructions: 111000003 cycles: 535206773 heartbeat IPC: 0.092037 cumulative IPC: 0.119625 (Simulation time: 1 hr 23 min 19 sec) 
Heartbeat CPU 0 instructions: 112000000 cycles: 539347446 heartbeat IPC: 0.241506 cumulative IPC: 0.120607 (Simulation time: 1 hr 23 min 41 sec) 
Heartbeat CPU 0 instructions: 113000000 cycles: 546695479 heartbeat IPC: 0.136091 cumulative IPC: 0.120825 (Simulation time: 1 hr 24 min 7 sec) 
Heartbeat CPU 0 instructions: 114000000 cycles: 560259928 heartbeat IPC: 0.0737221 cumulative IPC: 0.119631 (Simulation time: 1 hr 24 min 40 sec) 
Heartbeat CPU 0 instructions: 115000001 cycles: 567931254 heartbeat IPC: 0.130356 cumulative IPC: 0.119783 (Simulation time: 1 hr 25 min 5 sec) 
Heartbeat CPU 0 instructions: 116000000 cycles: 572031429 heartbeat IPC: 0.243892 cumulative IPC: 0.120713 (Simulation time: 1 hr 25 min 24 sec) 
Heartbeat CPU 0 instructions: 117000000 cycles: 582416210 heartbeat IPC: 0.0962948 cumulative IPC: 0.120258 (Simulation time: 1 hr 25 min 50 sec) 
Heartbeat CPU 0 instructions: 118000000 cycles: 592623478 heartbeat IPC: 0.0979694 cumulative IPC: 0.119857 (Simulation time: 1 hr 26 min 15 sec) 
Heartbeat CPU 0 instructions: 119000000 cycles: 596896223 heartbeat IPC: 0.234042 cumulative IPC: 0.120711 (Simulation time: 1 hr 26 min 30 sec) 
Heartbeat CPU 0 instructions: 120000000 cycles: 603518899 heartbeat IPC: 0.150996 cumulative IPC: 0.121058 (Simulation time: 1 hr 26 min 48 sec) 
Heartbeat CPU 0 instructions: 121000000 cycles: 617169998 heartbeat IPC: 0.0732542 cumulative IPC: 0.119955 (Simulation time: 1 hr 27 min 16 sec) 
Heartbeat CPU 0 instructions: 122000001 cycles: 621492215 heartbeat IPC: 0.231363 cumulative IPC: 0.120763 (Simulation time: 1 hr 27 min 33 sec) 
Heartbeat CPU 0 instructions: 123000000 cycles: 625760159 heartbeat IPC: 0.234305 cumulative IPC: 0.12157 (Simulation time: 1 hr 27 min 48 sec) 
Heartbeat CPU 0 instructions: 124000000 cycles: 640512471 heartbeat IPC: 0.067786 cumulative IPC: 0.12028 (Simulation time: 1 hr 28 min 11 sec) 
Heartbeat CPU 0 instructions: 125000000 cycles: 646493718 heartbeat IPC: 0.167189 cumulative IPC: 0.120732 (Simulation time: 1 hr 28 min 28 sec) 
Heartbeat CPU 0 instructions: 126000000 cycles: 650683070 heartbeat IPC: 0.2387 cumulative IPC: 0.121522 (Simulation time: 1 hr 28 min 41 sec) 
Heartbeat CPU 0 instructions: 127000002 cycles: 662911942 heartbeat IPC: 0.0817739 cumulative IPC: 0.12076 (Simulation time: 1 hr 28 min 59 sec) 
Heartbeat CPU 0 instructions: 128000000 cycles: 671584513 heartbeat IPC: 0.115306 cumulative IPC: 0.120687 (Simulation time: 1 hr 29 min 14 sec) 
Heartbeat CPU 0 instructions: 129000000 cycles: 675783759 heartbeat IPC: 0.238138 cumulative IPC: 0.121445 (Simulation time: 1 hr 29 min 25 sec) 
Heartbeat CPU 0 instructions: 130000000 cycles: 684555274 heartbeat IPC: 0.114005 cumulative IPC: 0.121346 (Simulation time: 1 hr 29 min 38 sec) 
Heartbeat CPU 0 instructions: 131000000 cycles: 697105396 heartbeat IPC: 0.0796805 cumulative IPC: 0.120567 (Simulation time: 1 hr 29 min 53 sec) 
Heartbeat CPU 0 instructions: 132000000 cycles: 702104384 heartbeat IPC: 0.20004 cumulative IPC: 0.121154 (Simulation time: 1 hr 30 min 4 sec) 
Heartbeat CPU 0 instructions: 133000002 cycles: 706831400 heartbeat IPC: 0.21155 cumulative IPC: 0.121781 (Simulation time: 1 hr 30 min 15 sec) 
Heartbeat CPU 0 instructions: 134000001 cycles: 722155308 heartbeat IPC: 0.0652574 cumulative IPC: 0.120538 (Simulation time: 1 hr 30 min 30 sec) 
Heartbeat CPU 0 instructions: 135000001 cycles: 726872595 heartbeat IPC: 0.211986 cumulative IPC: 0.121153 (Simulation time: 1 hr 30 min 39 sec) 
Heartbeat CPU 0 instructions: 136000000 cycles: 735064968 heartbeat IPC: 0.122065 cumulative IPC: 0.121164 (Simulation time: 1 hr 30 min 50 sec) 
Heartbeat CPU 0 instructions: 137000000 cycles: 745252377 heartbeat IPC: 0.0981604 cumulative IPC: 0.120838 (Simulation time: 1 hr 31 min 1 sec) 
Heartbeat CPU 0 instructions: 138000001 cycles: 755880694 heartbeat IPC: 0.0940884 cumulative IPC: 0.120449 (Simulation time: 1 hr 31 min 11 sec) 
Heartbeat CPU 0 instructions: 139000002 cycles: 760167564 heartbeat IPC: 0.233271 cumulative IPC: 0.121107 (Simulation time: 1 hr 31 min 18 sec) 
Heartbeat CPU 0 instructions: 140000000 cycles: 766404117 heartbeat IPC: 0.160345 cumulative IPC: 0.121437 (Simulation time: 1 hr 31 min 25 sec) 
Heartbeat CPU 0 instructions: 141000002 cycles: 780356235 heartbeat IPC: 0.0716738 cumulative IPC: 0.120518 (Simulation time: 1 hr 31 min 35 sec) 
Heartbeat CPU 0 instructions: 142000002 cycles: 784570620 heartbeat IPC: 0.237283 cumulative IPC: 0.121166 (Simulation time: 1 hr 31 min 40 sec) 
Heartbeat CPU 0 instructions: 143000002 cycles: 788550196 heartbeat IPC: 0.251283 cumulative IPC: 0.121844 (Simulation time: 1 hr 31 min 46 sec) 
Heartbeat CPU 0 instructions: 144000000 cycles: 803444174 heartbeat IPC: 0.0671411 cumulative IPC: 0.120797 (Simulation time: 1 hr 31 min 56 sec) 
Heartbeat CPU 0 instructions: 145000001 cycles: 808872824 heartbeat IPC: 0.184208 cumulative IPC: 0.121237 (Simulation time: 1 hr 32 min 3 sec) 
Heartbeat CPU 0 instructions: 146000001 cycles: 813036362 heartbeat IPC: 0.24018 cumulative IPC: 0.121865 (Simulation time: 1 hr 32 min 9 sec) 
Heartbeat CPU 0 instructions: 147000000 cycles: 825989680 heartbeat IPC: 0.0772002 cumulative IPC: 0.121143 (Simulation time: 1 hr 32 min 18 sec) 
Heartbeat CPU 0 instructions: 148000000 cycles: 833417290 heartbeat IPC: 0.134633 cumulative IPC: 0.121267 (Simulation time: 1 hr 32 min 25 sec) 
Heartbeat CPU 0 instructions: 149000000 cycles: 837652532 heartbeat IPC: 0.236114 cumulative IPC: 0.121866 (Simulation time: 1 hr 32 min 31 sec) 
Heartbeat CPU 0 instructions: 150000000 cycles: 848542802 heartbeat IPC: 0.0918251 cumulative IPC: 0.121468 (Simulation time: 1 hr 32 min 40 sec) 
Finished CPU 0 instructions: 100000000 cycles: 823260981 cummulative IPC: 0.121468 (Simulation time: 1 hr 32 min 40 sec) 

ChampSim completed all CPUs

Region of Interest Statistics

CPU 0 cummulative IPC: 0.121468 instructions: 100000000 cycles: 823260981
LLC TOTAL     ACCESS:   18837963  HIT:    8220033  MISS:   10617930
LLC LOAD      ACCESS:    8518329  HIT:    4324438  MISS:    4193891
LLC RFO       ACCESS:     210572  HIT:      71976  MISS:     138596
LLC PREFETCH  ACCESS:    8013662  HIT:    2570724  MISS:    5442938
LLC WRITEBACK ACCESS:    2095400  HIT:    1252895  MISS:     842505
OPTgen accesses: 201666
OPTgen hits: 134522
OPTgen hit rate: 66.7053


