
*** ChampSim Multicore Out-of-Order Simulator ***

Warmup Instructions: 50000000
Simulation Instructions: 100000000
Configuration: 2
Number of CPUs: 1
LLC sets: 2048
LLC ways: 16
Off-chip DRAM Channels: 1 Width: 64-bit Data Rate: 1600 MT/s

CPU 0 runs /datasets/cs240c-wi22-a00-public/data/Assignment2-gz/sphinx3_2520B.trace.gz
CPU 0 L1D next line prefetcher
CPU 0 L2C IP-based stride prefetcher
Initialize Hawkeye state
Heartbeat CPU 0 instructions: 1000003 cycles: 338965 heartbeat IPC: 2.95017 cumulative IPC: 2.95017 (Simulation time: 0 hr 0 min 29 sec) 
Heartbeat CPU 0 instructions: 2000000 cycles: 737242 heartbeat IPC: 2.51081 cumulative IPC: 2.71281 (Simulation time: 0 hr 0 min 58 sec) 
Heartbeat CPU 0 instructions: 3000003 cycles: 1185235 heartbeat IPC: 2.23218 cumulative IPC: 2.53115 (Simulation time: 0 hr 1 min 24 sec) 
Heartbeat CPU 0 instructions: 4000000 cycles: 1524261 heartbeat IPC: 2.94962 cumulative IPC: 2.62422 (Simulation time: 0 hr 1 min 51 sec) 
Heartbeat CPU 0 instructions: 5000001 cycles: 1902377 heartbeat IPC: 2.64469 cumulative IPC: 2.62829 (Simulation time: 0 hr 2 min 17 sec) 
Heartbeat CPU 0 instructions: 6000001 cycles: 2367796 heartbeat IPC: 2.1486 cumulative IPC: 2.534 (Simulation time: 0 hr 2 min 42 sec) 
Heartbeat CPU 0 instructions: 7000001 cycles: 2706737 heartbeat IPC: 2.95037 cumulative IPC: 2.58614 (Simulation time: 0 hr 3 min 8 sec) 
Heartbeat CPU 0 instructions: 8000000 cycles: 3055748 heartbeat IPC: 2.86524 cumulative IPC: 2.61802 (Simulation time: 0 hr 3 min 34 sec) 
Heartbeat CPU 0 instructions: 9000000 cycles: 3509134 heartbeat IPC: 2.20563 cumulative IPC: 2.56474 (Simulation time: 0 hr 3 min 59 sec) 
Heartbeat CPU 0 instructions: 10000000 cycles: 3859294 heartbeat IPC: 2.85584 cumulative IPC: 2.59115 (Simulation time: 0 hr 4 min 23 sec) 
Heartbeat CPU 0 instructions: 11000003 cycles: 4204072 heartbeat IPC: 2.90043 cumulative IPC: 2.61651 (Simulation time: 0 hr 4 min 51 sec) 
Heartbeat CPU 0 instructions: 12000000 cycles: 4648691 heartbeat IPC: 2.24911 cumulative IPC: 2.58137 (Simulation time: 0 hr 5 min 17 sec) 
Heartbeat CPU 0 instructions: 13000000 cycles: 5008290 heartbeat IPC: 2.78088 cumulative IPC: 2.5957 (Simulation time: 0 hr 5 min 43 sec) 
Heartbeat CPU 0 instructions: 14000002 cycles: 5350991 heartbeat IPC: 2.918 cumulative IPC: 2.61634 (Simulation time: 0 hr 6 min 8 sec) 
Heartbeat CPU 0 instructions: 15000003 cycles: 5790258 heartbeat IPC: 2.27652 cumulative IPC: 2.59056 (Simulation time: 0 hr 6 min 34 sec) 
Heartbeat CPU 0 instructions: 16000000 cycles: 6157115 heartbeat IPC: 2.72585 cumulative IPC: 2.59862 (Simulation time: 0 hr 6 min 59 sec) 
Heartbeat CPU 0 instructions: 17000000 cycles: 6498520 heartbeat IPC: 2.92907 cumulative IPC: 2.61598 (Simulation time: 0 hr 7 min 24 sec) 
Heartbeat CPU 0 instructions: 18000002 cycles: 6932821 heartbeat IPC: 2.30256 cumulative IPC: 2.59635 (Simulation time: 0 hr 7 min 55 sec) 
Heartbeat CPU 0 instructions: 19000000 cycles: 7304150 heartbeat IPC: 2.69302 cumulative IPC: 2.60126 (Simulation time: 0 hr 8 min 23 sec) 
Heartbeat CPU 0 instructions: 20000000 cycles: 7645336 heartbeat IPC: 2.93095 cumulative IPC: 2.61597 (Simulation time: 0 hr 8 min 49 sec) 
Heartbeat CPU 0 instructions: 21000001 cycles: 8089643 heartbeat IPC: 2.2507 cumulative IPC: 2.59591 (Simulation time: 0 hr 9 min 16 sec) 
Heartbeat CPU 0 instructions: 22000002 cycles: 8503735 heartbeat IPC: 2.41492 cumulative IPC: 2.5871 (Simulation time: 0 hr 9 min 45 sec) 
Heartbeat CPU 0 instructions: 23000001 cycles: 8942735 heartbeat IPC: 2.2779 cumulative IPC: 2.57192 (Simulation time: 0 hr 10 min 11 sec) 
Heartbeat CPU 0 instructions: 24000000 cycles: 9281759 heartbeat IPC: 2.94964 cumulative IPC: 2.58572 (Simulation time: 0 hr 10 min 38 sec) 
Heartbeat CPU 0 instructions: 25000003 cycles: 9668475 heartbeat IPC: 2.58588 cumulative IPC: 2.58572 (Simulation time: 0 hr 11 min 3 sec) 
Heartbeat CPU 0 instructions: 26000001 cycles: 10085323 heartbeat IPC: 2.39895 cumulative IPC: 2.578 (Simulation time: 0 hr 11 min 28 sec) 
Heartbeat CPU 0 instructions: 27000003 cycles: 10424297 heartbeat IPC: 2.95008 cumulative IPC: 2.5901 (Simulation time: 0 hr 11 min 53 sec) 
Heartbeat CPU 0 instructions: 28000000 cycles: 10827557 heartbeat IPC: 2.47978 cumulative IPC: 2.58599 (Simulation time: 0 hr 12 min 19 sec) 
Heartbeat CPU 0 instructions: 29000002 cycles: 11228094 heartbeat IPC: 2.49665 cumulative IPC: 2.58281 (Simulation time: 0 hr 12 min 46 sec) 
Heartbeat CPU 0 instructions: 30000002 cycles: 11567031 heartbeat IPC: 2.9504 cumulative IPC: 2.59358 (Simulation time: 0 hr 13 min 13 sec) 
Heartbeat CPU 0 instructions: 31000000 cycles: 11988265 heartbeat IPC: 2.37397 cumulative IPC: 2.58586 (Simulation time: 0 hr 13 min 41 sec) 
Heartbeat CPU 0 instructions: 32000000 cycles: 12369613 heartbeat IPC: 2.62228 cumulative IPC: 2.58698 (Simulation time: 0 hr 14 min 6 sec) 
Heartbeat CPU 0 instructions: 33000002 cycles: 12710370 heartbeat IPC: 2.93465 cumulative IPC: 2.59631 (Simulation time: 0 hr 14 min 32 sec) 
Heartbeat CPU 0 instructions: 34000000 cycles: 13150125 heartbeat IPC: 2.27399 cumulative IPC: 2.58553 (Simulation time: 0 hr 14 min 58 sec) 
Heartbeat CPU 0 instructions: 35000001 cycles: 13511401 heartbeat IPC: 2.76797 cumulative IPC: 2.5904 (Simulation time: 0 hr 15 min 27 sec) 
Heartbeat CPU 0 instructions: 36000000 cycles: 13853739 heartbeat IPC: 2.92109 cumulative IPC: 2.59858 (Simulation time: 0 hr 15 min 53 sec) 
Heartbeat CPU 0 instructions: 37000000 cycles: 14313213 heartbeat IPC: 2.1764 cumulative IPC: 2.58502 (Simulation time: 0 hr 16 min 20 sec) 
Heartbeat CPU 0 instructions: 38000000 cycles: 14653523 heartbeat IPC: 2.9385 cumulative IPC: 2.59323 (Simulation time: 0 hr 16 min 45 sec) 
Heartbeat CPU 0 instructions: 39000003 cycles: 14999831 heartbeat IPC: 2.88761 cumulative IPC: 2.60003 (Simulation time: 0 hr 17 min 11 sec) 
Heartbeat CPU 0 instructions: 40000000 cycles: 15458551 heartbeat IPC: 2.17997 cumulative IPC: 2.58756 (Simulation time: 0 hr 17 min 36 sec) 
Heartbeat CPU 0 instructions: 41000001 cycles: 15797587 heartbeat IPC: 2.94954 cumulative IPC: 2.59533 (Simulation time: 0 hr 18 min 2 sec) 
Heartbeat CPU 0 instructions: 42000003 cycles: 16145551 heartbeat IPC: 2.87387 cumulative IPC: 2.60134 (Simulation time: 0 hr 18 min 29 sec) 
Heartbeat CPU 0 instructions: 43000001 cycles: 16601789 heartbeat IPC: 2.19183 cumulative IPC: 2.59008 (Simulation time: 0 hr 18 min 54 sec) 
Heartbeat CPU 0 instructions: 44000000 cycles: 16940658 heartbeat IPC: 2.95099 cumulative IPC: 2.5973 (Simulation time: 0 hr 19 min 20 sec) 
Heartbeat CPU 0 instructions: 45000001 cycles: 17287741 heartbeat IPC: 2.88116 cumulative IPC: 2.603 (Simulation time: 0 hr 19 min 45 sec) 
Heartbeat CPU 0 instructions: 46000000 cycles: 17745400 heartbeat IPC: 2.18503 cumulative IPC: 2.59222 (Simulation time: 0 hr 20 min 11 sec) 
Heartbeat CPU 0 instructions: 47000003 cycles: 18084383 heartbeat IPC: 2.95001 cumulative IPC: 2.59893 (Simulation time: 0 hr 20 min 35 sec) 
Heartbeat CPU 0 instructions: 48000000 cycles: 18432910 heartbeat IPC: 2.86921 cumulative IPC: 2.60404 (Simulation time: 0 hr 20 min 59 sec) 
Heartbeat CPU 0 instructions: 49000002 cycles: 18887677 heartbeat IPC: 2.19893 cumulative IPC: 2.59428 (Simulation time: 0 hr 21 min 25 sec) 
Heartbeat CPU 0 instructions: 50000001 cycles: 19226658 heartbeat IPC: 2.95001 cumulative IPC: 2.60056 (Simulation time: 0 hr 21 min 51 sec) 

Warmup complete CPU 0 instructions: 50000001 cycles: 19226658 (Simulation time: 0 hr 21 min 51 sec) 

Heartbeat CPU 0 instructions: 51000001 cycles: 20047361 heartbeat IPC: 1.21847 cumulative IPC: 1.21847 (Simulation time: 0 hr 22 min 23 sec) 
Heartbeat CPU 0 instructions: 52000000 cycles: 20829690 heartbeat IPC: 1.27823 cumulative IPC: 1.24764 (Simulation time: 0 hr 22 min 54 sec) 
Heartbeat CPU 0 instructions: 53000001 cycles: 21671437 heartbeat IPC: 1.18801 cumulative IPC: 1.2271 (Simulation time: 0 hr 23 min 25 sec) 
Heartbeat CPU 0 instructions: 54000001 cycles: 22456727 heartbeat IPC: 1.27341 cumulative IPC: 1.23836 (Simulation time: 0 hr 23 min 55 sec) 
Heartbeat CPU 0 instructions: 55000000 cycles: 23233174 heartbeat IPC: 1.28792 cumulative IPC: 1.24797 (Simulation time: 0 hr 24 min 22 sec) 
Heartbeat CPU 0 instructions: 56000000 cycles: 24065143 heartbeat IPC: 1.20197 cumulative IPC: 1.24006 (Simulation time: 0 hr 24 min 52 sec) 
Heartbeat CPU 0 instructions: 57000000 cycles: 24955208 heartbeat IPC: 1.12351 cumulative IPC: 1.22195 (Simulation time: 0 hr 25 min 22 sec) 
Heartbeat CPU 0 instructions: 58000002 cycles: 26083606 heartbeat IPC: 0.886214 cumulative IPC: 1.1667 (Simulation time: 0 hr 25 min 54 sec) 
Heartbeat CPU 0 instructions: 59000001 cycles: 26885215 heartbeat IPC: 1.24749 cumulative IPC: 1.17516 (Simulation time: 0 hr 26 min 21 sec) 
Heartbeat CPU 0 instructions: 60000000 cycles: 27718640 heartbeat IPC: 1.19987 cumulative IPC: 1.17758 (Simulation time: 0 hr 26 min 49 sec) 
Heartbeat CPU 0 instructions: 61000001 cycles: 28499223 heartbeat IPC: 1.2811 cumulative IPC: 1.1863 (Simulation time: 0 hr 27 min 17 sec) 
Heartbeat CPU 0 instructions: 62000000 cycles: 29278232 heartbeat IPC: 1.28368 cumulative IPC: 1.19384 (Simulation time: 0 hr 27 min 44 sec) 
Heartbeat CPU 0 instructions: 63000002 cycles: 30093063 heartbeat IPC: 1.22725 cumulative IPC: 1.19635 (Simulation time: 0 hr 28 min 17 sec) 
Heartbeat CPU 0 instructions: 64000000 cycles: 30884386 heartbeat IPC: 1.2637 cumulative IPC: 1.20092 (Simulation time: 0 hr 28 min 45 sec) 
Heartbeat CPU 0 instructions: 65000003 cycles: 31661834 heartbeat IPC: 1.28626 cumulative IPC: 1.20626 (Simulation time: 0 hr 29 min 15 sec) 
Heartbeat CPU 0 instructions: 66000003 cycles: 32478110 heartbeat IPC: 1.22508 cumulative IPC: 1.20741 (Simulation time: 0 hr 29 min 43 sec) 
Heartbeat CPU 0 instructions: 67000003 cycles: 33297749 heartbeat IPC: 1.22005 cumulative IPC: 1.20815 (Simulation time: 0 hr 30 min 13 sec) 
Heartbeat CPU 0 instructions: 68000000 cycles: 34085917 heartbeat IPC: 1.26876 cumulative IPC: 1.21137 (Simulation time: 0 hr 30 min 43 sec) 
Heartbeat CPU 0 instructions: 69000003 cycles: 34911233 heartbeat IPC: 1.21166 cumulative IPC: 1.21138 (Simulation time: 0 hr 31 min 14 sec) 
Heartbeat CPU 0 instructions: 70000000 cycles: 35733760 heartbeat IPC: 1.21576 cumulative IPC: 1.2116 (Simulation time: 0 hr 31 min 42 sec) 
Heartbeat CPU 0 instructions: 71000002 cycles: 36537103 heartbeat IPC: 1.2448 cumulative IPC: 1.21314 (Simulation time: 0 hr 32 min 10 sec) 
Heartbeat CPU 0 instructions: 72000000 cycles: 37274270 heartbeat IPC: 1.35654 cumulative IPC: 1.219 (Simulation time: 0 hr 32 min 39 sec) 
Heartbeat CPU 0 instructions: 73000003 cycles: 38034662 heartbeat IPC: 1.31512 cumulative IPC: 1.22288 (Simulation time: 0 hr 33 min 7 sec) 
Heartbeat CPU 0 instructions: 74000003 cycles: 38826926 heartbeat IPC: 1.26221 cumulative IPC: 1.22447 (Simulation time: 0 hr 33 min 37 sec) 
Heartbeat CPU 0 instructions: 75000002 cycles: 39597641 heartbeat IPC: 1.2975 cumulative IPC: 1.22724 (Simulation time: 0 hr 34 min 7 sec) 
Heartbeat CPU 0 instructions: 76000000 cycles: 40382879 heartbeat IPC: 1.2735 cumulative IPC: 1.22895 (Simulation time: 0 hr 34 min 37 sec) 
Heartbeat CPU 0 instructions: 77000003 cycles: 41206067 heartbeat IPC: 1.21479 cumulative IPC: 1.22842 (Simulation time: 0 hr 35 min 5 sec) 
Heartbeat CPU 0 instructions: 78000003 cycles: 41921955 heartbeat IPC: 1.39687 cumulative IPC: 1.23374 (Simulation time: 0 hr 35 min 34 sec) 
Heartbeat CPU 0 instructions: 79000003 cycles: 42685976 heartbeat IPC: 1.30886 cumulative IPC: 1.23618 (Simulation time: 0 hr 36 min 1 sec) 
Heartbeat CPU 0 instructions: 80000000 cycles: 43440382 heartbeat IPC: 1.32554 cumulative IPC: 1.23897 (Simulation time: 0 hr 36 min 28 sec) 
Heartbeat CPU 0 instructions: 81000001 cycles: 44188082 heartbeat IPC: 1.33744 cumulative IPC: 1.24192 (Simulation time: 0 hr 36 min 54 sec) 
Heartbeat CPU 0 instructions: 82000002 cycles: 44961716 heartbeat IPC: 1.2926 cumulative IPC: 1.24344 (Simulation time: 0 hr 37 min 21 sec) 
Heartbeat CPU 0 instructions: 83000003 cycles: 45772566 heartbeat IPC: 1.23327 cumulative IPC: 1.24313 (Simulation time: 0 hr 37 min 49 sec) 
Heartbeat CPU 0 instructions: 84000000 cycles: 46505266 heartbeat IPC: 1.36481 cumulative IPC: 1.2464 (Simulation time: 0 hr 38 min 16 sec) 
Heartbeat CPU 0 instructions: 85000001 cycles: 47295397 heartbeat IPC: 1.26561 cumulative IPC: 1.24694 (Simulation time: 0 hr 38 min 44 sec) 
Heartbeat CPU 0 instructions: 86000000 cycles: 48004792 heartbeat IPC: 1.40965 cumulative IPC: 1.25095 (Simulation time: 0 hr 39 min 11 sec) 
Heartbeat CPU 0 instructions: 87000000 cycles: 48690481 heartbeat IPC: 1.45839 cumulative IPC: 1.25578 (Simulation time: 0 hr 39 min 40 sec) 
Heartbeat CPU 0 instructions: 88000000 cycles: 49476906 heartbeat IPC: 1.27158 cumulative IPC: 1.25619 (Simulation time: 0 hr 40 min 7 sec) 
Heartbeat CPU 0 instructions: 89000000 cycles: 50172370 heartbeat IPC: 1.43789 cumulative IPC: 1.26027 (Simulation time: 0 hr 40 min 36 sec) 
Heartbeat CPU 0 instructions: 90000001 cycles: 50857944 heartbeat IPC: 1.45863 cumulative IPC: 1.26457 (Simulation time: 0 hr 41 min 2 sec) 
Heartbeat CPU 0 instructions: 91000001 cycles: 51652401 heartbeat IPC: 1.25872 cumulative IPC: 1.26443 (Simulation time: 0 hr 41 min 34 sec) 
Heartbeat CPU 0 instructions: 92000000 cycles: 52340726 heartbeat IPC: 1.4528 cumulative IPC: 1.26834 (Simulation time: 0 hr 42 min 0 sec) 
Heartbeat CPU 0 instructions: 93000002 cycles: 53027434 heartbeat IPC: 1.45623 cumulative IPC: 1.27216 (Simulation time: 0 hr 42 min 30 sec) 
Heartbeat CPU 0 instructions: 94000000 cycles: 53838164 heartbeat IPC: 1.23345 cumulative IPC: 1.27125 (Simulation time: 0 hr 42 min 56 sec) 
Heartbeat CPU 0 instructions: 95000000 cycles: 54518876 heartbeat IPC: 1.46905 cumulative IPC: 1.27507 (Simulation time: 0 hr 43 min 25 sec) 
Heartbeat CPU 0 instructions: 96000000 cycles: 55234865 heartbeat IPC: 1.39667 cumulative IPC: 1.27749 (Simulation time: 0 hr 43 min 55 sec) 
Heartbeat CPU 0 instructions: 97000002 cycles: 56419145 heartbeat IPC: 0.844397 cumulative IPC: 1.2637 (Simulation time: 0 hr 44 min 25 sec) 
Heartbeat CPU 0 instructions: 98000003 cycles: 57346244 heartbeat IPC: 1.07863 cumulative IPC: 1.2592 (Simulation time: 0 hr 44 min 54 sec) 
Heartbeat CPU 0 instructions: 99000001 cycles: 58078605 heartbeat IPC: 1.36544 cumulative IPC: 1.2612 (Simulation time: 0 hr 45 min 25 sec) 
Heartbeat CPU 0 instructions: 100000000 cycles: 58781488 heartbeat IPC: 1.42271 cumulative IPC: 1.26407 (Simulation time: 0 hr 45 min 54 sec) 
Heartbeat CPU 0 instructions: 101000001 cycles: 60170476 heartbeat IPC: 0.719949 cumulative IPC: 1.24561 (Simulation time: 0 hr 46 min 23 sec) 
Heartbeat CPU 0 instructions: 102000002 cycles: 60953877 heartbeat IPC: 1.27649 cumulative IPC: 1.24619 (Simulation time: 0 hr 46 min 50 sec) 
Heartbeat CPU 0 instructions: 103000001 cycles: 61682097 heartbeat IPC: 1.37321 cumulative IPC: 1.24837 (Simulation time: 0 hr 47 min 19 sec) 
Heartbeat CPU 0 instructions: 104000000 cycles: 62919605 heartbeat IPC: 0.808075 cumulative IPC: 1.2359 (Simulation time: 0 hr 47 min 50 sec) 
Heartbeat CPU 0 instructions: 105000002 cycles: 63723235 heartbeat IPC: 1.24436 cumulative IPC: 1.23605 (Simulation time: 0 hr 48 min 18 sec) 
Heartbeat CPU 0 instructions: 106000000 cycles: 64428818 heartbeat IPC: 1.41726 cumulative IPC: 1.23888 (Simulation time: 0 hr 48 min 48 sec) 
Heartbeat CPU 0 instructions: 107000001 cycles: 65522971 heartbeat IPC: 0.91395 cumulative IPC: 1.2312 (Simulation time: 0 hr 49 min 17 sec) 
Heartbeat CPU 0 instructions: 108000000 cycles: 66499551 heartbeat IPC: 1.02398 cumulative IPC: 1.22692 (Simulation time: 0 hr 49 min 46 sec) 
Heartbeat CPU 0 instructions: 109000003 cycles: 67269024 heartbeat IPC: 1.29959 cumulative IPC: 1.22808 (Simulation time: 0 hr 50 min 14 sec) 
Heartbeat CPU 0 instructions: 110000000 cycles: 68110526 heartbeat IPC: 1.18835 cumulative IPC: 1.2274 (Simulation time: 0 hr 50 min 44 sec) 
Heartbeat CPU 0 instructions: 111000001 cycles: 69307714 heartbeat IPC: 0.835292 cumulative IPC: 1.21803 (Simulation time: 0 hr 51 min 16 sec) 
Heartbeat CPU 0 instructions: 112000000 cycles: 70121129 heartbeat IPC: 1.22938 cumulative IPC: 1.21821 (Simulation time: 0 hr 51 min 46 sec) 
Heartbeat CPU 0 instructions: 113000000 cycles: 70914352 heartbeat IPC: 1.26068 cumulative IPC: 1.21886 (Simulation time: 0 hr 52 min 12 sec) 
Heartbeat CPU 0 instructions: 114000000 cycles: 72145361 heartbeat IPC: 0.812342 cumulative IPC: 1.2094 (Simulation time: 0 hr 52 min 41 sec) 
Heartbeat CPU 0 instructions: 115000000 cycles: 72967496 heartbeat IPC: 1.21635 cumulative IPC: 1.20951 (Simulation time: 0 hr 53 min 9 sec) 
Heartbeat CPU 0 instructions: 116000000 cycles: 73704518 heartbeat IPC: 1.35681 cumulative IPC: 1.2115 (Simulation time: 0 hr 53 min 38 sec) 
Heartbeat CPU 0 instructions: 117000001 cycles: 74761993 heartbeat IPC: 0.94565 cumulative IPC: 1.20644 (Simulation time: 0 hr 54 min 8 sec) 
Heartbeat CPU 0 instructions: 118000001 cycles: 75763260 heartbeat IPC: 0.998735 cumulative IPC: 1.20276 (Simulation time: 0 hr 54 min 37 sec) 
Heartbeat CPU 0 instructions: 119000001 cycles: 76509896 heartbeat IPC: 1.33934 cumulative IPC: 1.20454 (Simulation time: 0 hr 55 min 4 sec) 
Heartbeat CPU 0 instructions: 120000000 cycles: 77315437 heartbeat IPC: 1.2414 cumulative IPC: 1.20505 (Simulation time: 0 hr 55 min 33 sec) 
Heartbeat CPU 0 instructions: 121000003 cycles: 78531138 heartbeat IPC: 0.822573 cumulative IPC: 1.19721 (Simulation time: 0 hr 56 min 4 sec) 
Heartbeat CPU 0 instructions: 122000000 cycles: 79335432 heartbeat IPC: 1.24332 cumulative IPC: 1.19783 (Simulation time: 0 hr 56 min 32 sec) 
Heartbeat CPU 0 instructions: 123000003 cycles: 80064377 heartbeat IPC: 1.37185 cumulative IPC: 1.19991 (Simulation time: 0 hr 57 min 1 sec) 
Heartbeat CPU 0 instructions: 124000000 cycles: 81248220 heartbeat IPC: 0.844704 cumulative IPC: 1.19313 (Simulation time: 0 hr 57 min 34 sec) 
Heartbeat CPU 0 instructions: 125000000 cycles: 82109408 heartbeat IPC: 1.16119 cumulative IPC: 1.1927 (Simulation time: 0 hr 58 min 1 sec) 
Heartbeat CPU 0 instructions: 126000000 cycles: 82875440 heartbeat IPC: 1.30543 cumulative IPC: 1.19405 (Simulation time: 0 hr 58 min 30 sec) 
Heartbeat CPU 0 instructions: 127000000 cycles: 83893545 heartbeat IPC: 0.982217 cumulative IPC: 1.19072 (Simulation time: 0 hr 59 min 4 sec) 
Heartbeat CPU 0 instructions: 128000000 cycles: 84940260 heartbeat IPC: 0.95537 cumulative IPC: 1.18697 (Simulation time: 0 hr 59 min 35 sec) 
Heartbeat CPU 0 instructions: 129000000 cycles: 85732555 heartbeat IPC: 1.26216 cumulative IPC: 1.18786 (Simulation time: 1 hr 0 min 6 sec) 
Heartbeat CPU 0 instructions: 130000000 cycles: 86509457 heartbeat IPC: 1.28716 cumulative IPC: 1.18901 (Simulation time: 1 hr 0 min 35 sec) 
Heartbeat CPU 0 instructions: 131000002 cycles: 87767669 heartbeat IPC: 0.79478 cumulative IPC: 1.18177 (Simulation time: 1 hr 1 min 13 sec) 
Heartbeat CPU 0 instructions: 132000000 cycles: 88595662 heartbeat IPC: 1.20774 cumulative IPC: 1.18208 (Simulation time: 1 hr 1 min 44 sec) 
Heartbeat CPU 0 instructions: 133000000 cycles: 89406449 heartbeat IPC: 1.23337 cumulative IPC: 1.18268 (Simulation time: 1 hr 2 min 13 sec) 
Heartbeat CPU 0 instructions: 134000001 cycles: 90581788 heartbeat IPC: 0.850819 cumulative IPC: 1.17721 (Simulation time: 1 hr 2 min 45 sec) 
Heartbeat CPU 0 instructions: 135000002 cycles: 91472308 heartbeat IPC: 1.12294 cumulative IPC: 1.17654 (Simulation time: 1 hr 3 min 14 sec) 
Heartbeat CPU 0 instructions: 136000000 cycles: 92195901 heartbeat IPC: 1.38199 cumulative IPC: 1.17858 (Simulation time: 1 hr 3 min 41 sec) 
Heartbeat CPU 0 instructions: 137000002 cycles: 93145798 heartbeat IPC: 1.05275 cumulative IPC: 1.17696 (Simulation time: 1 hr 4 min 9 sec) 
Heartbeat CPU 0 instructions: 138000000 cycles: 94507676 heartbeat IPC: 0.734279 cumulative IPC: 1.16895 (Simulation time: 1 hr 4 min 44 sec) 
Heartbeat CPU 0 instructions: 139000000 cycles: 95594909 heartbeat IPC: 0.919766 cumulative IPC: 1.16541 (Simulation time: 1 hr 5 min 14 sec) 
Heartbeat CPU 0 instructions: 140000000 cycles: 96414454 heartbeat IPC: 1.22019 cumulative IPC: 1.16599 (Simulation time: 1 hr 5 min 43 sec) 
Heartbeat CPU 0 instructions: 141000003 cycles: 97164372 heartbeat IPC: 1.33348 cumulative IPC: 1.1676 (Simulation time: 1 hr 6 min 13 sec) 
Heartbeat CPU 0 instructions: 142000000 cycles: 98316176 heartbeat IPC: 0.868201 cumulative IPC: 1.16324 (Simulation time: 1 hr 6 min 42 sec) 
Heartbeat CPU 0 instructions: 143000003 cycles: 99268135 heartbeat IPC: 1.05047 cumulative IPC: 1.1619 (Simulation time: 1 hr 7 min 13 sec) 
Heartbeat CPU 0 instructions: 144000000 cycles: 100052926 heartbeat IPC: 1.27422 cumulative IPC: 1.16299 (Simulation time: 1 hr 7 min 41 sec) 
Heartbeat CPU 0 instructions: 145000000 cycles: 100948134 heartbeat IPC: 1.11706 cumulative IPC: 1.16249 (Simulation time: 1 hr 8 min 11 sec) 
Heartbeat CPU 0 instructions: 146000000 cycles: 102081178 heartbeat IPC: 0.882578 cumulative IPC: 1.15866 (Simulation time: 1 hr 8 min 38 sec) 
Heartbeat CPU 0 instructions: 147000003 cycles: 102910620 heartbeat IPC: 1.20563 cumulative IPC: 1.15912 (Simulation time: 1 hr 9 min 7 sec) 
Heartbeat CPU 0 instructions: 148000000 cycles: 103710854 heartbeat IPC: 1.24963 cumulative IPC: 1.15998 (Simulation time: 1 hr 9 min 34 sec) 
Heartbeat CPU 0 instructions: 149000003 cycles: 104961770 heartbeat IPC: 0.799417 cumulative IPC: 1.15472 (Simulation time: 1 hr 10 min 2 sec) 
Heartbeat CPU 0 instructions: 150000001 cycles: 105797348 heartbeat IPC: 1.19677 cumulative IPC: 1.15513 (Simulation time: 1 hr 10 min 26 sec) 
Finished CPU 0 instructions: 100000000 cycles: 86570690 cummulative IPC: 1.15513 (Simulation time: 1 hr 10 min 26 sec) 

ChampSim completed all CPUs

Region of Interest Statistics

CPU 0 cummulative IPC: 1.15513 instructions: 100000000 cycles: 86570690
LLC TOTAL     ACCESS:    1520497  HIT:     891026  MISS:     629471
LLC LOAD      ACCESS:     160569  HIT:     134203  MISS:      26366
LLC RFO       ACCESS:     118667  HIT:     115560  MISS:       3107
LLC PREFETCH  ACCESS:    1108952  HIT:     509017  MISS:     599935
LLC WRITEBACK ACCESS:     132309  HIT:     132246  MISS:         63
OPTgen accesses: 6737
OPTgen hits: 6645
OPTgen hit rate: 98.6344


