
*** ChampSim Multicore Out-of-Order Simulator ***

Warmup Instructions: 50000000
Simulation Instructions: 100000000
Configuration: 2
Number of CPUs: 1
LLC sets: 2048
LLC ways: 16
Off-chip DRAM Channels: 1 Width: 64-bit Data Rate: 1600 MT/s

CPU 0 runs /datasets/cs240c-wi22-a00-public/data/Assignment2-gz/GemsFDTD_716B.trace.gz
CPU 0 L1D next line prefetcher
CPU 0 L2C IP-based stride prefetcher
Initialize Hawkeye state
Heartbeat CPU 0 instructions: 1000000 cycles: 415045 heartbeat IPC: 2.40938 cumulative IPC: 2.40938 (Simulation time: 0 hr 0 min 39 sec) 
Heartbeat CPU 0 instructions: 2000003 cycles: 829979 heartbeat IPC: 2.41003 cumulative IPC: 2.4097 (Simulation time: 0 hr 1 min 17 sec) 
Heartbeat CPU 0 instructions: 3000000 cycles: 1280233 heartbeat IPC: 2.22096 cumulative IPC: 2.34332 (Simulation time: 0 hr 1 min 48 sec) 
Heartbeat CPU 0 instructions: 4000000 cycles: 1737264 heartbeat IPC: 2.18804 cumulative IPC: 2.30247 (Simulation time: 0 hr 2 min 18 sec) 
Heartbeat CPU 0 instructions: 5000000 cycles: 2152245 heartbeat IPC: 2.40975 cumulative IPC: 2.32316 (Simulation time: 0 hr 2 min 49 sec) 
Heartbeat CPU 0 instructions: 6000000 cycles: 2567261 heartbeat IPC: 2.40955 cumulative IPC: 2.33712 (Simulation time: 0 hr 3 min 29 sec) 
Heartbeat CPU 0 instructions: 7000000 cycles: 2982264 heartbeat IPC: 2.40962 cumulative IPC: 2.34721 (Simulation time: 0 hr 4 min 6 sec) 
Heartbeat CPU 0 instructions: 8000000 cycles: 3395191 heartbeat IPC: 2.42174 cumulative IPC: 2.35627 (Simulation time: 0 hr 4 min 35 sec) 
Heartbeat CPU 0 instructions: 9000003 cycles: 3840223 heartbeat IPC: 2.24704 cumulative IPC: 2.34361 (Simulation time: 0 hr 5 min 14 sec) 
Heartbeat CPU 0 instructions: 10000002 cycles: 4354523 heartbeat IPC: 1.94439 cumulative IPC: 2.29646 (Simulation time: 0 hr 5 min 59 sec) 
Heartbeat CPU 0 instructions: 11000000 cycles: 4869364 heartbeat IPC: 1.94234 cumulative IPC: 2.25902 (Simulation time: 0 hr 6 min 49 sec) 
Heartbeat CPU 0 instructions: 12000000 cycles: 5383711 heartbeat IPC: 1.94421 cumulative IPC: 2.22895 (Simulation time: 0 hr 7 min 34 sec) 
Heartbeat CPU 0 instructions: 13000002 cycles: 5898405 heartbeat IPC: 1.94291 cumulative IPC: 2.20399 (Simulation time: 0 hr 8 min 18 sec) 
Heartbeat CPU 0 instructions: 14000000 cycles: 6414336 heartbeat IPC: 1.93824 cumulative IPC: 2.18261 (Simulation time: 0 hr 9 min 0 sec) 
Heartbeat CPU 0 instructions: 15000001 cycles: 6934503 heartbeat IPC: 1.92246 cumulative IPC: 2.1631 (Simulation time: 0 hr 9 min 49 sec) 
Heartbeat CPU 0 instructions: 16000000 cycles: 7454724 heartbeat IPC: 1.92226 cumulative IPC: 2.14629 (Simulation time: 0 hr 10 min 37 sec) 
Heartbeat CPU 0 instructions: 17000001 cycles: 7975432 heartbeat IPC: 1.92046 cumulative IPC: 2.13155 (Simulation time: 0 hr 11 min 20 sec) 
Heartbeat CPU 0 instructions: 18000000 cycles: 8496345 heartbeat IPC: 1.9197 cumulative IPC: 2.11856 (Simulation time: 0 hr 12 min 1 sec) 
Heartbeat CPU 0 instructions: 19000003 cycles: 9017472 heartbeat IPC: 1.91892 cumulative IPC: 2.10702 (Simulation time: 0 hr 12 min 45 sec) 
Heartbeat CPU 0 instructions: 20000000 cycles: 9556072 heartbeat IPC: 1.85666 cumulative IPC: 2.09291 (Simulation time: 0 hr 13 min 28 sec) 
Heartbeat CPU 0 instructions: 21000000 cycles: 10098170 heartbeat IPC: 1.84468 cumulative IPC: 2.07958 (Simulation time: 0 hr 14 min 13 sec) 
Heartbeat CPU 0 instructions: 22000001 cycles: 10639159 heartbeat IPC: 1.84847 cumulative IPC: 2.06783 (Simulation time: 0 hr 15 min 3 sec) 
Heartbeat CPU 0 instructions: 23000003 cycles: 11180637 heartbeat IPC: 1.8468 cumulative IPC: 2.05713 (Simulation time: 0 hr 15 min 48 sec) 
Heartbeat CPU 0 instructions: 24000000 cycles: 11722874 heartbeat IPC: 1.84421 cumulative IPC: 2.04728 (Simulation time: 0 hr 16 min 37 sec) 
Heartbeat CPU 0 instructions: 25000000 cycles: 12250672 heartbeat IPC: 1.89466 cumulative IPC: 2.0407 (Simulation time: 0 hr 17 min 21 sec) 
Heartbeat CPU 0 instructions: 26000000 cycles: 12769408 heartbeat IPC: 1.92776 cumulative IPC: 2.03612 (Simulation time: 0 hr 18 min 2 sec) 
Heartbeat CPU 0 instructions: 27000002 cycles: 13288111 heartbeat IPC: 1.92789 cumulative IPC: 2.03189 (Simulation time: 0 hr 18 min 46 sec) 
Heartbeat CPU 0 instructions: 28000000 cycles: 13806574 heartbeat IPC: 1.92877 cumulative IPC: 2.02802 (Simulation time: 0 hr 19 min 33 sec) 
Heartbeat CPU 0 instructions: 29000003 cycles: 14324743 heartbeat IPC: 1.92988 cumulative IPC: 2.02447 (Simulation time: 0 hr 20 min 23 sec) 
Heartbeat CPU 0 instructions: 30000001 cycles: 14858455 heartbeat IPC: 1.87367 cumulative IPC: 2.01905 (Simulation time: 0 hr 21 min 7 sec) 
Heartbeat CPU 0 instructions: 31000001 cycles: 15419692 heartbeat IPC: 1.78178 cumulative IPC: 2.01042 (Simulation time: 0 hr 21 min 47 sec) 
Heartbeat CPU 0 instructions: 32000000 cycles: 15980965 heartbeat IPC: 1.78166 cumulative IPC: 2.00238 (Simulation time: 0 hr 22 min 31 sec) 
Heartbeat CPU 0 instructions: 33000002 cycles: 16543212 heartbeat IPC: 1.77858 cumulative IPC: 1.99478 (Simulation time: 0 hr 23 min 14 sec) 
Heartbeat CPU 0 instructions: 34000001 cycles: 17104049 heartbeat IPC: 1.78305 cumulative IPC: 1.98783 (Simulation time: 0 hr 23 min 59 sec) 
Heartbeat CPU 0 instructions: 35000001 cycles: 17665336 heartbeat IPC: 1.78162 cumulative IPC: 1.98128 (Simulation time: 0 hr 24 min 43 sec) 
Heartbeat CPU 0 instructions: 36000000 cycles: 18227985 heartbeat IPC: 1.77731 cumulative IPC: 1.97499 (Simulation time: 0 hr 25 min 29 sec) 
Heartbeat CPU 0 instructions: 37000002 cycles: 18801911 heartbeat IPC: 1.74239 cumulative IPC: 1.96789 (Simulation time: 0 hr 26 min 10 sec) 
Heartbeat CPU 0 instructions: 38000002 cycles: 19375765 heartbeat IPC: 1.7426 cumulative IPC: 1.96121 (Simulation time: 0 hr 26 min 56 sec) 
Heartbeat CPU 0 instructions: 39000000 cycles: 19949460 heartbeat IPC: 1.74308 cumulative IPC: 1.95494 (Simulation time: 0 hr 27 min 42 sec) 
Heartbeat CPU 0 instructions: 40000000 cycles: 20523350 heartbeat IPC: 1.74249 cumulative IPC: 1.949 (Simulation time: 0 hr 28 min 23 sec) 
Heartbeat CPU 0 instructions: 41000002 cycles: 21096813 heartbeat IPC: 1.7438 cumulative IPC: 1.94342 (Simulation time: 0 hr 29 min 5 sec) 
Heartbeat CPU 0 instructions: 42000000 cycles: 21670577 heartbeat IPC: 1.74287 cumulative IPC: 1.93811 (Simulation time: 0 hr 29 min 49 sec) 
Heartbeat CPU 0 instructions: 43000002 cycles: 22218148 heartbeat IPC: 1.82625 cumulative IPC: 1.93535 (Simulation time: 0 hr 30 min 36 sec) 
Heartbeat CPU 0 instructions: 44000000 cycles: 22751744 heartbeat IPC: 1.87407 cumulative IPC: 1.93392 (Simulation time: 0 hr 31 min 28 sec) 
Heartbeat CPU 0 instructions: 45000001 cycles: 23285156 heartbeat IPC: 1.87473 cumulative IPC: 1.93256 (Simulation time: 0 hr 32 min 18 sec) 
Heartbeat CPU 0 instructions: 46000001 cycles: 23818695 heartbeat IPC: 1.87428 cumulative IPC: 1.93126 (Simulation time: 0 hr 33 min 10 sec) 
Heartbeat CPU 0 instructions: 47000003 cycles: 24352163 heartbeat IPC: 1.87453 cumulative IPC: 1.93001 (Simulation time: 0 hr 33 min 56 sec) 
Heartbeat CPU 0 instructions: 48000000 cycles: 24891921 heartbeat IPC: 1.85268 cumulative IPC: 1.92834 (Simulation time: 0 hr 34 min 46 sec) 
Heartbeat CPU 0 instructions: 49000003 cycles: 25438869 heartbeat IPC: 1.82833 cumulative IPC: 1.92619 (Simulation time: 0 hr 35 min 27 sec) 
Heartbeat CPU 0 instructions: 50000003 cycles: 25985996 heartbeat IPC: 1.82773 cumulative IPC: 1.92411 (Simulation time: 0 hr 36 min 16 sec) 

Warmup complete CPU 0 instructions: 50000003 cycles: 25985996 (Simulation time: 0 hr 36 min 16 sec) 

Heartbeat CPU 0 instructions: 51000003 cycles: 29571105 heartbeat IPC: 0.278932 cumulative IPC: 0.278932 (Simulation time: 0 hr 37 min 19 sec) 
Heartbeat CPU 0 instructions: 52000000 cycles: 33155557 heartbeat IPC: 0.278982 cumulative IPC: 0.278957 (Simulation time: 0 hr 38 min 22 sec) 
Heartbeat CPU 0 instructions: 53000002 cycles: 36888664 heartbeat IPC: 0.267874 cumulative IPC: 0.275162 (Simulation time: 0 hr 39 min 27 sec) 
Heartbeat CPU 0 instructions: 54000001 cycles: 39002620 heartbeat IPC: 0.473046 cumulative IPC: 0.307299 (Simulation time: 0 hr 40 min 22 sec) 
Heartbeat CPU 0 instructions: 55000002 cycles: 40808776 heartbeat IPC: 0.553663 cumulative IPC: 0.337319 (Simulation time: 0 hr 41 min 14 sec) 
Heartbeat CPU 0 instructions: 56000000 cycles: 42662688 heartbeat IPC: 0.539399 cumulative IPC: 0.359783 (Simulation time: 0 hr 42 min 1 sec) 
Heartbeat CPU 0 instructions: 57000002 cycles: 44502242 heartbeat IPC: 0.543611 cumulative IPC: 0.378046 (Simulation time: 0 hr 42 min 57 sec) 
Heartbeat CPU 0 instructions: 58000001 cycles: 46272994 heartbeat IPC: 0.564731 cumulative IPC: 0.394341 (Simulation time: 0 hr 43 min 51 sec) 
Heartbeat CPU 0 instructions: 59000002 cycles: 48410748 heartbeat IPC: 0.467781 cumulative IPC: 0.401342 (Simulation time: 0 hr 44 min 43 sec) 
Heartbeat CPU 0 instructions: 60000000 cycles: 49939152 heartbeat IPC: 0.654276 cumulative IPC: 0.417481 (Simulation time: 0 hr 45 min 40 sec) 
Heartbeat CPU 0 instructions: 61000002 cycles: 51468802 heartbeat IPC: 0.653746 cumulative IPC: 0.431664 (Simulation time: 0 hr 46 min 38 sec) 
Heartbeat CPU 0 instructions: 62000000 cycles: 53008793 heartbeat IPC: 0.649353 cumulative IPC: 0.444069 (Simulation time: 0 hr 47 min 34 sec) 
Heartbeat CPU 0 instructions: 63000000 cycles: 54567663 heartbeat IPC: 0.64149 cumulative IPC: 0.454837 (Simulation time: 0 hr 48 min 27 sec) 
Heartbeat CPU 0 instructions: 64000000 cycles: 56592562 heartbeat IPC: 0.493852 cumulative IPC: 0.457418 (Simulation time: 0 hr 49 min 16 sec) 
Heartbeat CPU 0 instructions: 65000001 cycles: 57966861 heartbeat IPC: 0.727644 cumulative IPC: 0.46903 (Simulation time: 0 hr 50 min 7 sec) 
Heartbeat CPU 0 instructions: 66000003 cycles: 59309668 heartbeat IPC: 0.74471 cumulative IPC: 0.480139 (Simulation time: 0 hr 51 min 0 sec) 
Heartbeat CPU 0 instructions: 67000003 cycles: 60652639 heartbeat IPC: 0.744618 cumulative IPC: 0.490385 (Simulation time: 0 hr 51 min 49 sec) 
Heartbeat CPU 0 instructions: 68000000 cycles: 61989433 heartbeat IPC: 0.748056 cumulative IPC: 0.499952 (Simulation time: 0 hr 52 min 36 sec) 
Heartbeat CPU 0 instructions: 69000000 cycles: 63324658 heartbeat IPC: 0.748937 cumulative IPC: 0.508856 (Simulation time: 0 hr 53 min 24 sec) 
Heartbeat CPU 0 instructions: 70000000 cycles: 65114720 heartbeat IPC: 0.55864 cumulative IPC: 0.511133 (Simulation time: 0 hr 54 min 17 sec) 
Heartbeat CPU 0 instructions: 71000000 cycles: 66657214 heartbeat IPC: 0.648301 cumulative IPC: 0.516336 (Simulation time: 0 hr 55 min 8 sec) 
Heartbeat CPU 0 instructions: 72000000 cycles: 68015048 heartbeat IPC: 0.736467 cumulative IPC: 0.523447 (Simulation time: 0 hr 56 min 1 sec) 
Heartbeat CPU 0 instructions: 73000002 cycles: 69375450 heartbeat IPC: 0.735078 cumulative IPC: 0.530083 (Simulation time: 0 hr 56 min 50 sec) 
Heartbeat CPU 0 instructions: 74000000 cycles: 70737390 heartbeat IPC: 0.734245 cumulative IPC: 0.536296 (Simulation time: 0 hr 57 min 38 sec) 
Heartbeat CPU 0 instructions: 75000000 cycles: 72104338 heartbeat IPC: 0.731557 cumulative IPC: 0.542084 (Simulation time: 0 hr 58 min 24 sec) 
Heartbeat CPU 0 instructions: 76000000 cycles: 73469426 heartbeat IPC: 0.732553 cumulative IPC: 0.547559 (Simulation time: 0 hr 59 min 15 sec) 
Heartbeat CPU 0 instructions: 77000001 cycles: 77030279 heartbeat IPC: 0.280832 cumulative IPC: 0.528952 (Simulation time: 1 hr 0 min 26 sec) 
Heartbeat CPU 0 instructions: 78000000 cycles: 80427632 heartbeat IPC: 0.294347 cumulative IPC: 0.514312 (Simulation time: 1 hr 1 min 33 sec) 
Heartbeat CPU 0 instructions: 79000002 cycles: 83813741 heartbeat IPC: 0.295325 cumulative IPC: 0.501489 (Simulation time: 1 hr 2 min 31 sec) 
Heartbeat CPU 0 instructions: 80000000 cycles: 87203114 heartbeat IPC: 0.295039 cumulative IPC: 0.490059 (Simulation time: 1 hr 3 min 31 sec) 
Heartbeat CPU 0 instructions: 81000000 cycles: 90592363 heartbeat IPC: 0.295051 cumulative IPC: 0.479829 (Simulation time: 1 hr 4 min 35 sec) 
Heartbeat CPU 0 instructions: 82000002 cycles: 94558148 heartbeat IPC: 0.252157 cumulative IPC: 0.466662 (Simulation time: 1 hr 5 min 43 sec) 
Heartbeat CPU 0 instructions: 83000002 cycles: 98174892 heartbeat IPC: 0.276492 cumulative IPC: 0.457134 (Simulation time: 1 hr 6 min 48 sec) 
Heartbeat CPU 0 instructions: 84000000 cycles: 101797359 heartbeat IPC: 0.276054 cumulative IPC: 0.448482 (Simulation time: 1 hr 7 min 46 sec) 
Heartbeat CPU 0 instructions: 85000000 cycles: 105416974 heartbeat IPC: 0.276272 cumulative IPC: 0.440634 (Simulation time: 1 hr 8 min 42 sec) 
Heartbeat CPU 0 instructions: 86000000 cycles: 109038184 heartbeat IPC: 0.276151 cumulative IPC: 0.433462 (Simulation time: 1 hr 9 min 39 sec) 
Heartbeat CPU 0 instructions: 87000000 cycles: 112738276 heartbeat IPC: 0.270264 cumulative IPC: 0.426502 (Simulation time: 1 hr 10 min 33 sec) 
Heartbeat CPU 0 instructions: 88000000 cycles: 114466142 heartbeat IPC: 0.578749 cumulative IPC: 0.429475 (Simulation time: 1 hr 11 min 19 sec) 
Heartbeat CPU 0 instructions: 89000001 cycles: 116073628 heartbeat IPC: 0.62209 cumulative IPC: 0.432912 (Simulation time: 1 hr 12 min 4 sec) 
Heartbeat CPU 0 instructions: 90000001 cycles: 117679049 heartbeat IPC: 0.62289 cumulative IPC: 0.436238 (Simulation time: 1 hr 12 min 47 sec) 
Heartbeat CPU 0 instructions: 91000001 cycles: 119289072 heartbeat IPC: 0.621109 cumulative IPC: 0.439428 (Simulation time: 1 hr 13 min 31 sec) 
Heartbeat CPU 0 instructions: 92000000 cycles: 120898865 heartbeat IPC: 0.621197 cumulative IPC: 0.442511 (Simulation time: 1 hr 14 min 18 sec) 
Heartbeat CPU 0 instructions: 93000002 cycles: 122981493 heartbeat IPC: 0.480164 cumulative IPC: 0.44332 (Simulation time: 1 hr 15 min 2 sec) 
Heartbeat CPU 0 instructions: 94000001 cycles: 124384534 heartbeat IPC: 0.712737 cumulative IPC: 0.447161 (Simulation time: 1 hr 15 min 41 sec) 
Heartbeat CPU 0 instructions: 95000000 cycles: 125781002 heartbeat IPC: 0.716092 cumulative IPC: 0.450924 (Simulation time: 1 hr 16 min 21 sec) 
Heartbeat CPU 0 instructions: 96000000 cycles: 127187368 heartbeat IPC: 0.711052 cumulative IPC: 0.454539 (Simulation time: 1 hr 17 min 0 sec) 
Heartbeat CPU 0 instructions: 97000001 cycles: 128588131 heartbeat IPC: 0.713897 cumulative IPC: 0.45808 (Simulation time: 1 hr 17 min 39 sec) 
Heartbeat CPU 0 instructions: 98000000 cycles: 130564208 heartbeat IPC: 0.506053 cumulative IPC: 0.458987 (Simulation time: 1 hr 18 min 13 sec) 
Heartbeat CPU 0 instructions: 99000001 cycles: 131927194 heartbeat IPC: 0.733684 cumulative IPC: 0.462521 (Simulation time: 1 hr 18 min 42 sec) 
Heartbeat CPU 0 instructions: 100000000 cycles: 133291621 heartbeat IPC: 0.732908 cumulative IPC: 0.465959 (Simulation time: 1 hr 19 min 11 sec) 
Heartbeat CPU 0 instructions: 101000002 cycles: 134651476 heartbeat IPC: 0.735374 cumulative IPC: 0.46933 (Simulation time: 1 hr 19 min 39 sec) 
Heartbeat CPU 0 instructions: 102000003 cycles: 136014632 heartbeat IPC: 0.733593 cumulative IPC: 0.472604 (Simulation time: 1 hr 20 min 7 sec) 
Heartbeat CPU 0 instructions: 103000000 cycles: 137375118 heartbeat IPC: 0.735029 cumulative IPC: 0.475809 (Simulation time: 1 hr 20 min 36 sec) 
Heartbeat CPU 0 instructions: 104000000 cycles: 139323581 heartbeat IPC: 0.513225 cumulative IPC: 0.476453 (Simulation time: 1 hr 21 min 8 sec) 
Heartbeat CPU 0 instructions: 105000003 cycles: 140802435 heartbeat IPC: 0.676201 cumulative IPC: 0.479025 (Simulation time: 1 hr 21 min 33 sec) 
Heartbeat CPU 0 instructions: 106000001 cycles: 142180445 heartbeat IPC: 0.725683 cumulative IPC: 0.481951 (Simulation time: 1 hr 21 min 58 sec) 
Heartbeat CPU 0 instructions: 107000001 cycles: 143568676 heartbeat IPC: 0.720341 cumulative IPC: 0.484765 (Simulation time: 1 hr 22 min 21 sec) 
Heartbeat CPU 0 instructions: 108000000 cycles: 144946659 heartbeat IPC: 0.725698 cumulative IPC: 0.487556 (Simulation time: 1 hr 22 min 45 sec) 
Heartbeat CPU 0 instructions: 109000000 cycles: 146325684 heartbeat IPC: 0.72515 cumulative IPC: 0.490279 (Simulation time: 1 hr 23 min 9 sec) 
Heartbeat CPU 0 instructions: 110000002 cycles: 148102884 heartbeat IPC: 0.562684 cumulative IPC: 0.491333 (Simulation time: 1 hr 23 min 34 sec) 
Heartbeat CPU 0 instructions: 111000002 cycles: 151611291 heartbeat IPC: 0.28503 cumulative IPC: 0.485571 (Simulation time: 1 hr 24 min 2 sec) 
Heartbeat CPU 0 instructions: 112000000 cycles: 154954539 heartbeat IPC: 0.29911 cumulative IPC: 0.480737 (Simulation time: 1 hr 24 min 30 sec) 
Heartbeat CPU 0 instructions: 113000001 cycles: 158292751 heartbeat IPC: 0.299562 cumulative IPC: 0.476166 (Simulation time: 1 hr 24 min 57 sec) 
Heartbeat CPU 0 instructions: 114000000 cycles: 161633413 heartbeat IPC: 0.299342 cumulative IPC: 0.471811 (Simulation time: 1 hr 25 min 24 sec) 
Heartbeat CPU 0 instructions: 115000002 cycles: 164967289 heartbeat IPC: 0.299952 cumulative IPC: 0.467689 (Simulation time: 1 hr 25 min 50 sec) 
Heartbeat CPU 0 instructions: 116000000 cycles: 168913030 heartbeat IPC: 0.253437 cumulative IPC: 0.461774 (Simulation time: 1 hr 26 min 16 sec) 
Heartbeat CPU 0 instructions: 117000000 cycles: 172516513 heartbeat IPC: 0.277509 cumulative IPC: 0.457243 (Simulation time: 1 hr 26 min 37 sec) 
Heartbeat CPU 0 instructions: 118000000 cycles: 176119531 heartbeat IPC: 0.277545 cumulative IPC: 0.45293 (Simulation time: 1 hr 26 min 59 sec) 
Heartbeat CPU 0 instructions: 119000003 cycles: 179725105 heartbeat IPC: 0.277349 cumulative IPC: 0.448812 (Simulation time: 1 hr 27 min 20 sec) 
Heartbeat CPU 0 instructions: 120000000 cycles: 183322455 heartbeat IPC: 0.277982 cumulative IPC: 0.444906 (Simulation time: 1 hr 27 min 39 sec) 
Heartbeat CPU 0 instructions: 121000001 cycles: 186725804 heartbeat IPC: 0.293829 cumulative IPC: 0.441708 (Simulation time: 1 hr 27 min 58 sec) 
Heartbeat CPU 0 instructions: 122000001 cycles: 188681590 heartbeat IPC: 0.511303 cumulative IPC: 0.442544 (Simulation time: 1 hr 28 min 14 sec) 
Heartbeat CPU 0 instructions: 123000000 cycles: 190616248 heartbeat IPC: 0.516887 cumulative IPC: 0.443418 (Simulation time: 1 hr 28 min 30 sec) 
Heartbeat CPU 0 instructions: 124000000 cycles: 192558374 heartbeat IPC: 0.5149 cumulative IPC: 0.444251 (Simulation time: 1 hr 28 min 44 sec) 
Heartbeat CPU 0 instructions: 125000001 cycles: 194499288 heartbeat IPC: 0.515222 cumulative IPC: 0.445069 (Simulation time: 1 hr 28 min 56 sec) 
Heartbeat CPU 0 instructions: 126000001 cycles: 196885210 heartbeat IPC: 0.419125 cumulative IPC: 0.444707 (Simulation time: 1 hr 29 min 10 sec) 
Heartbeat CPU 0 instructions: 127000000 cycles: 198936930 heartbeat IPC: 0.487395 cumulative IPC: 0.445213 (Simulation time: 1 hr 29 min 22 sec) 
Heartbeat CPU 0 instructions: 128000000 cycles: 200893231 heartbeat IPC: 0.511169 cumulative IPC: 0.445951 (Simulation time: 1 hr 29 min 33 sec) 
Heartbeat CPU 0 instructions: 129000000 cycles: 202783854 heartbeat IPC: 0.528926 cumulative IPC: 0.446838 (Simulation time: 1 hr 29 min 43 sec) 
Heartbeat CPU 0 instructions: 130000003 cycles: 204713314 heartbeat IPC: 0.518281 cumulative IPC: 0.447609 (Simulation time: 1 hr 29 min 53 sec) 
Heartbeat CPU 0 instructions: 131000001 cycles: 206680134 heartbeat IPC: 0.508434 cumulative IPC: 0.448271 (Simulation time: 1 hr 30 min 4 sec) 
Heartbeat CPU 0 instructions: 132000000 cycles: 208629846 heartbeat IPC: 0.512896 cumulative IPC: 0.448961 (Simulation time: 1 hr 30 min 15 sec) 
Heartbeat CPU 0 instructions: 133000000 cycles: 209976156 heartbeat IPC: 0.742771 cumulative IPC: 0.451111 (Simulation time: 1 hr 30 min 24 sec) 
Heartbeat CPU 0 instructions: 134000003 cycles: 211326824 heartbeat IPC: 0.740377 cumulative IPC: 0.453219 (Simulation time: 1 hr 30 min 32 sec) 
Heartbeat CPU 0 instructions: 135000001 cycles: 212678768 heartbeat IPC: 0.739674 cumulative IPC: 0.455293 (Simulation time: 1 hr 30 min 41 sec) 
Heartbeat CPU 0 instructions: 136000000 cycles: 214029398 heartbeat IPC: 0.740394 cumulative IPC: 0.457341 (Simulation time: 1 hr 30 min 49 sec) 
Heartbeat CPU 0 instructions: 137000001 cycles: 215379562 heartbeat IPC: 0.740651 cumulative IPC: 0.459361 (Simulation time: 1 hr 30 min 58 sec) 
Heartbeat CPU 0 instructions: 138000000 cycles: 217378421 heartbeat IPC: 0.500285 cumulative IPC: 0.459788 (Simulation time: 1 hr 31 min 5 sec) 
Heartbeat CPU 0 instructions: 139000001 cycles: 218761258 heartbeat IPC: 0.723152 cumulative IPC: 0.461677 (Simulation time: 1 hr 31 min 13 sec) 
Heartbeat CPU 0 instructions: 140000000 cycles: 220130588 heartbeat IPC: 0.730283 cumulative IPC: 0.463572 (Simulation time: 1 hr 31 min 19 sec) 
Heartbeat CPU 0 instructions: 141000000 cycles: 221504881 heartbeat IPC: 0.727647 cumulative IPC: 0.465428 (Simulation time: 1 hr 31 min 26 sec) 
Heartbeat CPU 0 instructions: 142000002 cycles: 222870237 heartbeat IPC: 0.732411 cumulative IPC: 0.46728 (Simulation time: 1 hr 31 min 31 sec) 
Heartbeat CPU 0 instructions: 143000000 cycles: 224235281 heartbeat IPC: 0.732576 cumulative IPC: 0.469106 (Simulation time: 1 hr 31 min 36 sec) 
Heartbeat CPU 0 instructions: 144000000 cycles: 225638802 heartbeat IPC: 0.712494 cumulative IPC: 0.470817 (Simulation time: 1 hr 31 min 42 sec) 
Heartbeat CPU 0 instructions: 145000000 cycles: 227098919 heartbeat IPC: 0.684877 cumulative IPC: 0.472371 (Simulation time: 1 hr 31 min 47 sec) 
Heartbeat CPU 0 instructions: 146000001 cycles: 228579596 heartbeat IPC: 0.675367 cumulative IPC: 0.473855 (Simulation time: 1 hr 31 min 52 sec) 
Heartbeat CPU 0 instructions: 147000003 cycles: 230167263 heartbeat IPC: 0.629856 cumulative IPC: 0.475068 (Simulation time: 1 hr 31 min 57 sec) 
Heartbeat CPU 0 instructions: 148000000 cycles: 231772242 heartbeat IPC: 0.623059 cumulative IPC: 0.476222 (Simulation time: 1 hr 32 min 2 sec) 
Heartbeat CPU 0 instructions: 149000002 cycles: 233350426 heartbeat IPC: 0.633641 cumulative IPC: 0.47742 (Simulation time: 1 hr 32 min 7 sec) 
Heartbeat CPU 0 instructions: 150000003 cycles: 234931694 heartbeat IPC: 0.632405 cumulative IPC: 0.478593 (Simulation time: 1 hr 32 min 12 sec) 
Finished CPU 0 instructions: 100000000 cycles: 208945698 cummulative IPC: 0.478593 (Simulation time: 1 hr 32 min 12 sec) 

ChampSim completed all CPUs

Region of Interest Statistics

CPU 0 cummulative IPC: 0.478593 instructions: 100000000 cycles: 208945698
LLC TOTAL     ACCESS:   12337629  HIT:   10082838  MISS:    2254791
LLC LOAD      ACCESS:    4933156  HIT:    4184768  MISS:     748388
LLC RFO       ACCESS:         16  HIT:          0  MISS:         16
LLC PREFETCH  ACCESS:    6495397  HIT:    5049171  MISS:    1446226
LLC WRITEBACK ACCESS:     909060  HIT:     848899  MISS:      60161
OPTgen accesses: 111174
OPTgen hits: 173898
OPTgen hit rate: 156.42


