
*** ChampSim Multicore Out-of-Order Simulator ***

Warmup Instructions: 50000000
Simulation Instructions: 100000000
Configuration: 2
Number of CPUs: 1
LLC sets: 2048
LLC ways: 16
Off-chip DRAM Channels: 1 Width: 64-bit Data Rate: 1600 MT/s

CPU 0 runs /datasets/cs240c-wi22-a00-public/data/Assignment2-gz/GemsFDTD_712B.trace.gz
CPU 0 L1D next line prefetcher
CPU 0 L2C IP-based stride prefetcher
Initialize Hawkeye state
Heartbeat CPU 0 instructions: 1000003 cycles: 634340 heartbeat IPC: 1.57645 cumulative IPC: 1.57645 (Simulation time: 0 hr 1 min 6 sec) 
Heartbeat CPU 0 instructions: 2000000 cycles: 1268289 heartbeat IPC: 1.57741 cumulative IPC: 1.57693 (Simulation time: 0 hr 2 min 17 sec) 
Heartbeat CPU 0 instructions: 3000000 cycles: 1902273 heartbeat IPC: 1.57733 cumulative IPC: 1.57706 (Simulation time: 0 hr 3 min 29 sec) 
Heartbeat CPU 0 instructions: 4000000 cycles: 2535976 heartbeat IPC: 1.57803 cumulative IPC: 1.5773 (Simulation time: 0 hr 4 min 36 sec) 
Heartbeat CPU 0 instructions: 5000003 cycles: 3170131 heartbeat IPC: 1.57691 cumulative IPC: 1.57722 (Simulation time: 0 hr 5 min 44 sec) 
Heartbeat CPU 0 instructions: 6000002 cycles: 3804028 heartbeat IPC: 1.57754 cumulative IPC: 1.57728 (Simulation time: 0 hr 6 min 55 sec) 
Heartbeat CPU 0 instructions: 7000001 cycles: 4438178 heartbeat IPC: 1.57691 cumulative IPC: 1.57722 (Simulation time: 0 hr 8 min 3 sec) 
Heartbeat CPU 0 instructions: 8000000 cycles: 5072006 heartbeat IPC: 1.57771 cumulative IPC: 1.57729 (Simulation time: 0 hr 9 min 16 sec) 
Heartbeat CPU 0 instructions: 9000001 cycles: 5706113 heartbeat IPC: 1.57702 cumulative IPC: 1.57726 (Simulation time: 0 hr 10 min 28 sec) 
Heartbeat CPU 0 instructions: 10000002 cycles: 6339882 heartbeat IPC: 1.57786 cumulative IPC: 1.57732 (Simulation time: 0 hr 11 min 36 sec) 
Heartbeat CPU 0 instructions: 11000002 cycles: 6973665 heartbeat IPC: 1.57783 cumulative IPC: 1.57736 (Simulation time: 0 hr 12 min 40 sec) 
Heartbeat CPU 0 instructions: 12000000 cycles: 7607627 heartbeat IPC: 1.57738 cumulative IPC: 1.57736 (Simulation time: 0 hr 13 min 46 sec) 
Heartbeat CPU 0 instructions: 13000000 cycles: 8241675 heartbeat IPC: 1.57717 cumulative IPC: 1.57735 (Simulation time: 0 hr 14 min 55 sec) 
Heartbeat CPU 0 instructions: 14000001 cycles: 8875819 heartbeat IPC: 1.57693 cumulative IPC: 1.57732 (Simulation time: 0 hr 16 min 8 sec) 
Heartbeat CPU 0 instructions: 15000001 cycles: 9509889 heartbeat IPC: 1.57711 cumulative IPC: 1.57731 (Simulation time: 0 hr 17 min 14 sec) 
Heartbeat CPU 0 instructions: 16000000 cycles: 10143689 heartbeat IPC: 1.57778 cumulative IPC: 1.57734 (Simulation time: 0 hr 18 min 24 sec) 
Heartbeat CPU 0 instructions: 17000000 cycles: 10777662 heartbeat IPC: 1.57735 cumulative IPC: 1.57734 (Simulation time: 0 hr 19 min 28 sec) 
Heartbeat CPU 0 instructions: 18000003 cycles: 11411516 heartbeat IPC: 1.57766 cumulative IPC: 1.57735 (Simulation time: 0 hr 20 min 38 sec) 
Heartbeat CPU 0 instructions: 19000000 cycles: 12045538 heartbeat IPC: 1.57723 cumulative IPC: 1.57735 (Simulation time: 0 hr 21 min 48 sec) 
Heartbeat CPU 0 instructions: 20000000 cycles: 12679582 heartbeat IPC: 1.57718 cumulative IPC: 1.57734 (Simulation time: 0 hr 22 min 53 sec) 
Heartbeat CPU 0 instructions: 21000002 cycles: 13313738 heartbeat IPC: 1.5769 cumulative IPC: 1.57732 (Simulation time: 0 hr 24 min 3 sec) 
Heartbeat CPU 0 instructions: 22000000 cycles: 13947561 heartbeat IPC: 1.57772 cumulative IPC: 1.57734 (Simulation time: 0 hr 25 min 9 sec) 
Heartbeat CPU 0 instructions: 23000002 cycles: 14581493 heartbeat IPC: 1.57746 cumulative IPC: 1.57734 (Simulation time: 0 hr 26 min 20 sec) 
Heartbeat CPU 0 instructions: 24000000 cycles: 15215397 heartbeat IPC: 1.57752 cumulative IPC: 1.57735 (Simulation time: 0 hr 27 min 28 sec) 
Heartbeat CPU 0 instructions: 25000000 cycles: 15849451 heartbeat IPC: 1.57715 cumulative IPC: 1.57734 (Simulation time: 0 hr 28 min 34 sec) 
Heartbeat CPU 0 instructions: 26000002 cycles: 16483541 heartbeat IPC: 1.57707 cumulative IPC: 1.57733 (Simulation time: 0 hr 29 min 44 sec) 
Heartbeat CPU 0 instructions: 27000002 cycles: 17117587 heartbeat IPC: 1.57717 cumulative IPC: 1.57733 (Simulation time: 0 hr 30 min 59 sec) 
Heartbeat CPU 0 instructions: 28000000 cycles: 17751480 heartbeat IPC: 1.57755 cumulative IPC: 1.57733 (Simulation time: 0 hr 32 min 2 sec) 
Heartbeat CPU 0 instructions: 29000001 cycles: 18385488 heartbeat IPC: 1.57727 cumulative IPC: 1.57733 (Simulation time: 0 hr 33 min 11 sec) 
Heartbeat CPU 0 instructions: 30000000 cycles: 19019308 heartbeat IPC: 1.57773 cumulative IPC: 1.57734 (Simulation time: 0 hr 34 min 18 sec) 
Heartbeat CPU 0 instructions: 31000001 cycles: 19653211 heartbeat IPC: 1.57753 cumulative IPC: 1.57735 (Simulation time: 0 hr 35 min 28 sec) 
Heartbeat CPU 0 instructions: 32000000 cycles: 20287222 heartbeat IPC: 1.57726 cumulative IPC: 1.57735 (Simulation time: 0 hr 36 min 35 sec) 
Heartbeat CPU 0 instructions: 33000003 cycles: 20921397 heartbeat IPC: 1.57686 cumulative IPC: 1.57733 (Simulation time: 0 hr 37 min 40 sec) 
Heartbeat CPU 0 instructions: 34000001 cycles: 21555312 heartbeat IPC: 1.5775 cumulative IPC: 1.57734 (Simulation time: 0 hr 38 min 49 sec) 
Heartbeat CPU 0 instructions: 35000002 cycles: 22189238 heartbeat IPC: 1.57747 cumulative IPC: 1.57734 (Simulation time: 0 hr 39 min 57 sec) 
Heartbeat CPU 0 instructions: 36000000 cycles: 22823001 heartbeat IPC: 1.57787 cumulative IPC: 1.57736 (Simulation time: 0 hr 41 min 7 sec) 
Heartbeat CPU 0 instructions: 37000000 cycles: 23456982 heartbeat IPC: 1.57733 cumulative IPC: 1.57736 (Simulation time: 0 hr 42 min 12 sec) 
Heartbeat CPU 0 instructions: 38000003 cycles: 24090886 heartbeat IPC: 1.57753 cumulative IPC: 1.57736 (Simulation time: 0 hr 43 min 22 sec) 
Heartbeat CPU 0 instructions: 39000001 cycles: 24725066 heartbeat IPC: 1.57684 cumulative IPC: 1.57735 (Simulation time: 0 hr 44 min 30 sec) 
Heartbeat CPU 0 instructions: 40000000 cycles: 25359108 heartbeat IPC: 1.57718 cumulative IPC: 1.57734 (Simulation time: 0 hr 45 min 31 sec) 
Heartbeat CPU 0 instructions: 41000003 cycles: 25993245 heartbeat IPC: 1.57695 cumulative IPC: 1.57733 (Simulation time: 0 hr 46 min 44 sec) 
Heartbeat CPU 0 instructions: 42000000 cycles: 26627011 heartbeat IPC: 1.57786 cumulative IPC: 1.57735 (Simulation time: 0 hr 47 min 54 sec) 
Heartbeat CPU 0 instructions: 43000002 cycles: 27260861 heartbeat IPC: 1.57766 cumulative IPC: 1.57735 (Simulation time: 0 hr 49 min 4 sec) 
Heartbeat CPU 0 instructions: 44000000 cycles: 27894797 heartbeat IPC: 1.57744 cumulative IPC: 1.57736 (Simulation time: 0 hr 50 min 12 sec) 
Heartbeat CPU 0 instructions: 45000003 cycles: 28528944 heartbeat IPC: 1.57693 cumulative IPC: 1.57735 (Simulation time: 0 hr 51 min 11 sec) 
Heartbeat CPU 0 instructions: 46000002 cycles: 29162908 heartbeat IPC: 1.57738 cumulative IPC: 1.57735 (Simulation time: 0 hr 52 min 20 sec) 
Heartbeat CPU 0 instructions: 47000001 cycles: 29796982 heartbeat IPC: 1.5771 cumulative IPC: 1.57734 (Simulation time: 0 hr 53 min 27 sec) 
Heartbeat CPU 0 instructions: 48000000 cycles: 30430652 heartbeat IPC: 1.57811 cumulative IPC: 1.57736 (Simulation time: 0 hr 54 min 33 sec) 
Heartbeat CPU 0 instructions: 49000001 cycles: 31064695 heartbeat IPC: 1.57718 cumulative IPC: 1.57735 (Simulation time: 0 hr 55 min 41 sec) 
Heartbeat CPU 0 instructions: 50000000 cycles: 31698525 heartbeat IPC: 1.57771 cumulative IPC: 1.57736 (Simulation time: 0 hr 56 min 50 sec) 

Warmup complete CPU 0 instructions: 50000004 cycles: 31698526 (Simulation time: 0 hr 56 min 50 sec) 

Heartbeat CPU 0 instructions: 51000002 cycles: 33320049 heartbeat IPC: 0.616705 cumulative IPC: 0.616703 (Simulation time: 0 hr 58 min 8 sec) 
Heartbeat CPU 0 instructions: 52000000 cycles: 34927645 heartbeat IPC: 0.622046 cumulative IPC: 0.619363 (Simulation time: 0 hr 59 min 27 sec) 
Heartbeat CPU 0 instructions: 53000000 cycles: 36567244 heartbeat IPC: 0.609905 cumulative IPC: 0.616178 (Simulation time: 1 hr 0 min 48 sec) 
Heartbeat CPU 0 instructions: 54000000 cycles: 38154793 heartbeat IPC: 0.629902 cumulative IPC: 0.619552 (Simulation time: 1 hr 2 min 5 sec) 
Heartbeat CPU 0 instructions: 55000000 cycles: 39743655 heartbeat IPC: 0.629381 cumulative IPC: 0.621494 (Simulation time: 1 hr 3 min 9 sec) 
Heartbeat CPU 0 instructions: 56000000 cycles: 41359063 heartbeat IPC: 0.619039 cumulative IPC: 0.621083 (Simulation time: 1 hr 4 min 25 sec) 
Heartbeat CPU 0 instructions: 57000000 cycles: 43008250 heartbeat IPC: 0.606359 cumulative IPC: 0.618936 (Simulation time: 1 hr 5 min 39 sec) 
Heartbeat CPU 0 instructions: 58000001 cycles: 44621019 heartbeat IPC: 0.620052 cumulative IPC: 0.619075 (Simulation time: 1 hr 6 min 47 sec) 
Heartbeat CPU 0 instructions: 59000001 cycles: 46233540 heartbeat IPC: 0.620147 cumulative IPC: 0.619194 (Simulation time: 1 hr 7 min 59 sec) 
Heartbeat CPU 0 instructions: 60000000 cycles: 47856020 heartbeat IPC: 0.61634 cumulative IPC: 0.618908 (Simulation time: 1 hr 9 min 0 sec) 
Heartbeat CPU 0 instructions: 61000001 cycles: 49436811 heartbeat IPC: 0.632595 cumulative IPC: 0.620127 (Simulation time: 1 hr 10 min 6 sec) 
Heartbeat CPU 0 instructions: 62000000 cycles: 51028891 heartbeat IPC: 0.628109 cumulative IPC: 0.620785 (Simulation time: 1 hr 11 min 10 sec) 
Heartbeat CPU 0 instructions: 63000003 cycles: 52645722 heartbeat IPC: 0.618496 cumulative IPC: 0.620608 (Simulation time: 1 hr 12 min 16 sec) 
Heartbeat CPU 0 instructions: 64000000 cycles: 54258679 heartbeat IPC: 0.619977 cumulative IPC: 0.620563 (Simulation time: 1 hr 13 min 18 sec) 
Heartbeat CPU 0 instructions: 65000003 cycles: 55889038 heartbeat IPC: 0.613364 cumulative IPC: 0.620078 (Simulation time: 1 hr 14 min 18 sec) 
Heartbeat CPU 0 instructions: 66000000 cycles: 57479164 heartbeat IPC: 0.628879 cumulative IPC: 0.620621 (Simulation time: 1 hr 15 min 19 sec) 
Heartbeat CPU 0 instructions: 67000000 cycles: 59081407 heartbeat IPC: 0.624125 cumulative IPC: 0.620826 (Simulation time: 1 hr 16 min 15 sec) 
Heartbeat CPU 0 instructions: 68000000 cycles: 60685024 heartbeat IPC: 0.62359 cumulative IPC: 0.620979 (Simulation time: 1 hr 17 min 11 sec) 
Heartbeat CPU 0 instructions: 69000000 cycles: 62266918 heartbeat IPC: 0.632154 cumulative IPC: 0.621557 (Simulation time: 1 hr 18 min 0 sec) 
Heartbeat CPU 0 instructions: 70000002 cycles: 63898097 heartbeat IPC: 0.613055 cumulative IPC: 0.621126 (Simulation time: 1 hr 18 min 46 sec) 
Heartbeat CPU 0 instructions: 71000002 cycles: 65563581 heartbeat IPC: 0.600426 cumulative IPC: 0.620108 (Simulation time: 1 hr 19 min 31 sec) 
Heartbeat CPU 0 instructions: 72000000 cycles: 67329205 heartbeat IPC: 0.566371 cumulative IPC: 0.617445 (Simulation time: 1 hr 20 min 14 sec) 
Heartbeat CPU 0 instructions: 73000000 cycles: 69004767 heartbeat IPC: 0.596815 cumulative IPC: 0.616519 (Simulation time: 1 hr 20 min 49 sec) 
Heartbeat CPU 0 instructions: 74000001 cycles: 70680812 heartbeat IPC: 0.596643 cumulative IPC: 0.615664 (Simulation time: 1 hr 21 min 28 sec) 
Heartbeat CPU 0 instructions: 75000003 cycles: 72348730 heartbeat IPC: 0.599551 cumulative IPC: 0.615003 (Simulation time: 1 hr 22 min 3 sec) 
Heartbeat CPU 0 instructions: 76000000 cycles: 74010250 heartbeat IPC: 0.601857 cumulative IPC: 0.614487 (Simulation time: 1 hr 22 min 29 sec) 
Heartbeat CPU 0 instructions: 77000000 cycles: 75693816 heartbeat IPC: 0.593977 cumulative IPC: 0.613702 (Simulation time: 1 hr 22 min 57 sec) 
Heartbeat CPU 0 instructions: 78000001 cycles: 77365479 heartbeat IPC: 0.598207 cumulative IPC: 0.613135 (Simulation time: 1 hr 23 min 25 sec) 
Heartbeat CPU 0 instructions: 79000003 cycles: 79042976 heartbeat IPC: 0.596127 cumulative IPC: 0.612532 (Simulation time: 1 hr 23 min 53 sec) 
Heartbeat CPU 0 instructions: 80000000 cycles: 80736765 heartbeat IPC: 0.590391 cumulative IPC: 0.611767 (Simulation time: 1 hr 24 min 21 sec) 
Heartbeat CPU 0 instructions: 81000001 cycles: 82421491 heartbeat IPC: 0.593569 cumulative IPC: 0.611163 (Simulation time: 1 hr 24 min 47 sec) 
Heartbeat CPU 0 instructions: 82000000 cycles: 84113788 heartbeat IPC: 0.590912 cumulative IPC: 0.610509 (Simulation time: 1 hr 25 min 10 sec) 
Heartbeat CPU 0 instructions: 83000001 cycles: 85792109 heartbeat IPC: 0.595834 cumulative IPC: 0.610054 (Simulation time: 1 hr 25 min 34 sec) 
Heartbeat CPU 0 instructions: 84000000 cycles: 87478657 heartbeat IPC: 0.592927 cumulative IPC: 0.609536 (Simulation time: 1 hr 25 min 56 sec) 
Heartbeat CPU 0 instructions: 85000000 cycles: 89165499 heartbeat IPC: 0.592824 cumulative IPC: 0.609045 (Simulation time: 1 hr 26 min 19 sec) 
Heartbeat CPU 0 instructions: 86000000 cycles: 90845017 heartbeat IPC: 0.595409 cumulative IPC: 0.608658 (Simulation time: 1 hr 26 min 34 sec) 
Heartbeat CPU 0 instructions: 87000001 cycles: 92533759 heartbeat IPC: 0.592157 cumulative IPC: 0.6082 (Simulation time: 1 hr 26 min 49 sec) 
Heartbeat CPU 0 instructions: 88000000 cycles: 94216119 heartbeat IPC: 0.594402 cumulative IPC: 0.607829 (Simulation time: 1 hr 27 min 5 sec) 
Heartbeat CPU 0 instructions: 89000003 cycles: 95900125 heartbeat IPC: 0.593824 cumulative IPC: 0.607462 (Simulation time: 1 hr 27 min 18 sec) 
Heartbeat CPU 0 instructions: 90000000 cycles: 97588879 heartbeat IPC: 0.592151 cumulative IPC: 0.607069 (Simulation time: 1 hr 27 min 32 sec) 
Heartbeat CPU 0 instructions: 91000001 cycles: 99271103 heartbeat IPC: 0.594452 cumulative IPC: 0.606755 (Simulation time: 1 hr 27 min 46 sec) 
Heartbeat CPU 0 instructions: 92000000 cycles: 100960835 heartbeat IPC: 0.591809 cumulative IPC: 0.60639 (Simulation time: 1 hr 27 min 59 sec) 
Heartbeat CPU 0 instructions: 93000003 cycles: 102645995 heartbeat IPC: 0.593417 cumulative IPC: 0.606082 (Simulation time: 1 hr 28 min 11 sec) 
Heartbeat CPU 0 instructions: 94000002 cycles: 104325430 heartbeat IPC: 0.595438 cumulative IPC: 0.605836 (Simulation time: 1 hr 28 min 23 sec) 
Heartbeat CPU 0 instructions: 95000000 cycles: 106018670 heartbeat IPC: 0.590583 cumulative IPC: 0.605489 (Simulation time: 1 hr 28 min 36 sec) 
Heartbeat CPU 0 instructions: 96000000 cycles: 107706630 heartbeat IPC: 0.592431 cumulative IPC: 0.605199 (Simulation time: 1 hr 28 min 49 sec) 
Heartbeat CPU 0 instructions: 97000003 cycles: 109394040 heartbeat IPC: 0.592626 cumulative IPC: 0.604926 (Simulation time: 1 hr 29 min 0 sec) 
Heartbeat CPU 0 instructions: 98000000 cycles: 111082645 heartbeat IPC: 0.592203 cumulative IPC: 0.604655 (Simulation time: 1 hr 29 min 11 sec) 
Heartbeat CPU 0 instructions: 99000001 cycles: 112769640 heartbeat IPC: 0.592771 cumulative IPC: 0.604408 (Simulation time: 1 hr 29 min 20 sec) 
Heartbeat CPU 0 instructions: 100000000 cycles: 114464817 heartbeat IPC: 0.589908 cumulative IPC: 0.604111 (Simulation time: 1 hr 29 min 30 sec) 
Heartbeat CPU 0 instructions: 101000001 cycles: 116141018 heartbeat IPC: 0.596588 cumulative IPC: 0.603961 (Simulation time: 1 hr 29 min 38 sec) 
Heartbeat CPU 0 instructions: 102000002 cycles: 117822292 heartbeat IPC: 0.594788 cumulative IPC: 0.603782 (Simulation time: 1 hr 29 min 46 sec) 
Heartbeat CPU 0 instructions: 103000000 cycles: 119501699 heartbeat IPC: 0.595447 cumulative IPC: 0.603623 (Simulation time: 1 hr 29 min 54 sec) 
Heartbeat CPU 0 instructions: 104000000 cycles: 121180436 heartbeat IPC: 0.595686 cumulative IPC: 0.603474 (Simulation time: 1 hr 30 min 4 sec) 
Heartbeat CPU 0 instructions: 105000000 cycles: 122863275 heartbeat IPC: 0.594234 cumulative IPC: 0.603303 (Simulation time: 1 hr 30 min 13 sec) 
Heartbeat CPU 0 instructions: 106000002 cycles: 124540352 heartbeat IPC: 0.596277 cumulative IPC: 0.603176 (Simulation time: 1 hr 30 min 21 sec) 
Heartbeat CPU 0 instructions: 107000000 cycles: 126227583 heartbeat IPC: 0.592686 cumulative IPC: 0.602989 (Simulation time: 1 hr 30 min 29 sec) 
Heartbeat CPU 0 instructions: 108000000 cycles: 127913502 heartbeat IPC: 0.593148 cumulative IPC: 0.602817 (Simulation time: 1 hr 30 min 37 sec) 
Heartbeat CPU 0 instructions: 109000003 cycles: 129596199 heartbeat IPC: 0.594286 cumulative IPC: 0.60267 (Simulation time: 1 hr 30 min 44 sec) 
Heartbeat CPU 0 instructions: 110000001 cycles: 131280898 heartbeat IPC: 0.593577 cumulative IPC: 0.602516 (Simulation time: 1 hr 30 min 52 sec) 
Heartbeat CPU 0 instructions: 111000001 cycles: 132955844 heartbeat IPC: 0.597034 cumulative IPC: 0.602426 (Simulation time: 1 hr 30 min 59 sec) 
Heartbeat CPU 0 instructions: 112000000 cycles: 134633073 heartbeat IPC: 0.596221 cumulative IPC: 0.602324 (Simulation time: 1 hr 31 min 6 sec) 
Heartbeat CPU 0 instructions: 113000002 cycles: 136309847 heartbeat IPC: 0.596384 cumulative IPC: 0.602229 (Simulation time: 1 hr 31 min 13 sec) 
Heartbeat CPU 0 instructions: 114000002 cycles: 137988530 heartbeat IPC: 0.595705 cumulative IPC: 0.602126 (Simulation time: 1 hr 31 min 18 sec) 
Heartbeat CPU 0 instructions: 115000002 cycles: 139674803 heartbeat IPC: 0.593024 cumulative IPC: 0.601984 (Simulation time: 1 hr 31 min 25 sec) 
Heartbeat CPU 0 instructions: 116000000 cycles: 141353990 heartbeat IPC: 0.595525 cumulative IPC: 0.601885 (Simulation time: 1 hr 31 min 30 sec) 
Heartbeat CPU 0 instructions: 117000001 cycles: 143035592 heartbeat IPC: 0.594672 cumulative IPC: 0.601776 (Simulation time: 1 hr 31 min 36 sec) 
Heartbeat CPU 0 instructions: 118000002 cycles: 144718883 heartbeat IPC: 0.594075 cumulative IPC: 0.601662 (Simulation time: 1 hr 31 min 41 sec) 
Heartbeat CPU 0 instructions: 119000001 cycles: 146404697 heartbeat IPC: 0.593185 cumulative IPC: 0.601537 (Simulation time: 1 hr 31 min 47 sec) 
Heartbeat CPU 0 instructions: 120000000 cycles: 148671864 heartbeat IPC: 0.441079 cumulative IPC: 0.598427 (Simulation time: 1 hr 31 min 52 sec) 
Heartbeat CPU 0 instructions: 121000000 cycles: 157471449 heartbeat IPC: 0.113642 cumulative IPC: 0.564509 (Simulation time: 1 hr 32 min 3 sec) 
Heartbeat CPU 0 instructions: 122000002 cycles: 166281805 heartbeat IPC: 0.113503 cumulative IPC: 0.534985 (Simulation time: 1 hr 32 min 13 sec) 
Heartbeat CPU 0 instructions: 123000002 cycles: 175048599 heartbeat IPC: 0.114067 cumulative IPC: 0.509243 (Simulation time: 1 hr 32 min 23 sec) 
Heartbeat CPU 0 instructions: 124000000 cycles: 183871053 heartbeat IPC: 0.113347 cumulative IPC: 0.48629 (Simulation time: 1 hr 32 min 33 sec) 
Heartbeat CPU 0 instructions: 125000001 cycles: 186502930 heartbeat IPC: 0.379957 cumulative IPC: 0.484482 (Simulation time: 1 hr 32 min 38 sec) 
Heartbeat CPU 0 instructions: 126000003 cycles: 188078896 heartbeat IPC: 0.634533 cumulative IPC: 0.485994 (Simulation time: 1 hr 32 min 43 sec) 
Heartbeat CPU 0 instructions: 127000000 cycles: 189661785 heartbeat IPC: 0.631754 cumulative IPC: 0.487455 (Simulation time: 1 hr 32 min 48 sec) 
Heartbeat CPU 0 instructions: 128000000 cycles: 191252674 heartbeat IPC: 0.628579 cumulative IPC: 0.488862 (Simulation time: 1 hr 32 min 53 sec) 
Heartbeat CPU 0 instructions: 129000001 cycles: 192847208 heartbeat IPC: 0.627143 cumulative IPC: 0.490231 (Simulation time: 1 hr 32 min 59 sec) 
Heartbeat CPU 0 instructions: 130000003 cycles: 194446668 heartbeat IPC: 0.625212 cumulative IPC: 0.491557 (Simulation time: 1 hr 33 min 4 sec) 
Heartbeat CPU 0 instructions: 131000001 cycles: 196049625 heartbeat IPC: 0.623846 cumulative IPC: 0.492847 (Simulation time: 1 hr 33 min 9 sec) 
Heartbeat CPU 0 instructions: 132000000 cycles: 197649660 heartbeat IPC: 0.624986 cumulative IPC: 0.494121 (Simulation time: 1 hr 33 min 14 sec) 
Heartbeat CPU 0 instructions: 133000002 cycles: 199247122 heartbeat IPC: 0.625994 cumulative IPC: 0.495379 (Simulation time: 1 hr 33 min 20 sec) 
Heartbeat CPU 0 instructions: 134000000 cycles: 200846056 heartbeat IPC: 0.625415 cumulative IPC: 0.496608 (Simulation time: 1 hr 33 min 25 sec) 
Heartbeat CPU 0 instructions: 135000003 cycles: 202451402 heartbeat IPC: 0.622921 cumulative IPC: 0.497795 (Simulation time: 1 hr 33 min 30 sec) 
Heartbeat CPU 0 instructions: 136000000 cycles: 204059827 heartbeat IPC: 0.621724 cumulative IPC: 0.498952 (Simulation time: 1 hr 33 min 35 sec) 
Heartbeat CPU 0 instructions: 137000003 cycles: 205658627 heartbeat IPC: 0.625471 cumulative IPC: 0.500115 (Simulation time: 1 hr 33 min 41 sec) 
Heartbeat CPU 0 instructions: 138000000 cycles: 207262997 heartbeat IPC: 0.623296 cumulative IPC: 0.50124 (Simulation time: 1 hr 33 min 46 sec) 
Heartbeat CPU 0 instructions: 139000002 cycles: 208868577 heartbeat IPC: 0.622829 cumulative IPC: 0.502342 (Simulation time: 1 hr 33 min 51 sec) 
Heartbeat CPU 0 instructions: 140000000 cycles: 210466990 heartbeat IPC: 0.625619 cumulative IPC: 0.503444 (Simulation time: 1 hr 33 min 56 sec) 
Heartbeat CPU 0 instructions: 141000000 cycles: 212077727 heartbeat IPC: 0.620834 cumulative IPC: 0.504493 (Simulation time: 1 hr 34 min 1 sec) 
Heartbeat CPU 0 instructions: 142000001 cycles: 213673180 heartbeat IPC: 0.626782 cumulative IPC: 0.505565 (Simulation time: 1 hr 34 min 7 sec) 
Heartbeat CPU 0 instructions: 143000001 cycles: 215268086 heartbeat IPC: 0.626996 cumulative IPC: 0.50662 (Simulation time: 1 hr 34 min 12 sec) 
Heartbeat CPU 0 instructions: 144000000 cycles: 216867017 heartbeat IPC: 0.625417 cumulative IPC: 0.507646 (Simulation time: 1 hr 34 min 17 sec) 
Heartbeat CPU 0 instructions: 145000000 cycles: 218457359 heartbeat IPC: 0.628796 cumulative IPC: 0.508677 (Simulation time: 1 hr 34 min 22 sec) 
Heartbeat CPU 0 instructions: 146000002 cycles: 220061760 heartbeat IPC: 0.623287 cumulative IPC: 0.509654 (Simulation time: 1 hr 34 min 28 sec) 
Heartbeat CPU 0 instructions: 147000002 cycles: 221661698 heartbeat IPC: 0.625024 cumulative IPC: 0.510625 (Simulation time: 1 hr 34 min 33 sec) 
Heartbeat CPU 0 instructions: 148000000 cycles: 223258837 heartbeat IPC: 0.626118 cumulative IPC: 0.511588 (Simulation time: 1 hr 34 min 38 sec) 
Heartbeat CPU 0 instructions: 149000000 cycles: 224866246 heartbeat IPC: 0.622119 cumulative IPC: 0.512508 (Simulation time: 1 hr 34 min 44 sec) 
Heartbeat CPU 0 instructions: 150000002 cycles: 226471740 heartbeat IPC: 0.622863 cumulative IPC: 0.513418 (Simulation time: 1 hr 34 min 49 sec) 
Finished CPU 0 instructions: 100000002 cycles: 194773215 cummulative IPC: 0.513418 (Simulation time: 1 hr 34 min 49 sec) 

ChampSim completed all CPUs

Region of Interest Statistics

CPU 0 cummulative IPC: 0.513418 instructions: 100000002 cycles: 194773215
LLC TOTAL     ACCESS:    5929123  HIT:     989707  MISS:    4939416
LLC LOAD      ACCESS:    1303535  HIT:     213324  MISS:    1090211
LLC RFO       ACCESS:         26  HIT:          1  MISS:         25
LLC PREFETCH  ACCESS:    3083584  HIT:     401697  MISS:    2681887
LLC WRITEBACK ACCESS:    1541978  HIT:     374685  MISS:    1167293
OPTgen accesses: 22703
OPTgen hits: 7604
OPTgen hit rate: 33.4934


