
*** ChampSim Multicore Out-of-Order Simulator ***

Warmup Instructions: 50000000
Simulation Instructions: 100000000
Configuration: 2
Number of CPUs: 1
LLC sets: 2048
LLC ways: 16
Off-chip DRAM Channels: 1 Width: 64-bit Data Rate: 1600 MT/s

CPU 0 runs /datasets/cs240c-wi22-a00-public/data/Assignment2-gz/lbm_564B.trace.gz
CPU 0 L1D next line prefetcher
CPU 0 L2C IP-based stride prefetcher
Initialize Hawkeye state
Heartbeat CPU 0 instructions: 1000000 cycles: 390168 heartbeat IPC: 2.563 cumulative IPC: 2.563 (Simulation time: 0 hr 0 min 32 sec) 
Heartbeat CPU 0 instructions: 2000003 cycles: 785204 heartbeat IPC: 2.53142 cumulative IPC: 2.54711 (Simulation time: 0 hr 1 min 4 sec) 
Heartbeat CPU 0 instructions: 3000002 cycles: 1175398 heartbeat IPC: 2.56283 cumulative IPC: 2.55233 (Simulation time: 0 hr 1 min 40 sec) 
Heartbeat CPU 0 instructions: 4000000 cycles: 1565576 heartbeat IPC: 2.56293 cumulative IPC: 2.55497 (Simulation time: 0 hr 2 min 7 sec) 
Heartbeat CPU 0 instructions: 5000000 cycles: 1960691 heartbeat IPC: 2.53091 cumulative IPC: 2.55012 (Simulation time: 0 hr 2 min 35 sec) 
Heartbeat CPU 0 instructions: 6000002 cycles: 2350849 heartbeat IPC: 2.56307 cumulative IPC: 2.55227 (Simulation time: 0 hr 3 min 3 sec) 
Heartbeat CPU 0 instructions: 7000001 cycles: 2741103 heartbeat IPC: 2.56243 cumulative IPC: 2.55372 (Simulation time: 0 hr 3 min 33 sec) 
Heartbeat CPU 0 instructions: 8000000 cycles: 3136084 heartbeat IPC: 2.53176 cumulative IPC: 2.55095 (Simulation time: 0 hr 4 min 1 sec) 
Heartbeat CPU 0 instructions: 9000000 cycles: 3526323 heartbeat IPC: 2.56253 cumulative IPC: 2.55223 (Simulation time: 0 hr 4 min 32 sec) 
Heartbeat CPU 0 instructions: 10000002 cycles: 3916474 heartbeat IPC: 2.56312 cumulative IPC: 2.55332 (Simulation time: 0 hr 5 min 4 sec) 
Heartbeat CPU 0 instructions: 11000000 cycles: 4306710 heartbeat IPC: 2.56255 cumulative IPC: 2.55415 (Simulation time: 0 hr 5 min 35 sec) 
Heartbeat CPU 0 instructions: 12000000 cycles: 4701676 heartbeat IPC: 2.53186 cumulative IPC: 2.55228 (Simulation time: 0 hr 6 min 6 sec) 
Heartbeat CPU 0 instructions: 13000001 cycles: 5091893 heartbeat IPC: 2.56268 cumulative IPC: 2.55308 (Simulation time: 0 hr 6 min 36 sec) 
Heartbeat CPU 0 instructions: 14000003 cycles: 5482082 heartbeat IPC: 2.56287 cumulative IPC: 2.55377 (Simulation time: 0 hr 7 min 6 sec) 
Heartbeat CPU 0 instructions: 15000000 cycles: 5877143 heartbeat IPC: 2.53125 cumulative IPC: 2.55226 (Simulation time: 0 hr 7 min 37 sec) 
Heartbeat CPU 0 instructions: 16000000 cycles: 6267347 heartbeat IPC: 2.56276 cumulative IPC: 2.55291 (Simulation time: 0 hr 8 min 9 sec) 
Heartbeat CPU 0 instructions: 17000000 cycles: 6657532 heartbeat IPC: 2.56289 cumulative IPC: 2.5535 (Simulation time: 0 hr 8 min 39 sec) 
Heartbeat CPU 0 instructions: 18000000 cycles: 7052608 heartbeat IPC: 2.53116 cumulative IPC: 2.55225 (Simulation time: 0 hr 9 min 7 sec) 
Heartbeat CPU 0 instructions: 19000001 cycles: 7442769 heartbeat IPC: 2.56305 cumulative IPC: 2.55281 (Simulation time: 0 hr 9 min 35 sec) 
Heartbeat CPU 0 instructions: 20000000 cycles: 7832951 heartbeat IPC: 2.5629 cumulative IPC: 2.55332 (Simulation time: 0 hr 10 min 5 sec) 
Heartbeat CPU 0 instructions: 21000003 cycles: 8223134 heartbeat IPC: 2.56291 cumulative IPC: 2.55377 (Simulation time: 0 hr 10 min 36 sec) 
Heartbeat CPU 0 instructions: 22000002 cycles: 8687164 heartbeat IPC: 2.15503 cumulative IPC: 2.53247 (Simulation time: 0 hr 11 min 14 sec) 
Heartbeat CPU 0 instructions: 23000003 cycles: 9180369 heartbeat IPC: 2.02756 cumulative IPC: 2.50535 (Simulation time: 0 hr 11 min 52 sec) 
Heartbeat CPU 0 instructions: 24000000 cycles: 10024378 heartbeat IPC: 1.18482 cumulative IPC: 2.39416 (Simulation time: 0 hr 12 min 47 sec) 
Heartbeat CPU 0 instructions: 25000003 cycles: 10553024 heartbeat IPC: 1.89163 cumulative IPC: 2.36899 (Simulation time: 0 hr 13 min 23 sec) 
Heartbeat CPU 0 instructions: 26000002 cycles: 11043361 heartbeat IPC: 2.03941 cumulative IPC: 2.35436 (Simulation time: 0 hr 13 min 58 sec) 
Heartbeat CPU 0 instructions: 27000001 cycles: 11433643 heartbeat IPC: 2.56225 cumulative IPC: 2.36145 (Simulation time: 0 hr 14 min 29 sec) 
Heartbeat CPU 0 instructions: 28000000 cycles: 11823992 heartbeat IPC: 2.56181 cumulative IPC: 2.36807 (Simulation time: 0 hr 14 min 57 sec) 
Heartbeat CPU 0 instructions: 29000002 cycles: 12214297 heartbeat IPC: 2.5621 cumulative IPC: 2.37427 (Simulation time: 0 hr 15 min 29 sec) 
Heartbeat CPU 0 instructions: 30000000 cycles: 12609424 heartbeat IPC: 2.53083 cumulative IPC: 2.37917 (Simulation time: 0 hr 15 min 58 sec) 
Heartbeat CPU 0 instructions: 31000000 cycles: 12999742 heartbeat IPC: 2.56201 cumulative IPC: 2.38466 (Simulation time: 0 hr 16 min 27 sec) 
Heartbeat CPU 0 instructions: 32000000 cycles: 13390068 heartbeat IPC: 2.56196 cumulative IPC: 2.38983 (Simulation time: 0 hr 16 min 56 sec) 
Heartbeat CPU 0 instructions: 33000001 cycles: 13785214 heartbeat IPC: 2.53071 cumulative IPC: 2.39387 (Simulation time: 0 hr 17 min 25 sec) 
Heartbeat CPU 0 instructions: 34000001 cycles: 14175426 heartbeat IPC: 2.56271 cumulative IPC: 2.39852 (Simulation time: 0 hr 17 min 53 sec) 
Heartbeat CPU 0 instructions: 35000002 cycles: 14565779 heartbeat IPC: 2.56179 cumulative IPC: 2.40289 (Simulation time: 0 hr 18 min 22 sec) 
Heartbeat CPU 0 instructions: 36000000 cycles: 14956031 heartbeat IPC: 2.56244 cumulative IPC: 2.40706 (Simulation time: 0 hr 18 min 59 sec) 
Heartbeat CPU 0 instructions: 37000003 cycles: 15351120 heartbeat IPC: 2.53108 cumulative IPC: 2.41025 (Simulation time: 0 hr 19 min 31 sec) 
Heartbeat CPU 0 instructions: 38000003 cycles: 15741407 heartbeat IPC: 2.56222 cumulative IPC: 2.41402 (Simulation time: 0 hr 20 min 1 sec) 
Heartbeat CPU 0 instructions: 39000002 cycles: 16131762 heartbeat IPC: 2.56177 cumulative IPC: 2.41759 (Simulation time: 0 hr 20 min 35 sec) 
Heartbeat CPU 0 instructions: 40000000 cycles: 16526799 heartbeat IPC: 2.5314 cumulative IPC: 2.42031 (Simulation time: 0 hr 21 min 4 sec) 
Heartbeat CPU 0 instructions: 41000000 cycles: 16917103 heartbeat IPC: 2.56211 cumulative IPC: 2.42358 (Simulation time: 0 hr 21 min 35 sec) 
Heartbeat CPU 0 instructions: 42000002 cycles: 17307459 heartbeat IPC: 2.56177 cumulative IPC: 2.4267 (Simulation time: 0 hr 22 min 4 sec) 
Heartbeat CPU 0 instructions: 43000001 cycles: 17702577 heartbeat IPC: 2.53089 cumulative IPC: 2.42902 (Simulation time: 0 hr 22 min 33 sec) 
Heartbeat CPU 0 instructions: 44000000 cycles: 18092866 heartbeat IPC: 2.5622 cumulative IPC: 2.4319 (Simulation time: 0 hr 23 min 7 sec) 
Heartbeat CPU 0 instructions: 45000001 cycles: 18483215 heartbeat IPC: 2.56181 cumulative IPC: 2.43464 (Simulation time: 0 hr 23 min 38 sec) 
Heartbeat CPU 0 instructions: 46000002 cycles: 18873528 heartbeat IPC: 2.56205 cumulative IPC: 2.43728 (Simulation time: 0 hr 24 min 7 sec) 
Heartbeat CPU 0 instructions: 47000002 cycles: 19268571 heartbeat IPC: 2.53137 cumulative IPC: 2.43921 (Simulation time: 0 hr 24 min 37 sec) 
Heartbeat CPU 0 instructions: 48000000 cycles: 19658896 heartbeat IPC: 2.56196 cumulative IPC: 2.44164 (Simulation time: 0 hr 25 min 10 sec) 
Heartbeat CPU 0 instructions: 49000003 cycles: 20049230 heartbeat IPC: 2.56192 cumulative IPC: 2.44398 (Simulation time: 0 hr 25 min 41 sec) 
Heartbeat CPU 0 instructions: 50000002 cycles: 20444346 heartbeat IPC: 2.5309 cumulative IPC: 2.44566 (Simulation time: 0 hr 26 min 13 sec) 

Warmup complete CPU 0 instructions: 50000002 cycles: 20444346 (Simulation time: 0 hr 26 min 13 sec) 

Heartbeat CPU 0 instructions: 51000002 cycles: 21862036 heartbeat IPC: 0.705373 cumulative IPC: 0.705373 (Simulation time: 0 hr 26 min 50 sec) 
Heartbeat CPU 0 instructions: 52000000 cycles: 23296565 heartbeat IPC: 0.697092 cumulative IPC: 0.701208 (Simulation time: 0 hr 27 min 25 sec) 
Heartbeat CPU 0 instructions: 53000001 cycles: 24741045 heartbeat IPC: 0.692291 cumulative IPC: 0.69821 (Simulation time: 0 hr 28 min 0 sec) 
Heartbeat CPU 0 instructions: 54000001 cycles: 26212950 heartbeat IPC: 0.679392 cumulative IPC: 0.693408 (Simulation time: 0 hr 28 min 37 sec) 
Heartbeat CPU 0 instructions: 55000002 cycles: 27615845 heartbeat IPC: 0.712812 cumulative IPC: 0.697204 (Simulation time: 0 hr 29 min 14 sec) 
Heartbeat CPU 0 instructions: 56000000 cycles: 29039788 heartbeat IPC: 0.702274 cumulative IPC: 0.698044 (Simulation time: 0 hr 29 min 49 sec) 
Heartbeat CPU 0 instructions: 57000001 cycles: 30518384 heartbeat IPC: 0.676318 cumulative IPC: 0.694855 (Simulation time: 0 hr 30 min 31 sec) 
Heartbeat CPU 0 instructions: 58000002 cycles: 32013139 heartbeat IPC: 0.669007 cumulative IPC: 0.691516 (Simulation time: 0 hr 31 min 12 sec) 
Heartbeat CPU 0 instructions: 59000001 cycles: 33445279 heartbeat IPC: 0.698255 cumulative IPC: 0.692258 (Simulation time: 0 hr 31 min 49 sec) 
Heartbeat CPU 0 instructions: 60000000 cycles: 34905870 heartbeat IPC: 0.684654 cumulative IPC: 0.69149 (Simulation time: 0 hr 32 min 22 sec) 
Heartbeat CPU 0 instructions: 61000003 cycles: 36401902 heartbeat IPC: 0.668437 cumulative IPC: 0.689329 (Simulation time: 0 hr 32 min 58 sec) 
Heartbeat CPU 0 instructions: 62000003 cycles: 37819959 heartbeat IPC: 0.70519 cumulative IPC: 0.690623 (Simulation time: 0 hr 33 min 35 sec) 
Heartbeat CPU 0 instructions: 63000000 cycles: 39277566 heartbeat IPC: 0.686054 cumulative IPC: 0.69027 (Simulation time: 0 hr 34 min 12 sec) 
Heartbeat CPU 0 instructions: 64000000 cycles: 40739729 heartbeat IPC: 0.683918 cumulative IPC: 0.689812 (Simulation time: 0 hr 34 min 52 sec) 
Heartbeat CPU 0 instructions: 65000003 cycles: 42222210 heartbeat IPC: 0.674547 cumulative IPC: 0.688773 (Simulation time: 0 hr 35 min 33 sec) 
Heartbeat CPU 0 instructions: 66000001 cycles: 43616730 heartbeat IPC: 0.717091 cumulative IPC: 0.690477 (Simulation time: 0 hr 36 min 13 sec) 
Heartbeat CPU 0 instructions: 67000001 cycles: 45149192 heartbeat IPC: 0.652545 cumulative IPC: 0.688124 (Simulation time: 0 hr 36 min 53 sec) 
Heartbeat CPU 0 instructions: 68000000 cycles: 46628134 heartbeat IPC: 0.676158 cumulative IPC: 0.687448 (Simulation time: 0 hr 37 min 28 sec) 
Heartbeat CPU 0 instructions: 69000003 cycles: 47996449 heartbeat IPC: 0.730828 cumulative IPC: 0.689603 (Simulation time: 0 hr 38 min 3 sec) 
Heartbeat CPU 0 instructions: 70000003 cycles: 49452988 heartbeat IPC: 0.686559 cumulative IPC: 0.68945 (Simulation time: 0 hr 38 min 36 sec) 
Heartbeat CPU 0 instructions: 71000000 cycles: 51017556 heartbeat IPC: 0.639152 cumulative IPC: 0.686876 (Simulation time: 0 hr 39 min 11 sec) 
Heartbeat CPU 0 instructions: 72000000 cycles: 52406522 heartbeat IPC: 0.71996 cumulative IPC: 0.688314 (Simulation time: 0 hr 39 min 46 sec) 
Heartbeat CPU 0 instructions: 73000003 cycles: 53852776 heartbeat IPC: 0.691444 cumulative IPC: 0.688449 (Simulation time: 0 hr 40 min 19 sec) 
Heartbeat CPU 0 instructions: 74000002 cycles: 55460075 heartbeat IPC: 0.622161 cumulative IPC: 0.685406 (Simulation time: 0 hr 40 min 55 sec) 
Heartbeat CPU 0 instructions: 75000002 cycles: 56926994 heartbeat IPC: 0.681701 cumulative IPC: 0.685257 (Simulation time: 0 hr 41 min 28 sec) 
Heartbeat CPU 0 instructions: 76000000 cycles: 58451499 heartbeat IPC: 0.655949 cumulative IPC: 0.684082 (Simulation time: 0 hr 42 min 2 sec) 
Heartbeat CPU 0 instructions: 77000001 cycles: 60077140 heartbeat IPC: 0.615143 cumulative IPC: 0.681254 (Simulation time: 0 hr 42 min 39 sec) 
Heartbeat CPU 0 instructions: 78000002 cycles: 61480277 heartbeat IPC: 0.71269 cumulative IPC: 0.682329 (Simulation time: 0 hr 43 min 14 sec) 
Heartbeat CPU 0 instructions: 79000000 cycles: 62906370 heartbeat IPC: 0.701215 cumulative IPC: 0.682963 (Simulation time: 0 hr 43 min 48 sec) 
Heartbeat CPU 0 instructions: 80000000 cycles: 64540275 heartbeat IPC: 0.612031 cumulative IPC: 0.680335 (Simulation time: 0 hr 44 min 24 sec) 
Heartbeat CPU 0 instructions: 81000003 cycles: 66003662 heartbeat IPC: 0.683348 cumulative IPC: 0.680432 (Simulation time: 0 hr 45 min 6 sec) 
Heartbeat CPU 0 instructions: 82000001 cycles: 67490881 heartbeat IPC: 0.672395 cumulative IPC: 0.680178 (Simulation time: 0 hr 45 min 47 sec) 
Heartbeat CPU 0 instructions: 83000001 cycles: 69099253 heartbeat IPC: 0.621747 cumulative IPC: 0.678246 (Simulation time: 0 hr 46 min 25 sec) 
Heartbeat CPU 0 instructions: 84000000 cycles: 70604676 heartbeat IPC: 0.664264 cumulative IPC: 0.677826 (Simulation time: 0 hr 47 min 0 sec) 
Heartbeat CPU 0 instructions: 85000002 cycles: 72005799 heartbeat IPC: 0.713715 cumulative IPC: 0.678802 (Simulation time: 0 hr 47 min 34 sec) 
Heartbeat CPU 0 instructions: 86000001 cycles: 73604534 heartbeat IPC: 0.625494 cumulative IPC: 0.677198 (Simulation time: 0 hr 48 min 12 sec) 
Heartbeat CPU 0 instructions: 87000003 cycles: 75095562 heartbeat IPC: 0.67068 cumulative IPC: 0.677021 (Simulation time: 0 hr 48 min 47 sec) 
Heartbeat CPU 0 instructions: 88000000 cycles: 76476560 heartbeat IPC: 0.724112 cumulative IPC: 0.678181 (Simulation time: 0 hr 49 min 21 sec) 
Heartbeat CPU 0 instructions: 89000003 cycles: 78123389 heartbeat IPC: 0.607229 cumulative IPC: 0.676156 (Simulation time: 0 hr 49 min 56 sec) 
Heartbeat CPU 0 instructions: 90000001 cycles: 79694282 heartbeat IPC: 0.636579 cumulative IPC: 0.675106 (Simulation time: 0 hr 50 min 31 sec) 
Heartbeat CPU 0 instructions: 91000000 cycles: 81135482 heartbeat IPC: 0.693866 cumulative IPC: 0.675552 (Simulation time: 0 hr 51 min 10 sec) 
Heartbeat CPU 0 instructions: 92000000 cycles: 82736851 heartbeat IPC: 0.624466 cumulative IPC: 0.674238 (Simulation time: 0 hr 51 min 48 sec) 
Heartbeat CPU 0 instructions: 93000003 cycles: 84265513 heartbeat IPC: 0.654169 cumulative IPC: 0.673758 (Simulation time: 0 hr 52 min 24 sec) 
Heartbeat CPU 0 instructions: 94000002 cycles: 85634628 heartbeat IPC: 0.730398 cumulative IPC: 0.674947 (Simulation time: 0 hr 52 min 59 sec) 
Heartbeat CPU 0 instructions: 95000001 cycles: 87205835 heartbeat IPC: 0.636453 cumulative IPC: 0.674041 (Simulation time: 0 hr 53 min 35 sec) 
Heartbeat CPU 0 instructions: 96000000 cycles: 88804129 heartbeat IPC: 0.625666 cumulative IPC: 0.67291 (Simulation time: 0 hr 54 min 12 sec) 
Heartbeat CPU 0 instructions: 97000002 cycles: 90250440 heartbeat IPC: 0.691416 cumulative IPC: 0.673294 (Simulation time: 0 hr 54 min 49 sec) 
Heartbeat CPU 0 instructions: 98000000 cycles: 91947444 heartbeat IPC: 0.589273 cumulative IPC: 0.6713 (Simulation time: 0 hr 55 min 27 sec) 
Heartbeat CPU 0 instructions: 99000001 cycles: 93484569 heartbeat IPC: 0.650566 cumulative IPC: 0.670863 (Simulation time: 0 hr 56 min 2 sec) 
Heartbeat CPU 0 instructions: 100000000 cycles: 94862006 heartbeat IPC: 0.725985 cumulative IPC: 0.671884 (Simulation time: 0 hr 56 min 40 sec) 
Heartbeat CPU 0 instructions: 101000002 cycles: 96530906 heartbeat IPC: 0.599198 cumulative IPC: 0.670289 (Simulation time: 0 hr 57 min 19 sec) 
Heartbeat CPU 0 instructions: 102000002 cycles: 98137226 heartbeat IPC: 0.622541 cumulative IPC: 0.669302 (Simulation time: 0 hr 57 min 57 sec) 
Heartbeat CPU 0 instructions: 103000001 cycles: 99588515 heartbeat IPC: 0.689042 cumulative IPC: 0.669664 (Simulation time: 0 hr 58 min 30 sec) 
Heartbeat CPU 0 instructions: 104000000 cycles: 101249447 heartbeat IPC: 0.602071 cumulative IPC: 0.668275 (Simulation time: 0 hr 59 min 11 sec) 
Heartbeat CPU 0 instructions: 105000001 cycles: 102768665 heartbeat IPC: 0.658234 cumulative IPC: 0.668089 (Simulation time: 0 hr 59 min 53 sec) 
Heartbeat CPU 0 instructions: 106000001 cycles: 104167562 heartbeat IPC: 0.714849 cumulative IPC: 0.668871 (Simulation time: 1 hr 0 min 31 sec) 
Heartbeat CPU 0 instructions: 107000001 cycles: 105872407 heartbeat IPC: 0.586564 cumulative IPC: 0.667228 (Simulation time: 1 hr 1 min 8 sec) 
Heartbeat CPU 0 instructions: 108000000 cycles: 107382186 heartbeat IPC: 0.662348 cumulative IPC: 0.667143 (Simulation time: 1 hr 1 min 50 sec) 
Heartbeat CPU 0 instructions: 109000003 cycles: 108743394 heartbeat IPC: 0.734644 cumulative IPC: 0.668184 (Simulation time: 1 hr 2 min 24 sec) 
Heartbeat CPU 0 instructions: 110000001 cycles: 110495275 heartbeat IPC: 0.570814 cumulative IPC: 0.66629 (Simulation time: 1 hr 3 min 3 sec) 
Heartbeat CPU 0 instructions: 111000002 cycles: 112048437 heartbeat IPC: 0.643848 cumulative IPC: 0.665909 (Simulation time: 1 hr 3 min 44 sec) 
Heartbeat CPU 0 instructions: 112000000 cycles: 113524233 heartbeat IPC: 0.677599 cumulative IPC: 0.666094 (Simulation time: 1 hr 4 min 22 sec) 
Heartbeat CPU 0 instructions: 113000001 cycles: 115237702 heartbeat IPC: 0.583612 cumulative IPC: 0.664604 (Simulation time: 1 hr 4 min 57 sec) 
Heartbeat CPU 0 instructions: 114000002 cycles: 116763742 heartbeat IPC: 0.655291 cumulative IPC: 0.664456 (Simulation time: 1 hr 5 min 30 sec) 
Heartbeat CPU 0 instructions: 115000002 cycles: 118204393 heartbeat IPC: 0.694131 cumulative IPC: 0.664893 (Simulation time: 1 hr 6 min 6 sec) 
Heartbeat CPU 0 instructions: 116000000 cycles: 119928258 heartbeat IPC: 0.580091 cumulative IPC: 0.663424 (Simulation time: 1 hr 6 min 41 sec) 
Heartbeat CPU 0 instructions: 117000001 cycles: 121423520 heartbeat IPC: 0.66878 cumulative IPC: 0.663503 (Simulation time: 1 hr 7 min 19 sec) 
Heartbeat CPU 0 instructions: 118000003 cycles: 122910758 heartbeat IPC: 0.672389 cumulative IPC: 0.663632 (Simulation time: 1 hr 7 min 54 sec) 
Heartbeat CPU 0 instructions: 119000002 cycles: 124579917 heartbeat IPC: 0.599104 cumulative IPC: 0.662598 (Simulation time: 1 hr 8 min 28 sec) 
Heartbeat CPU 0 instructions: 120000000 cycles: 125989157 heartbeat IPC: 0.709601 cumulative IPC: 0.663225 (Simulation time: 1 hr 9 min 2 sec) 
Heartbeat CPU 0 instructions: 121000000 cycles: 127445358 heartbeat IPC: 0.686718 cumulative IPC: 0.663545 (Simulation time: 1 hr 9 min 41 sec) 
Heartbeat CPU 0 instructions: 122000001 cycles: 129199577 heartbeat IPC: 0.570055 cumulative IPC: 0.662037 (Simulation time: 1 hr 10 min 16 sec) 
Heartbeat CPU 0 instructions: 123000002 cycles: 130607666 heartbeat IPC: 0.710183 cumulative IPC: 0.662652 (Simulation time: 1 hr 10 min 47 sec) 
Heartbeat CPU 0 instructions: 124000000 cycles: 132067183 heartbeat IPC: 0.685157 cumulative IPC: 0.662947 (Simulation time: 1 hr 11 min 17 sec) 
Heartbeat CPU 0 instructions: 125000003 cycles: 133882839 heartbeat IPC: 0.550767 cumulative IPC: 0.661151 (Simulation time: 1 hr 11 min 51 sec) 
Heartbeat CPU 0 instructions: 126000001 cycles: 135289958 heartbeat IPC: 0.710671 cumulative IPC: 0.661758 (Simulation time: 1 hr 12 min 20 sec) 
Heartbeat CPU 0 instructions: 127000001 cycles: 136773152 heartbeat IPC: 0.674221 cumulative IPC: 0.661917 (Simulation time: 1 hr 12 min 50 sec) 
Heartbeat CPU 0 instructions: 128000000 cycles: 138574159 heartbeat IPC: 0.555244 cumulative IPC: 0.660291 (Simulation time: 1 hr 13 min 22 sec) 
Heartbeat CPU 0 instructions: 129000003 cycles: 139981999 heartbeat IPC: 0.71031 cumulative IPC: 0.66088 (Simulation time: 1 hr 13 min 50 sec) 
Heartbeat CPU 0 instructions: 130000003 cycles: 141408208 heartbeat IPC: 0.70116 cumulative IPC: 0.661355 (Simulation time: 1 hr 14 min 22 sec) 
Heartbeat CPU 0 instructions: 131000000 cycles: 143165083 heartbeat IPC: 0.569191 cumulative IPC: 0.660035 (Simulation time: 1 hr 14 min 52 sec) 
Heartbeat CPU 0 instructions: 132000000 cycles: 144637823 heartbeat IPC: 0.679006 cumulative IPC: 0.66026 (Simulation time: 1 hr 15 min 20 sec) 
Heartbeat CPU 0 instructions: 133000001 cycles: 146127707 heartbeat IPC: 0.671194 cumulative IPC: 0.66039 (Simulation time: 1 hr 15 min 48 sec) 
Heartbeat CPU 0 instructions: 134000000 cycles: 147874786 heartbeat IPC: 0.572383 cumulative IPC: 0.659183 (Simulation time: 1 hr 16 min 17 sec) 
Heartbeat CPU 0 instructions: 135000003 cycles: 149256089 heartbeat IPC: 0.723956 cumulative IPC: 0.659878 (Simulation time: 1 hr 16 min 43 sec) 
Heartbeat CPU 0 instructions: 136000000 cycles: 150694705 heartbeat IPC: 0.69511 cumulative IPC: 0.660267 (Simulation time: 1 hr 17 min 8 sec) 
Heartbeat CPU 0 instructions: 137000001 cycles: 152434382 heartbeat IPC: 0.57482 cumulative IPC: 0.659141 (Simulation time: 1 hr 17 min 36 sec) 
Heartbeat CPU 0 instructions: 138000000 cycles: 153855160 heartbeat IPC: 0.703839 cumulative IPC: 0.659617 (Simulation time: 1 hr 17 min 59 sec) 
Heartbeat CPU 0 instructions: 139000003 cycles: 155292106 heartbeat IPC: 0.695922 cumulative IPC: 0.660004 (Simulation time: 1 hr 18 min 23 sec) 
Heartbeat CPU 0 instructions: 140000000 cycles: 157010629 heartbeat IPC: 0.581893 cumulative IPC: 0.659021 (Simulation time: 1 hr 18 min 48 sec) 
Heartbeat CPU 0 instructions: 141000003 cycles: 158423452 heartbeat IPC: 0.707805 cumulative IPC: 0.65952 (Simulation time: 1 hr 19 min 7 sec) 
Heartbeat CPU 0 instructions: 142000001 cycles: 159891591 heartbeat IPC: 0.681133 cumulative IPC: 0.659748 (Simulation time: 1 hr 19 min 28 sec) 
Heartbeat CPU 0 instructions: 143000000 cycles: 161542128 heartbeat IPC: 0.605863 cumulative IPC: 0.659117 (Simulation time: 1 hr 19 min 51 sec) 
Heartbeat CPU 0 instructions: 144000000 cycles: 162935836 heartbeat IPC: 0.71751 cumulative IPC: 0.659689 (Simulation time: 1 hr 20 min 10 sec) 
Heartbeat CPU 0 instructions: 145000002 cycles: 164486687 heartbeat IPC: 0.644809 cumulative IPC: 0.659528 (Simulation time: 1 hr 20 min 29 sec) 
Heartbeat CPU 0 instructions: 146000001 cycles: 166223169 heartbeat IPC: 0.575876 cumulative IPC: 0.658532 (Simulation time: 1 hr 20 min 49 sec) 
Heartbeat CPU 0 instructions: 147000000 cycles: 167629395 heartbeat IPC: 0.711123 cumulative IPC: 0.659034 (Simulation time: 1 hr 21 min 7 sec) 
Heartbeat CPU 0 instructions: 148000000 cycles: 169097603 heartbeat IPC: 0.681102 cumulative IPC: 0.659252 (Simulation time: 1 hr 21 min 25 sec) 
Heartbeat CPU 0 instructions: 149000003 cycles: 170820666 heartbeat IPC: 0.580364 cumulative IPC: 0.658348 (Simulation time: 1 hr 21 min 45 sec) 
Heartbeat CPU 0 instructions: 150000003 cycles: 172248987 heartbeat IPC: 0.700123 cumulative IPC: 0.658741 (Simulation time: 1 hr 22 min 3 sec) 
Finished CPU 0 instructions: 100000001 cycles: 151804641 cummulative IPC: 0.658741 (Simulation time: 1 hr 22 min 3 sec) 

ChampSim completed all CPUs

Region of Interest Statistics

CPU 0 cummulative IPC: 0.658741 instructions: 100000001 cycles: 151804641
LLC TOTAL     ACCESS:    5888595  HIT:    1915672  MISS:    3972923
LLC LOAD      ACCESS:     434150  HIT:      19158  MISS:     414992
LLC RFO       ACCESS:    2513649  HIT:     681434  MISS:    1832215
LLC PREFETCH  ACCESS:     426845  HIT:      23643  MISS:     403202
LLC WRITEBACK ACCESS:    2513951  HIT:    1191437  MISS:    1322514
OPTgen accesses: 69842
OPTgen hits: 22838
OPTgen hit rate: 32.6995


