
*** ChampSim Multicore Out-of-Order Simulator ***

Warmup Instructions: 50000000
Simulation Instructions: 100000000
Configuration: 2
Number of CPUs: 1
LLC sets: 2048
LLC ways: 16
Off-chip DRAM Channels: 1 Width: 64-bit Data Rate: 1600 MT/s

CPU 0 runs /datasets/cs240c-wi22-a00-public/data/Assignment2-gz/leslie3d_1116B.trace.gz
CPU 0 L1D next line prefetcher
CPU 0 L2C IP-based stride prefetcher
Initialize Hawkeye state
Heartbeat CPU 0 instructions: 1000003 cycles: 535311 heartbeat IPC: 1.86808 cumulative IPC: 1.86808 (Simulation time: 0 hr 0 min 40 sec) 
Heartbeat CPU 0 instructions: 2000003 cycles: 1071193 heartbeat IPC: 1.86608 cumulative IPC: 1.86708 (Simulation time: 0 hr 1 min 22 sec) 
Heartbeat CPU 0 instructions: 3000003 cycles: 1607887 heartbeat IPC: 1.86326 cumulative IPC: 1.8658 (Simulation time: 0 hr 1 min 54 sec) 
Heartbeat CPU 0 instructions: 4000000 cycles: 2143303 heartbeat IPC: 1.8677 cumulative IPC: 1.86628 (Simulation time: 0 hr 2 min 26 sec) 
Heartbeat CPU 0 instructions: 5000001 cycles: 2678433 heartbeat IPC: 1.86871 cumulative IPC: 1.86676 (Simulation time: 0 hr 3 min 4 sec) 
Heartbeat CPU 0 instructions: 6000001 cycles: 3213941 heartbeat IPC: 1.86739 cumulative IPC: 1.86687 (Simulation time: 0 hr 3 min 36 sec) 
Heartbeat CPU 0 instructions: 7000001 cycles: 3749958 heartbeat IPC: 1.86561 cumulative IPC: 1.86669 (Simulation time: 0 hr 4 min 9 sec) 
Heartbeat CPU 0 instructions: 8000000 cycles: 4285987 heartbeat IPC: 1.86557 cumulative IPC: 1.86655 (Simulation time: 0 hr 4 min 40 sec) 
Heartbeat CPU 0 instructions: 9000003 cycles: 4821128 heartbeat IPC: 1.86867 cumulative IPC: 1.86678 (Simulation time: 0 hr 5 min 13 sec) 
Heartbeat CPU 0 instructions: 10000002 cycles: 5356141 heartbeat IPC: 1.86911 cumulative IPC: 1.86702 (Simulation time: 0 hr 5 min 42 sec) 
Heartbeat CPU 0 instructions: 11000001 cycles: 5891902 heartbeat IPC: 1.8665 cumulative IPC: 1.86697 (Simulation time: 0 hr 6 min 17 sec) 
Heartbeat CPU 0 instructions: 12000000 cycles: 6428368 heartbeat IPC: 1.86405 cumulative IPC: 1.86673 (Simulation time: 0 hr 6 min 49 sec) 
Heartbeat CPU 0 instructions: 13000002 cycles: 6963660 heartbeat IPC: 1.86814 cumulative IPC: 1.86683 (Simulation time: 0 hr 7 min 20 sec) 
Heartbeat CPU 0 instructions: 14000003 cycles: 7498420 heartbeat IPC: 1.87 cumulative IPC: 1.86706 (Simulation time: 0 hr 7 min 54 sec) 
Heartbeat CPU 0 instructions: 15000002 cycles: 8033923 heartbeat IPC: 1.8674 cumulative IPC: 1.86708 (Simulation time: 0 hr 8 min 25 sec) 
Heartbeat CPU 0 instructions: 16000000 cycles: 8570078 heartbeat IPC: 1.86513 cumulative IPC: 1.86696 (Simulation time: 0 hr 8 min 56 sec) 
Heartbeat CPU 0 instructions: 17000003 cycles: 9106471 heartbeat IPC: 1.86431 cumulative IPC: 1.8668 (Simulation time: 0 hr 9 min 27 sec) 
Heartbeat CPU 0 instructions: 18000001 cycles: 9641520 heartbeat IPC: 1.86898 cumulative IPC: 1.86693 (Simulation time: 0 hr 9 min 57 sec) 
Heartbeat CPU 0 instructions: 19000001 cycles: 10177056 heartbeat IPC: 1.86729 cumulative IPC: 1.86694 (Simulation time: 0 hr 10 min 24 sec) 
Heartbeat CPU 0 instructions: 20000000 cycles: 10712538 heartbeat IPC: 1.86747 cumulative IPC: 1.86697 (Simulation time: 0 hr 10 min 54 sec) 
Heartbeat CPU 0 instructions: 21000000 cycles: 11249136 heartbeat IPC: 1.86359 cumulative IPC: 1.86681 (Simulation time: 0 hr 11 min 30 sec) 
Heartbeat CPU 0 instructions: 22000000 cycles: 11784328 heartbeat IPC: 1.86849 cumulative IPC: 1.86689 (Simulation time: 0 hr 12 min 2 sec) 
Heartbeat CPU 0 instructions: 23000003 cycles: 12319652 heartbeat IPC: 1.86803 cumulative IPC: 1.86694 (Simulation time: 0 hr 12 min 33 sec) 
Heartbeat CPU 0 instructions: 24000000 cycles: 12854809 heartbeat IPC: 1.8686 cumulative IPC: 1.86701 (Simulation time: 0 hr 13 min 1 sec) 
Heartbeat CPU 0 instructions: 25000001 cycles: 13390895 heartbeat IPC: 1.86537 cumulative IPC: 1.86694 (Simulation time: 0 hr 13 min 33 sec) 
Heartbeat CPU 0 instructions: 26000002 cycles: 13927341 heartbeat IPC: 1.86412 cumulative IPC: 1.86683 (Simulation time: 0 hr 14 min 2 sec) 
Heartbeat CPU 0 instructions: 27000003 cycles: 14462303 heartbeat IPC: 1.86929 cumulative IPC: 1.86692 (Simulation time: 0 hr 14 min 32 sec) 
Heartbeat CPU 0 instructions: 28000000 cycles: 14997513 heartbeat IPC: 1.86842 cumulative IPC: 1.86698 (Simulation time: 0 hr 15 min 0 sec) 
Heartbeat CPU 0 instructions: 29000000 cycles: 15533092 heartbeat IPC: 1.86714 cumulative IPC: 1.86698 (Simulation time: 0 hr 15 min 28 sec) 
Heartbeat CPU 0 instructions: 30000002 cycles: 16070042 heartbeat IPC: 1.86237 cumulative IPC: 1.86683 (Simulation time: 0 hr 15 min 54 sec) 
Heartbeat CPU 0 instructions: 31000001 cycles: 16605415 heartbeat IPC: 1.86785 cumulative IPC: 1.86686 (Simulation time: 0 hr 16 min 30 sec) 
Heartbeat CPU 0 instructions: 32000000 cycles: 17140992 heartbeat IPC: 1.86714 cumulative IPC: 1.86687 (Simulation time: 0 hr 17 min 0 sec) 
Heartbeat CPU 0 instructions: 33000001 cycles: 17676330 heartbeat IPC: 1.86798 cumulative IPC: 1.8669 (Simulation time: 0 hr 17 min 32 sec) 
Heartbeat CPU 0 instructions: 34000000 cycles: 18212140 heartbeat IPC: 1.86633 cumulative IPC: 1.86689 (Simulation time: 0 hr 18 min 3 sec) 
Heartbeat CPU 0 instructions: 35000000 cycles: 18748313 heartbeat IPC: 1.86507 cumulative IPC: 1.86683 (Simulation time: 0 hr 18 min 33 sec) 
Heartbeat CPU 0 instructions: 36000000 cycles: 19283007 heartbeat IPC: 1.87023 cumulative IPC: 1.86693 (Simulation time: 0 hr 18 min 59 sec) 
Heartbeat CPU 0 instructions: 37000003 cycles: 19865383 heartbeat IPC: 1.71711 cumulative IPC: 1.86254 (Simulation time: 0 hr 19 min 29 sec) 
Heartbeat CPU 0 instructions: 38000003 cycles: 20283635 heartbeat IPC: 2.3909 cumulative IPC: 1.87343 (Simulation time: 0 hr 20 min 0 sec) 
Heartbeat CPU 0 instructions: 39000003 cycles: 20701795 heartbeat IPC: 2.39143 cumulative IPC: 1.88389 (Simulation time: 0 hr 20 min 31 sec) 
Heartbeat CPU 0 instructions: 40000000 cycles: 21120172 heartbeat IPC: 2.39018 cumulative IPC: 1.89392 (Simulation time: 0 hr 21 min 2 sec) 
Heartbeat CPU 0 instructions: 41000002 cycles: 21538336 heartbeat IPC: 2.39141 cumulative IPC: 1.90358 (Simulation time: 0 hr 21 min 33 sec) 
Heartbeat CPU 0 instructions: 42000001 cycles: 21956188 heartbeat IPC: 2.39319 cumulative IPC: 1.9129 (Simulation time: 0 hr 22 min 3 sec) 
Heartbeat CPU 0 instructions: 43000003 cycles: 22374217 heartbeat IPC: 2.39218 cumulative IPC: 1.92186 (Simulation time: 0 hr 22 min 31 sec) 
Heartbeat CPU 0 instructions: 44000000 cycles: 22792129 heartbeat IPC: 2.39284 cumulative IPC: 1.93049 (Simulation time: 0 hr 23 min 0 sec) 
Heartbeat CPU 0 instructions: 45000002 cycles: 23210258 heartbeat IPC: 2.39161 cumulative IPC: 1.9388 (Simulation time: 0 hr 23 min 30 sec) 
Heartbeat CPU 0 instructions: 46000002 cycles: 23628166 heartbeat IPC: 2.39287 cumulative IPC: 1.94683 (Simulation time: 0 hr 23 min 58 sec) 
Heartbeat CPU 0 instructions: 47000001 cycles: 24045850 heartbeat IPC: 2.39415 cumulative IPC: 1.9546 (Simulation time: 0 hr 24 min 26 sec) 
Heartbeat CPU 0 instructions: 48000000 cycles: 24463827 heartbeat IPC: 2.39247 cumulative IPC: 1.96208 (Simulation time: 0 hr 24 min 53 sec) 
Heartbeat CPU 0 instructions: 49000000 cycles: 24921078 heartbeat IPC: 2.18698 cumulative IPC: 1.96621 (Simulation time: 0 hr 25 min 22 sec) 
Heartbeat CPU 0 instructions: 50000000 cycles: 25408364 heartbeat IPC: 2.05218 cumulative IPC: 1.96786 (Simulation time: 0 hr 25 min 52 sec) 

Warmup complete CPU 0 instructions: 50000004 cycles: 25408366 (Simulation time: 0 hr 25 min 52 sec) 

Heartbeat CPU 0 instructions: 51000003 cycles: 27745240 heartbeat IPC: 0.427923 cumulative IPC: 0.427922 (Simulation time: 0 hr 26 min 31 sec) 
Heartbeat CPU 0 instructions: 52000000 cycles: 30182292 heartbeat IPC: 0.410331 cumulative IPC: 0.418942 (Simulation time: 0 hr 27 min 10 sec) 
Heartbeat CPU 0 instructions: 53000003 cycles: 32647293 heartbeat IPC: 0.405681 cumulative IPC: 0.414426 (Simulation time: 0 hr 27 min 53 sec) 
Heartbeat CPU 0 instructions: 54000000 cycles: 35006955 heartbeat IPC: 0.423788 cumulative IPC: 0.416728 (Simulation time: 0 hr 28 min 42 sec) 
Heartbeat CPU 0 instructions: 55000002 cycles: 37357581 heartbeat IPC: 0.425419 cumulative IPC: 0.418437 (Simulation time: 0 hr 29 min 24 sec) 
Heartbeat CPU 0 instructions: 56000000 cycles: 39738016 heartbeat IPC: 0.42009 cumulative IPC: 0.418712 (Simulation time: 0 hr 30 min 6 sec) 
Heartbeat CPU 0 instructions: 57000001 cycles: 42086311 heartbeat IPC: 0.425841 cumulative IPC: 0.419716 (Simulation time: 0 hr 30 min 48 sec) 
Heartbeat CPU 0 instructions: 58000001 cycles: 44340335 heartbeat IPC: 0.443651 cumulative IPC: 0.422565 (Simulation time: 0 hr 31 min 33 sec) 
Heartbeat CPU 0 instructions: 59000000 cycles: 45608354 heartbeat IPC: 0.788631 cumulative IPC: 0.445545 (Simulation time: 0 hr 32 min 8 sec) 
Heartbeat CPU 0 instructions: 60000000 cycles: 46895725 heartbeat IPC: 0.776777 cumulative IPC: 0.46539 (Simulation time: 0 hr 32 min 41 sec) 
Heartbeat CPU 0 instructions: 61000003 cycles: 48273554 heartbeat IPC: 0.725782 cumulative IPC: 0.481081 (Simulation time: 0 hr 33 min 13 sec) 
Heartbeat CPU 0 instructions: 62000002 cycles: 49587056 heartbeat IPC: 0.761323 cumulative IPC: 0.496305 (Simulation time: 0 hr 33 min 46 sec) 
Heartbeat CPU 0 instructions: 63000003 cycles: 50761939 heartbeat IPC: 0.851149 cumulative IPC: 0.512748 (Simulation time: 0 hr 34 min 16 sec) 
Heartbeat CPU 0 instructions: 64000000 cycles: 51963504 heartbeat IPC: 0.832245 cumulative IPC: 0.527205 (Simulation time: 0 hr 34 min 50 sec) 
Heartbeat CPU 0 instructions: 65000001 cycles: 53330095 heartbeat IPC: 0.731749 cumulative IPC: 0.537216 (Simulation time: 0 hr 35 min 21 sec) 
Heartbeat CPU 0 instructions: 66000000 cycles: 54544129 heartbeat IPC: 0.823699 cumulative IPC: 0.549153 (Simulation time: 0 hr 35 min 54 sec) 
Heartbeat CPU 0 instructions: 67000001 cycles: 55778888 heartbeat IPC: 0.809875 cumulative IPC: 0.559753 (Simulation time: 0 hr 36 min 29 sec) 
Heartbeat CPU 0 instructions: 68000000 cycles: 57161529 heartbeat IPC: 0.723253 cumulative IPC: 0.566873 (Simulation time: 0 hr 37 min 1 sec) 
Heartbeat CPU 0 instructions: 69000002 cycles: 58442482 heartbeat IPC: 0.78067 cumulative IPC: 0.575163 (Simulation time: 0 hr 37 min 33 sec) 
Heartbeat CPU 0 instructions: 70000000 cycles: 59643867 heartbeat IPC: 0.832371 cumulative IPC: 0.584189 (Simulation time: 0 hr 38 min 6 sec) 
Heartbeat CPU 0 instructions: 71000002 cycles: 60863053 heartbeat IPC: 0.820221 cumulative IPC: 0.592305 (Simulation time: 0 hr 38 min 36 sec) 
Heartbeat CPU 0 instructions: 72000000 cycles: 62291062 heartbeat IPC: 0.700274 cumulative IPC: 0.596486 (Simulation time: 0 hr 39 min 7 sec) 
Heartbeat CPU 0 instructions: 73000000 cycles: 63507425 heartbeat IPC: 0.822123 cumulative IPC: 0.603689 (Simulation time: 0 hr 39 min 38 sec) 
Heartbeat CPU 0 instructions: 74000000 cycles: 64714418 heartbeat IPC: 0.828505 cumulative IPC: 0.610593 (Simulation time: 0 hr 40 min 9 sec) 
Heartbeat CPU 0 instructions: 75000002 cycles: 66146046 heartbeat IPC: 0.698507 cumulative IPC: 0.613682 (Simulation time: 0 hr 40 min 42 sec) 
Heartbeat CPU 0 instructions: 76000000 cycles: 67350042 heartbeat IPC: 0.830566 cumulative IPC: 0.619908 (Simulation time: 0 hr 41 min 13 sec) 
Heartbeat CPU 0 instructions: 77000001 cycles: 68532211 heartbeat IPC: 0.845904 cumulative IPC: 0.626104 (Simulation time: 0 hr 41 min 45 sec) 
Heartbeat CPU 0 instructions: 78000000 cycles: 69820986 heartbeat IPC: 0.77593 cumulative IPC: 0.630451 (Simulation time: 0 hr 42 min 17 sec) 
Heartbeat CPU 0 instructions: 79000001 cycles: 71146421 heartbeat IPC: 0.75447 cumulative IPC: 0.634045 (Simulation time: 0 hr 42 min 50 sec) 
Heartbeat CPU 0 instructions: 80000000 cycles: 72336529 heartbeat IPC: 0.840259 cumulative IPC: 0.639275 (Simulation time: 0 hr 43 min 24 sec) 
Heartbeat CPU 0 instructions: 81000003 cycles: 73520145 heartbeat IPC: 0.844871 cumulative IPC: 0.644333 (Simulation time: 0 hr 43 min 57 sec) 
Heartbeat CPU 0 instructions: 82000000 cycles: 74927418 heartbeat IPC: 0.710592 cumulative IPC: 0.646216 (Simulation time: 0 hr 44 min 31 sec) 
Heartbeat CPU 0 instructions: 83000001 cycles: 76111012 heartbeat IPC: 0.844885 cumulative IPC: 0.650854 (Simulation time: 0 hr 45 min 10 sec) 
Heartbeat CPU 0 instructions: 84000000 cycles: 77307876 heartbeat IPC: 0.835516 cumulative IPC: 0.655112 (Simulation time: 0 hr 45 min 51 sec) 
Heartbeat CPU 0 instructions: 85000003 cycles: 78691407 heartbeat IPC: 0.72279 cumulative IPC: 0.656869 (Simulation time: 0 hr 46 min 25 sec) 
Heartbeat CPU 0 instructions: 86000002 cycles: 79901261 heartbeat IPC: 0.826545 cumulative IPC: 0.660637 (Simulation time: 0 hr 46 min 59 sec) 
Heartbeat CPU 0 instructions: 87000001 cycles: 81089792 heartbeat IPC: 0.841374 cumulative IPC: 0.664494 (Simulation time: 0 hr 47 min 32 sec) 
Heartbeat CPU 0 instructions: 88000000 cycles: 82305266 heartbeat IPC: 0.822724 cumulative IPC: 0.667875 (Simulation time: 0 hr 48 min 7 sec) 
Heartbeat CPU 0 instructions: 89000001 cycles: 83709835 heartbeat IPC: 0.711963 cumulative IPC: 0.668937 (Simulation time: 0 hr 48 min 40 sec) 
Heartbeat CPU 0 instructions: 90000003 cycles: 84896439 heartbeat IPC: 0.842743 cumulative IPC: 0.672404 (Simulation time: 0 hr 49 min 12 sec) 
Heartbeat CPU 0 instructions: 91000000 cycles: 86089043 heartbeat IPC: 0.838499 cumulative IPC: 0.675668 (Simulation time: 0 hr 49 min 45 sec) 
Heartbeat CPU 0 instructions: 92000000 cycles: 87500312 heartbeat IPC: 0.708582 cumulative IPC: 0.676416 (Simulation time: 0 hr 50 min 16 sec) 
Heartbeat CPU 0 instructions: 93000002 cycles: 88686338 heartbeat IPC: 0.843154 cumulative IPC: 0.679541 (Simulation time: 0 hr 50 min 49 sec) 
Heartbeat CPU 0 instructions: 94000000 cycles: 89874571 heartbeat IPC: 0.841584 cumulative IPC: 0.682528 (Simulation time: 0 hr 51 min 21 sec) 
Heartbeat CPU 0 instructions: 95000003 cycles: 91183072 heartbeat IPC: 0.764236 cumulative IPC: 0.684154 (Simulation time: 0 hr 51 min 54 sec) 
Heartbeat CPU 0 instructions: 96000000 cycles: 92503215 heartbeat IPC: 0.757491 cumulative IPC: 0.685597 (Simulation time: 0 hr 52 min 28 sec) 
Heartbeat CPU 0 instructions: 97000000 cycles: 93674993 heartbeat IPC: 0.853404 cumulative IPC: 0.688477 (Simulation time: 0 hr 53 min 4 sec) 
Heartbeat CPU 0 instructions: 98000000 cycles: 94871517 heartbeat IPC: 0.835754 cumulative IPC: 0.691014 (Simulation time: 0 hr 53 min 38 sec) 
Heartbeat CPU 0 instructions: 99000003 cycles: 96282883 heartbeat IPC: 0.708536 cumulative IPC: 0.691363 (Simulation time: 0 hr 54 min 12 sec) 
Heartbeat CPU 0 instructions: 100000000 cycles: 97487313 heartbeat IPC: 0.830266 cumulative IPC: 0.693684 (Simulation time: 0 hr 54 min 48 sec) 
Heartbeat CPU 0 instructions: 101000001 cycles: 98689760 heartbeat IPC: 0.831638 cumulative IPC: 0.695947 (Simulation time: 0 hr 55 min 23 sec) 
Heartbeat CPU 0 instructions: 102000003 cycles: 100090894 heartbeat IPC: 0.713709 cumulative IPC: 0.696281 (Simulation time: 0 hr 55 min 55 sec) 
Heartbeat CPU 0 instructions: 103000002 cycles: 101306366 heartbeat IPC: 0.822725 cumulative IPC: 0.698306 (Simulation time: 0 hr 56 min 29 sec) 
Heartbeat CPU 0 instructions: 104000000 cycles: 102502036 heartbeat IPC: 0.836349 cumulative IPC: 0.700447 (Simulation time: 0 hr 57 min 2 sec) 
Heartbeat CPU 0 instructions: 105000000 cycles: 103724959 heartbeat IPC: 0.817713 cumulative IPC: 0.702278 (Simulation time: 0 hr 57 min 39 sec) 
Heartbeat CPU 0 instructions: 106000003 cycles: 105599093 heartbeat IPC: 0.533581 cumulative IPC: 0.698335 (Simulation time: 0 hr 58 min 12 sec) 
Heartbeat CPU 0 instructions: 107000002 cycles: 107238841 heartbeat IPC: 0.609849 cumulative IPC: 0.696562 (Simulation time: 0 hr 58 min 44 sec) 
Heartbeat CPU 0 instructions: 108000000 cycles: 108914999 heartbeat IPC: 0.596601 cumulative IPC: 0.694556 (Simulation time: 0 hr 59 min 17 sec) 
Heartbeat CPU 0 instructions: 109000003 cycles: 110505085 heartbeat IPC: 0.628899 cumulative IPC: 0.693329 (Simulation time: 0 hr 59 min 48 sec) 
Heartbeat CPU 0 instructions: 110000003 cycles: 112182729 heartbeat IPC: 0.596074 cumulative IPC: 0.691448 (Simulation time: 1 hr 0 min 24 sec) 
Heartbeat CPU 0 instructions: 111000003 cycles: 113772337 heartbeat IPC: 0.629086 cumulative IPC: 0.690327 (Simulation time: 1 hr 1 min 0 sec) 
Heartbeat CPU 0 instructions: 112000000 cycles: 115417076 heartbeat IPC: 0.607997 cumulative IPC: 0.688822 (Simulation time: 1 hr 1 min 36 sec) 
Heartbeat CPU 0 instructions: 113000000 cycles: 116978550 heartbeat IPC: 0.64042 cumulative IPC: 0.687997 (Simulation time: 1 hr 2 min 9 sec) 
Heartbeat CPU 0 instructions: 114000000 cycles: 118649706 heartbeat IPC: 0.598388 cumulative IPC: 0.686391 (Simulation time: 1 hr 2 min 42 sec) 
Heartbeat CPU 0 instructions: 115000000 cycles: 120220144 heartbeat IPC: 0.636765 cumulative IPC: 0.685569 (Simulation time: 1 hr 3 min 15 sec) 
Heartbeat CPU 0 instructions: 116000000 cycles: 122597454 heartbeat IPC: 0.420644 cumulative IPC: 0.679089 (Simulation time: 1 hr 3 min 52 sec) 
Heartbeat CPU 0 instructions: 117000003 cycles: 124795651 heartbeat IPC: 0.45492 cumulative IPC: 0.67413 (Simulation time: 1 hr 4 min 28 sec) 
Heartbeat CPU 0 instructions: 118000002 cycles: 127094953 heartbeat IPC: 0.434914 cumulative IPC: 0.668721 (Simulation time: 1 hr 5 min 4 sec) 
Heartbeat CPU 0 instructions: 119000002 cycles: 129518521 heartbeat IPC: 0.412615 cumulative IPC: 0.66276 (Simulation time: 1 hr 5 min 41 sec) 
Heartbeat CPU 0 instructions: 120000000 cycles: 131920623 heartbeat IPC: 0.416301 cumulative IPC: 0.657201 (Simulation time: 1 hr 6 min 26 sec) 
Heartbeat CPU 0 instructions: 121000001 cycles: 134251687 heartbeat IPC: 0.428989 cumulative IPC: 0.652314 (Simulation time: 1 hr 7 min 5 sec) 
Heartbeat CPU 0 instructions: 122000002 cycles: 136585516 heartbeat IPC: 0.428481 cumulative IPC: 0.647615 (Simulation time: 1 hr 7 min 49 sec) 
Heartbeat CPU 0 instructions: 123000001 cycles: 138944583 heartbeat IPC: 0.423896 cumulative IPC: 0.642967 (Simulation time: 1 hr 8 min 30 sec) 
Heartbeat CPU 0 instructions: 124000000 cycles: 140260420 heartbeat IPC: 0.759972 cumulative IPC: 0.644307 (Simulation time: 1 hr 8 min 59 sec) 
Heartbeat CPU 0 instructions: 125000000 cycles: 141512820 heartbeat IPC: 0.798467 cumulative IPC: 0.64597 (Simulation time: 1 hr 9 min 29 sec) 
Heartbeat CPU 0 instructions: 126000000 cycles: 142764899 heartbeat IPC: 0.798672 cumulative IPC: 0.647599 (Simulation time: 1 hr 9 min 59 sec) 
Heartbeat CPU 0 instructions: 127000003 cycles: 144018324 heartbeat IPC: 0.797816 cumulative IPC: 0.649187 (Simulation time: 1 hr 10 min 30 sec) 
Heartbeat CPU 0 instructions: 128000000 cycles: 145296739 heartbeat IPC: 0.782216 cumulative IPC: 0.650605 (Simulation time: 1 hr 10 min 58 sec) 
Heartbeat CPU 0 instructions: 129000000 cycles: 146544509 heartbeat IPC: 0.80143 cumulative IPC: 0.652159 (Simulation time: 1 hr 11 min 25 sec) 
Heartbeat CPU 0 instructions: 130000000 cycles: 147842645 heartbeat IPC: 0.770335 cumulative IPC: 0.653412 (Simulation time: 1 hr 11 min 54 sec) 
Heartbeat CPU 0 instructions: 131000000 cycles: 149070150 heartbeat IPC: 0.814661 cumulative IPC: 0.655012 (Simulation time: 1 hr 12 min 23 sec) 
Heartbeat CPU 0 instructions: 132000000 cycles: 150329736 heartbeat IPC: 0.793912 cumulative IPC: 0.656413 (Simulation time: 1 hr 12 min 50 sec) 
Heartbeat CPU 0 instructions: 133000001 cycles: 151595557 heartbeat IPC: 0.790002 cumulative IPC: 0.657753 (Simulation time: 1 hr 13 min 18 sec) 
Heartbeat CPU 0 instructions: 134000000 cycles: 152842738 heartbeat IPC: 0.801807 cumulative IPC: 0.659163 (Simulation time: 1 hr 13 min 51 sec) 
Heartbeat CPU 0 instructions: 135000001 cycles: 154133068 heartbeat IPC: 0.774996 cumulative IPC: 0.660324 (Simulation time: 1 hr 14 min 21 sec) 
Heartbeat CPU 0 instructions: 136000000 cycles: 155378374 heartbeat IPC: 0.803015 cumulative IPC: 0.661691 (Simulation time: 1 hr 14 min 48 sec) 
Heartbeat CPU 0 instructions: 137000003 cycles: 156674490 heartbeat IPC: 0.771538 cumulative IPC: 0.662776 (Simulation time: 1 hr 15 min 15 sec) 
Heartbeat CPU 0 instructions: 138000002 cycles: 157908048 heartbeat IPC: 0.810662 cumulative IPC: 0.664153 (Simulation time: 1 hr 15 min 44 sec) 
Heartbeat CPU 0 instructions: 139000000 cycles: 159172297 heartbeat IPC: 0.790982 cumulative IPC: 0.665351 (Simulation time: 1 hr 16 min 10 sec) 
Heartbeat CPU 0 instructions: 140000000 cycles: 160457912 heartbeat IPC: 0.777838 cumulative IPC: 0.666422 (Simulation time: 1 hr 16 min 36 sec) 
Heartbeat CPU 0 instructions: 141000001 cycles: 161702765 heartbeat IPC: 0.803308 cumulative IPC: 0.667672 (Simulation time: 1 hr 17 min 2 sec) 
Heartbeat CPU 0 instructions: 142000003 cycles: 163012490 heartbeat IPC: 0.763521 cumulative IPC: 0.668585 (Simulation time: 1 hr 17 min 29 sec) 
Heartbeat CPU 0 instructions: 143000003 cycles: 164257938 heartbeat IPC: 0.802924 cumulative IPC: 0.66979 (Simulation time: 1 hr 17 min 53 sec) 
Heartbeat CPU 0 instructions: 144000000 cycles: 165560684 heartbeat IPC: 0.767607 cumulative IPC: 0.670699 (Simulation time: 1 hr 18 min 15 sec) 
Heartbeat CPU 0 instructions: 145000003 cycles: 166835555 heartbeat IPC: 0.784395 cumulative IPC: 0.671724 (Simulation time: 1 hr 18 min 36 sec) 
Heartbeat CPU 0 instructions: 146000003 cycles: 168115244 heartbeat IPC: 0.78144 cumulative IPC: 0.672708 (Simulation time: 1 hr 18 min 58 sec) 
Heartbeat CPU 0 instructions: 147000003 cycles: 169405551 heartbeat IPC: 0.775009 cumulative IPC: 0.673624 (Simulation time: 1 hr 19 min 19 sec) 
Heartbeat CPU 0 instructions: 148000000 cycles: 170654378 heartbeat IPC: 0.800749 cumulative IPC: 0.674717 (Simulation time: 1 hr 19 min 39 sec) 
Heartbeat CPU 0 instructions: 149000000 cycles: 171941975 heartbeat IPC: 0.776641 cumulative IPC: 0.675613 (Simulation time: 1 hr 20 min 1 sec) 
Heartbeat CPU 0 instructions: 150000001 cycles: 173198198 heartbeat IPC: 0.796038 cumulative IPC: 0.676637 (Simulation time: 1 hr 20 min 21 sec) 
Finished CPU 0 instructions: 100000001 cycles: 147789833 cummulative IPC: 0.676637 (Simulation time: 1 hr 20 min 21 sec) 

ChampSim completed all CPUs

Region of Interest Statistics

CPU 0 cummulative IPC: 0.676637 instructions: 100000001 cycles: 147789833
LLC TOTAL     ACCESS:    4212144  HIT:    1279077  MISS:    2933067
LLC LOAD      ACCESS:     417019  HIT:     144856  MISS:     272163
LLC RFO       ACCESS:     595336  HIT:     160961  MISS:     434375
LLC PREFETCH  ACCESS:    2364410  HIT:     566172  MISS:    1798238
LLC WRITEBACK ACCESS:     835379  HIT:     407088  MISS:     428291
OPTgen accesses: 21818
OPTgen hits: 9169
OPTgen hit rate: 42.0249


