
*** ChampSim Multicore Out-of-Order Simulator ***

Warmup Instructions: 50000000
Simulation Instructions: 100000000
Configuration: 2
Number of CPUs: 1
LLC sets: 2048
LLC ways: 16
Off-chip DRAM Channels: 1 Width: 64-bit Data Rate: 1600 MT/s

CPU 0 runs /datasets/cs240c-wi22-a00-public/data/Assignment2-gz/bzip2_281B.trace.gz
CPU 0 L1D next line prefetcher
CPU 0 L2C IP-based stride prefetcher
Initialize Hawkeye state
Heartbeat CPU 0 instructions: 1000000 cycles: 445877 heartbeat IPC: 2.24277 cumulative IPC: 2.24277 (Simulation time: 0 hr 0 min 48 sec) 
Heartbeat CPU 0 instructions: 2000003 cycles: 900175 heartbeat IPC: 2.20121 cumulative IPC: 2.22179 (Simulation time: 0 hr 1 min 44 sec) 
Heartbeat CPU 0 instructions: 3000002 cycles: 1315067 heartbeat IPC: 2.41026 cumulative IPC: 2.28125 (Simulation time: 0 hr 2 min 39 sec) 
Heartbeat CPU 0 instructions: 4000000 cycles: 1753556 heartbeat IPC: 2.28055 cumulative IPC: 2.28108 (Simulation time: 0 hr 3 min 36 sec) 
Heartbeat CPU 0 instructions: 5000002 cycles: 2175545 heartbeat IPC: 2.36973 cumulative IPC: 2.29828 (Simulation time: 0 hr 4 min 27 sec) 
Heartbeat CPU 0 instructions: 6000000 cycles: 2666194 heartbeat IPC: 2.03811 cumulative IPC: 2.2504 (Simulation time: 0 hr 5 min 30 sec) 
Heartbeat CPU 0 instructions: 7000001 cycles: 3193462 heartbeat IPC: 1.89657 cumulative IPC: 2.19198 (Simulation time: 0 hr 6 min 25 sec) 
Heartbeat CPU 0 instructions: 8000000 cycles: 3726055 heartbeat IPC: 1.8776 cumulative IPC: 2.14704 (Simulation time: 0 hr 7 min 26 sec) 
Heartbeat CPU 0 instructions: 9000000 cycles: 4232472 heartbeat IPC: 1.97466 cumulative IPC: 2.12642 (Simulation time: 0 hr 8 min 25 sec) 
Heartbeat CPU 0 instructions: 10000002 cycles: 4685414 heartbeat IPC: 2.20779 cumulative IPC: 2.13428 (Simulation time: 0 hr 9 min 23 sec) 
Heartbeat CPU 0 instructions: 11000000 cycles: 5132849 heartbeat IPC: 2.23496 cumulative IPC: 2.14306 (Simulation time: 0 hr 10 min 18 sec) 
Heartbeat CPU 0 instructions: 12000000 cycles: 5613913 heartbeat IPC: 2.07873 cumulative IPC: 2.13755 (Simulation time: 0 hr 11 min 11 sec) 
Heartbeat CPU 0 instructions: 13000001 cycles: 6025312 heartbeat IPC: 2.43073 cumulative IPC: 2.15756 (Simulation time: 0 hr 12 min 9 sec) 
Heartbeat CPU 0 instructions: 14000003 cycles: 6483705 heartbeat IPC: 2.18154 cumulative IPC: 2.15926 (Simulation time: 0 hr 13 min 6 sec) 
Heartbeat CPU 0 instructions: 15000003 cycles: 6944048 heartbeat IPC: 2.17229 cumulative IPC: 2.16012 (Simulation time: 0 hr 13 min 59 sec) 
Heartbeat CPU 0 instructions: 16000000 cycles: 7339842 heartbeat IPC: 2.52656 cumulative IPC: 2.17988 (Simulation time: 0 hr 14 min 53 sec) 
Heartbeat CPU 0 instructions: 17000000 cycles: 7729021 heartbeat IPC: 2.56951 cumulative IPC: 2.1995 (Simulation time: 0 hr 15 min 45 sec) 
Heartbeat CPU 0 instructions: 18000002 cycles: 8185142 heartbeat IPC: 2.1924 cumulative IPC: 2.19911 (Simulation time: 0 hr 16 min 37 sec) 
Heartbeat CPU 0 instructions: 19000000 cycles: 8631076 heartbeat IPC: 2.24248 cumulative IPC: 2.20135 (Simulation time: 0 hr 17 min 33 sec) 
Heartbeat CPU 0 instructions: 20000000 cycles: 9076076 heartbeat IPC: 2.24719 cumulative IPC: 2.2036 (Simulation time: 0 hr 18 min 30 sec) 
Heartbeat CPU 0 instructions: 21000000 cycles: 9463156 heartbeat IPC: 2.58345 cumulative IPC: 2.21913 (Simulation time: 0 hr 19 min 28 sec) 
Heartbeat CPU 0 instructions: 22000003 cycles: 9838847 heartbeat IPC: 2.66177 cumulative IPC: 2.23603 (Simulation time: 0 hr 20 min 20 sec) 
Heartbeat CPU 0 instructions: 23000001 cycles: 10291820 heartbeat IPC: 2.20763 cumulative IPC: 2.23478 (Simulation time: 0 hr 21 min 19 sec) 
Heartbeat CPU 0 instructions: 24000000 cycles: 10746437 heartbeat IPC: 2.19965 cumulative IPC: 2.2333 (Simulation time: 0 hr 22 min 17 sec) 
Heartbeat CPU 0 instructions: 25000001 cycles: 11089957 heartbeat IPC: 2.91104 cumulative IPC: 2.25429 (Simulation time: 0 hr 23 min 14 sec) 
Heartbeat CPU 0 instructions: 26000003 cycles: 11527609 heartbeat IPC: 2.28492 cumulative IPC: 2.25546 (Simulation time: 0 hr 24 min 15 sec) 
Heartbeat CPU 0 instructions: 27000003 cycles: 12000286 heartbeat IPC: 2.11561 cumulative IPC: 2.24995 (Simulation time: 0 hr 25 min 9 sec) 
Heartbeat CPU 0 instructions: 28000000 cycles: 12326787 heartbeat IPC: 3.06277 cumulative IPC: 2.27148 (Simulation time: 0 hr 25 min 53 sec) 
Heartbeat CPU 0 instructions: 29000001 cycles: 12623664 heartbeat IPC: 3.3684 cumulative IPC: 2.29727 (Simulation time: 0 hr 26 min 35 sec) 
Heartbeat CPU 0 instructions: 30000000 cycles: 12920538 heartbeat IPC: 3.36843 cumulative IPC: 2.32188 (Simulation time: 0 hr 27 min 14 sec) 
Heartbeat CPU 0 instructions: 31000000 cycles: 13262933 heartbeat IPC: 2.9206 cumulative IPC: 2.33734 (Simulation time: 0 hr 27 min 58 sec) 
Heartbeat CPU 0 instructions: 32000000 cycles: 13609476 heartbeat IPC: 2.88564 cumulative IPC: 2.3513 (Simulation time: 0 hr 28 min 41 sec) 
Heartbeat CPU 0 instructions: 33000001 cycles: 13967988 heartbeat IPC: 2.78931 cumulative IPC: 2.36255 (Simulation time: 0 hr 29 min 24 sec) 
Heartbeat CPU 0 instructions: 34000001 cycles: 14311582 heartbeat IPC: 2.91041 cumulative IPC: 2.3757 (Simulation time: 0 hr 30 min 9 sec) 
Heartbeat CPU 0 instructions: 35000003 cycles: 14652668 heartbeat IPC: 2.93182 cumulative IPC: 2.38864 (Simulation time: 0 hr 30 min 54 sec) 
Heartbeat CPU 0 instructions: 36000000 cycles: 14991032 heartbeat IPC: 2.95539 cumulative IPC: 2.40144 (Simulation time: 0 hr 31 min 39 sec) 
Heartbeat CPU 0 instructions: 37000000 cycles: 15330149 heartbeat IPC: 2.94883 cumulative IPC: 2.41354 (Simulation time: 0 hr 32 min 19 sec) 
Heartbeat CPU 0 instructions: 38000002 cycles: 15672206 heartbeat IPC: 2.9235 cumulative IPC: 2.42467 (Simulation time: 0 hr 33 min 2 sec) 
Heartbeat CPU 0 instructions: 39000001 cycles: 16011915 heartbeat IPC: 2.94369 cumulative IPC: 2.43569 (Simulation time: 0 hr 33 min 42 sec) 
Heartbeat CPU 0 instructions: 40000000 cycles: 16368246 heartbeat IPC: 2.80638 cumulative IPC: 2.44376 (Simulation time: 0 hr 34 min 28 sec) 
Heartbeat CPU 0 instructions: 41000000 cycles: 16711719 heartbeat IPC: 2.91144 cumulative IPC: 2.45337 (Simulation time: 0 hr 35 min 8 sec) 
Heartbeat CPU 0 instructions: 42000002 cycles: 17053343 heartbeat IPC: 2.9272 cumulative IPC: 2.46286 (Simulation time: 0 hr 35 min 53 sec) 
Heartbeat CPU 0 instructions: 43000000 cycles: 17389378 heartbeat IPC: 2.97587 cumulative IPC: 2.47277 (Simulation time: 0 hr 36 min 33 sec) 
Heartbeat CPU 0 instructions: 44000000 cycles: 17730140 heartbeat IPC: 2.9346 cumulative IPC: 2.48165 (Simulation time: 0 hr 37 min 16 sec) 
Heartbeat CPU 0 instructions: 45000001 cycles: 18066746 heartbeat IPC: 2.97084 cumulative IPC: 2.49076 (Simulation time: 0 hr 37 min 57 sec) 
Heartbeat CPU 0 instructions: 46000000 cycles: 18420187 heartbeat IPC: 2.82932 cumulative IPC: 2.49726 (Simulation time: 0 hr 38 min 38 sec) 
Heartbeat CPU 0 instructions: 47000003 cycles: 18769857 heartbeat IPC: 2.85985 cumulative IPC: 2.50401 (Simulation time: 0 hr 39 min 20 sec) 
Heartbeat CPU 0 instructions: 48000000 cycles: 19119780 heartbeat IPC: 2.85776 cumulative IPC: 2.51049 (Simulation time: 0 hr 40 min 0 sec) 
Heartbeat CPU 0 instructions: 49000003 cycles: 19475189 heartbeat IPC: 2.81367 cumulative IPC: 2.51602 (Simulation time: 0 hr 40 min 41 sec) 
Heartbeat CPU 0 instructions: 50000003 cycles: 19823461 heartbeat IPC: 2.87132 cumulative IPC: 2.52226 (Simulation time: 0 hr 41 min 22 sec) 

Warmup complete CPU 0 instructions: 50000003 cycles: 19823461 (Simulation time: 0 hr 41 min 22 sec) 

Heartbeat CPU 0 instructions: 51000002 cycles: 20780812 heartbeat IPC: 1.04455 cumulative IPC: 1.04455 (Simulation time: 0 hr 42 min 4 sec) 
Heartbeat CPU 0 instructions: 52000000 cycles: 21746118 heartbeat IPC: 1.03594 cumulative IPC: 1.04023 (Simulation time: 0 hr 43 min 2 sec) 
Heartbeat CPU 0 instructions: 53000001 cycles: 22724225 heartbeat IPC: 1.02238 cumulative IPC: 1.03421 (Simulation time: 0 hr 43 min 50 sec) 
Heartbeat CPU 0 instructions: 54000003 cycles: 23704449 heartbeat IPC: 1.02018 cumulative IPC: 1.03067 (Simulation time: 0 hr 44 min 39 sec) 
Heartbeat CPU 0 instructions: 55000000 cycles: 24668499 heartbeat IPC: 1.03729 cumulative IPC: 1.03198 (Simulation time: 0 hr 45 min 28 sec) 
Heartbeat CPU 0 instructions: 56000000 cycles: 25644474 heartbeat IPC: 1.02462 cumulative IPC: 1.03075 (Simulation time: 0 hr 46 min 21 sec) 
Heartbeat CPU 0 instructions: 57000002 cycles: 26611793 heartbeat IPC: 1.03379 cumulative IPC: 1.03118 (Simulation time: 0 hr 47 min 10 sec) 
Heartbeat CPU 0 instructions: 58000003 cycles: 27584633 heartbeat IPC: 1.02792 cumulative IPC: 1.03077 (Simulation time: 0 hr 48 min 2 sec) 
Heartbeat CPU 0 instructions: 59000003 cycles: 28613016 heartbeat IPC: 0.9724 cumulative IPC: 1.02394 (Simulation time: 0 hr 48 min 59 sec) 
Heartbeat CPU 0 instructions: 60000000 cycles: 29821475 heartbeat IPC: 0.827498 cumulative IPC: 1.0002 (Simulation time: 0 hr 50 min 1 sec) 
Heartbeat CPU 0 instructions: 61000000 cycles: 31028734 heartbeat IPC: 0.828323 cumulative IPC: 0.98168 (Simulation time: 0 hr 51 min 4 sec) 
Heartbeat CPU 0 instructions: 62000003 cycles: 32253248 heartbeat IPC: 0.816653 cumulative IPC: 0.965423 (Simulation time: 0 hr 52 min 3 sec) 
Heartbeat CPU 0 instructions: 63000001 cycles: 33484861 heartbeat IPC: 0.811942 cumulative IPC: 0.951586 (Simulation time: 0 hr 53 min 3 sec) 
Heartbeat CPU 0 instructions: 64000000 cycles: 34805458 heartbeat IPC: 0.757233 cumulative IPC: 0.934455 (Simulation time: 0 hr 53 min 57 sec) 
Heartbeat CPU 0 instructions: 65000001 cycles: 36009512 heartbeat IPC: 0.830528 cumulative IPC: 0.926724 (Simulation time: 0 hr 54 min 51 sec) 
Heartbeat CPU 0 instructions: 66000003 cycles: 37211259 heartbeat IPC: 0.832124 cumulative IPC: 0.920186 (Simulation time: 0 hr 55 min 46 sec) 
Heartbeat CPU 0 instructions: 67000000 cycles: 38422426 heartbeat IPC: 0.825647 cumulative IPC: 0.914029 (Simulation time: 0 hr 56 min 36 sec) 
Heartbeat CPU 0 instructions: 68000000 cycles: 39736068 heartbeat IPC: 0.761242 cumulative IPC: 0.90395 (Simulation time: 0 hr 57 min 33 sec) 
Heartbeat CPU 0 instructions: 69000000 cycles: 40932525 heartbeat IPC: 0.835801 cumulative IPC: 0.900087 (Simulation time: 0 hr 58 min 33 sec) 
Heartbeat CPU 0 instructions: 70000002 cycles: 42134739 heartbeat IPC: 0.8318 cumulative IPC: 0.896408 (Simulation time: 0 hr 59 min 33 sec) 
Heartbeat CPU 0 instructions: 71000003 cycles: 43341369 heartbeat IPC: 0.828755 cumulative IPC: 0.892937 (Simulation time: 1 hr 0 min 29 sec) 
Heartbeat CPU 0 instructions: 72000000 cycles: 44549370 heartbeat IPC: 0.827811 cumulative IPC: 0.889755 (Simulation time: 1 hr 1 min 23 sec) 
Heartbeat CPU 0 instructions: 73000002 cycles: 45852765 heartbeat IPC: 0.767229 cumulative IPC: 0.883619 (Simulation time: 1 hr 2 min 19 sec) 
Heartbeat CPU 0 instructions: 74000000 cycles: 47052254 heartbeat IPC: 0.833687 cumulative IPC: 0.88142 (Simulation time: 1 hr 3 min 13 sec) 
Heartbeat CPU 0 instructions: 75000001 cycles: 48253643 heartbeat IPC: 0.832371 cumulative IPC: 0.879347 (Simulation time: 1 hr 4 min 6 sec) 
Heartbeat CPU 0 instructions: 76000000 cycles: 49462940 heartbeat IPC: 0.826926 cumulative IPC: 0.877208 (Simulation time: 1 hr 4 min 59 sec) 
Heartbeat CPU 0 instructions: 77000001 cycles: 50720044 heartbeat IPC: 0.79548 cumulative IPC: 0.873883 (Simulation time: 1 hr 5 min 34 sec) 
Heartbeat CPU 0 instructions: 78000003 cycles: 51886498 heartbeat IPC: 0.857301 cumulative IPC: 0.87328 (Simulation time: 1 hr 5 min 56 sec) 
Heartbeat CPU 0 instructions: 79000000 cycles: 52805528 heartbeat IPC: 1.0881 cumulative IPC: 0.879266 (Simulation time: 1 hr 6 min 25 sec) 
Heartbeat CPU 0 instructions: 80000000 cycles: 53709161 heartbeat IPC: 1.10664 cumulative IPC: 0.885329 (Simulation time: 1 hr 6 min 52 sec) 
Heartbeat CPU 0 instructions: 81000000 cycles: 54554978 heartbeat IPC: 1.18229 cumulative IPC: 0.892561 (Simulation time: 1 hr 7 min 21 sec) 
Heartbeat CPU 0 instructions: 82000001 cycles: 55446966 heartbeat IPC: 1.12109 cumulative IPC: 0.898283 (Simulation time: 1 hr 7 min 48 sec) 
Heartbeat CPU 0 instructions: 83000000 cycles: 56370856 heartbeat IPC: 1.08238 cumulative IPC: 0.902937 (Simulation time: 1 hr 8 min 12 sec) 
Heartbeat CPU 0 instructions: 84000000 cycles: 57287722 heartbeat IPC: 1.09067 cumulative IPC: 0.907531 (Simulation time: 1 hr 8 min 42 sec) 
Heartbeat CPU 0 instructions: 85000002 cycles: 58223389 heartbeat IPC: 1.06876 cumulative IPC: 0.91146 (Simulation time: 1 hr 9 min 10 sec) 
Heartbeat CPU 0 instructions: 86000002 cycles: 59152415 heartbeat IPC: 1.0764 cumulative IPC: 0.915356 (Simulation time: 1 hr 9 min 40 sec) 
Heartbeat CPU 0 instructions: 87000002 cycles: 60081428 heartbeat IPC: 1.07641 cumulative IPC: 0.919073 (Simulation time: 1 hr 10 min 12 sec) 
Heartbeat CPU 0 instructions: 88000000 cycles: 61135444 heartbeat IPC: 0.94875 cumulative IPC: 0.91983 (Simulation time: 1 hr 10 min 41 sec) 
Heartbeat CPU 0 instructions: 89000002 cycles: 62231341 heartbeat IPC: 0.912496 cumulative IPC: 0.91964 (Simulation time: 1 hr 11 min 9 sec) 
Heartbeat CPU 0 instructions: 90000001 cycles: 63325075 heartbeat IPC: 0.914298 cumulative IPC: 0.919506 (Simulation time: 1 hr 11 min 39 sec) 
Heartbeat CPU 0 instructions: 91000001 cycles: 64428972 heartbeat IPC: 0.905882 cumulative IPC: 0.919169 (Simulation time: 1 hr 12 min 6 sec) 
Heartbeat CPU 0 instructions: 92000000 cycles: 65518098 heartbeat IPC: 0.918167 cumulative IPC: 0.919145 (Simulation time: 1 hr 12 min 33 sec) 
Heartbeat CPU 0 instructions: 93000001 cycles: 66602463 heartbeat IPC: 0.9222 cumulative IPC: 0.919216 (Simulation time: 1 hr 13 min 2 sec) 
Heartbeat CPU 0 instructions: 94000001 cycles: 67688006 heartbeat IPC: 0.921198 cumulative IPC: 0.919261 (Simulation time: 1 hr 13 min 31 sec) 
Heartbeat CPU 0 instructions: 95000000 cycles: 68780262 heartbeat IPC: 0.915535 cumulative IPC: 0.919178 (Simulation time: 1 hr 14 min 3 sec) 
Heartbeat CPU 0 instructions: 96000000 cycles: 69870793 heartbeat IPC: 0.916984 cumulative IPC: 0.91913 (Simulation time: 1 hr 14 min 28 sec) 
Heartbeat CPU 0 instructions: 97000002 cycles: 70958953 heartbeat IPC: 0.918984 cumulative IPC: 0.919127 (Simulation time: 1 hr 14 min 55 sec) 
Heartbeat CPU 0 instructions: 98000002 cycles: 72050325 heartbeat IPC: 0.916278 cumulative IPC: 0.919067 (Simulation time: 1 hr 15 min 21 sec) 
Heartbeat CPU 0 instructions: 99000000 cycles: 73139706 heartbeat IPC: 0.917951 cumulative IPC: 0.919044 (Simulation time: 1 hr 15 min 49 sec) 
Heartbeat CPU 0 instructions: 100000000 cycles: 74229610 heartbeat IPC: 0.917512 cumulative IPC: 0.919014 (Simulation time: 1 hr 16 min 14 sec) 
Heartbeat CPU 0 instructions: 101000000 cycles: 75323653 heartbeat IPC: 0.914041 cumulative IPC: 0.918916 (Simulation time: 1 hr 16 min 40 sec) 
Heartbeat CPU 0 instructions: 102000000 cycles: 76421625 heartbeat IPC: 0.91077 cumulative IPC: 0.918758 (Simulation time: 1 hr 17 min 3 sec) 
Heartbeat CPU 0 instructions: 103000002 cycles: 77517106 heartbeat IPC: 0.912843 cumulative IPC: 0.918645 (Simulation time: 1 hr 17 min 29 sec) 
Heartbeat CPU 0 instructions: 104000000 cycles: 78609587 heartbeat IPC: 0.915346 cumulative IPC: 0.918584 (Simulation time: 1 hr 17 min 53 sec) 
Heartbeat CPU 0 instructions: 105000003 cycles: 79705179 heartbeat IPC: 0.912751 cumulative IPC: 0.918477 (Simulation time: 1 hr 18 min 17 sec) 
Heartbeat CPU 0 instructions: 106000002 cycles: 80804067 heartbeat IPC: 0.91001 cumulative IPC: 0.918325 (Simulation time: 1 hr 18 min 39 sec) 
Heartbeat CPU 0 instructions: 107000001 cycles: 81892280 heartbeat IPC: 0.918937 cumulative IPC: 0.918335 (Simulation time: 1 hr 19 min 1 sec) 
Heartbeat CPU 0 instructions: 108000000 cycles: 82986864 heartbeat IPC: 0.913588 cumulative IPC: 0.918253 (Simulation time: 1 hr 19 min 23 sec) 
Heartbeat CPU 0 instructions: 109000001 cycles: 84081716 heartbeat IPC: 0.913366 cumulative IPC: 0.91817 (Simulation time: 1 hr 19 min 45 sec) 
Heartbeat CPU 0 instructions: 110000002 cycles: 85183068 heartbeat IPC: 0.907976 cumulative IPC: 0.917998 (Simulation time: 1 hr 20 min 8 sec) 
Heartbeat CPU 0 instructions: 111000000 cycles: 86273811 heartbeat IPC: 0.916804 cumulative IPC: 0.917979 (Simulation time: 1 hr 20 min 28 sec) 
Heartbeat CPU 0 instructions: 112000000 cycles: 87365748 heartbeat IPC: 0.915804 cumulative IPC: 0.917943 (Simulation time: 1 hr 20 min 47 sec) 
Heartbeat CPU 0 instructions: 113000002 cycles: 88456328 heartbeat IPC: 0.916945 cumulative IPC: 0.917928 (Simulation time: 1 hr 21 min 5 sec) 
Heartbeat CPU 0 instructions: 114000001 cycles: 89549968 heartbeat IPC: 0.914377 cumulative IPC: 0.917872 (Simulation time: 1 hr 21 min 22 sec) 
Heartbeat CPU 0 instructions: 115000001 cycles: 90639488 heartbeat IPC: 0.917835 cumulative IPC: 0.917871 (Simulation time: 1 hr 21 min 40 sec) 
Heartbeat CPU 0 instructions: 116000000 cycles: 91726849 heartbeat IPC: 0.919657 cumulative IPC: 0.917898 (Simulation time: 1 hr 21 min 57 sec) 
Heartbeat CPU 0 instructions: 117000001 cycles: 92815805 heartbeat IPC: 0.918312 cumulative IPC: 0.917904 (Simulation time: 1 hr 22 min 13 sec) 
Heartbeat CPU 0 instructions: 118000000 cycles: 93903169 heartbeat IPC: 0.919654 cumulative IPC: 0.91793 (Simulation time: 1 hr 22 min 29 sec) 
Heartbeat CPU 0 instructions: 119000000 cycles: 94992547 heartbeat IPC: 0.917955 cumulative IPC: 0.91793 (Simulation time: 1 hr 22 min 46 sec) 
Heartbeat CPU 0 instructions: 120000000 cycles: 96082113 heartbeat IPC: 0.917797 cumulative IPC: 0.917929 (Simulation time: 1 hr 23 min 3 sec) 
Heartbeat CPU 0 instructions: 121000000 cycles: 97171203 heartbeat IPC: 0.918198 cumulative IPC: 0.917932 (Simulation time: 1 hr 23 min 19 sec) 
Heartbeat CPU 0 instructions: 122000000 cycles: 98263799 heartbeat IPC: 0.915251 cumulative IPC: 0.917895 (Simulation time: 1 hr 23 min 34 sec) 
Heartbeat CPU 0 instructions: 123000001 cycles: 99360157 heartbeat IPC: 0.912112 cumulative IPC: 0.917815 (Simulation time: 1 hr 23 min 49 sec) 
Heartbeat CPU 0 instructions: 124000000 cycles: 100458965 heartbeat IPC: 0.910076 cumulative IPC: 0.91771 (Simulation time: 1 hr 24 min 5 sec) 
Heartbeat CPU 0 instructions: 125000002 cycles: 101552552 heartbeat IPC: 0.914424 cumulative IPC: 0.917666 (Simulation time: 1 hr 24 min 20 sec) 
Heartbeat CPU 0 instructions: 126000002 cycles: 102644026 heartbeat IPC: 0.916192 cumulative IPC: 0.917646 (Simulation time: 1 hr 24 min 35 sec) 
Heartbeat CPU 0 instructions: 127000003 cycles: 103732863 heartbeat IPC: 0.918412 cumulative IPC: 0.917656 (Simulation time: 1 hr 24 min 48 sec) 
Heartbeat CPU 0 instructions: 128000000 cycles: 104823263 heartbeat IPC: 0.917092 cumulative IPC: 0.917649 (Simulation time: 1 hr 25 min 3 sec) 
Heartbeat CPU 0 instructions: 129000001 cycles: 105913744 heartbeat IPC: 0.917027 cumulative IPC: 0.917641 (Simulation time: 1 hr 25 min 17 sec) 
Heartbeat CPU 0 instructions: 130000001 cycles: 107001009 heartbeat IPC: 0.919739 cumulative IPC: 0.917667 (Simulation time: 1 hr 25 min 31 sec) 
Heartbeat CPU 0 instructions: 131000001 cycles: 108094789 heartbeat IPC: 0.914261 cumulative IPC: 0.917625 (Simulation time: 1 hr 25 min 46 sec) 
Heartbeat CPU 0 instructions: 132000000 cycles: 109188607 heartbeat IPC: 0.914228 cumulative IPC: 0.917584 (Simulation time: 1 hr 26 min 1 sec) 
Heartbeat CPU 0 instructions: 133000002 cycles: 110294131 heartbeat IPC: 0.90455 cumulative IPC: 0.917424 (Simulation time: 1 hr 26 min 14 sec) 
Heartbeat CPU 0 instructions: 134000000 cycles: 111389802 heartbeat IPC: 0.912681 cumulative IPC: 0.917368 (Simulation time: 1 hr 26 min 28 sec) 
Heartbeat CPU 0 instructions: 135000003 cycles: 112492514 heartbeat IPC: 0.906858 cumulative IPC: 0.917243 (Simulation time: 1 hr 26 min 40 sec) 
Heartbeat CPU 0 instructions: 136000000 cycles: 113593395 heartbeat IPC: 0.908361 cumulative IPC: 0.917138 (Simulation time: 1 hr 26 min 53 sec) 
Heartbeat CPU 0 instructions: 137000001 cycles: 114690570 heartbeat IPC: 0.911433 cumulative IPC: 0.917072 (Simulation time: 1 hr 27 min 6 sec) 
Heartbeat CPU 0 instructions: 138000000 cycles: 115813515 heartbeat IPC: 0.890515 cumulative IPC: 0.916762 (Simulation time: 1 hr 27 min 18 sec) 
Heartbeat CPU 0 instructions: 139000002 cycles: 116447957 heartbeat IPC: 1.57619 cumulative IPC: 0.921091 (Simulation time: 1 hr 27 min 29 sec) 
Heartbeat CPU 0 instructions: 140000000 cycles: 117080295 heartbeat IPC: 1.58143 cumulative IPC: 0.925385 (Simulation time: 1 hr 27 min 40 sec) 
Heartbeat CPU 0 instructions: 141000000 cycles: 117712171 heartbeat IPC: 1.58259 cumulative IPC: 0.929627 (Simulation time: 1 hr 27 min 50 sec) 
Heartbeat CPU 0 instructions: 142000002 cycles: 118343990 heartbeat IPC: 1.58273 cumulative IPC: 0.933816 (Simulation time: 1 hr 28 min 0 sec) 
Heartbeat CPU 0 instructions: 143000002 cycles: 118981738 heartbeat IPC: 1.56802 cumulative IPC: 0.937894 (Simulation time: 1 hr 28 min 10 sec) 
Heartbeat CPU 0 instructions: 144000000 cycles: 119621569 heartbeat IPC: 1.56291 cumulative IPC: 0.941902 (Simulation time: 1 hr 28 min 19 sec) 
Heartbeat CPU 0 instructions: 145000001 cycles: 120261917 heartbeat IPC: 1.56165 cumulative IPC: 0.945853 (Simulation time: 1 hr 28 min 30 sec) 
Heartbeat CPU 0 instructions: 146000002 cycles: 120901102 heartbeat IPC: 1.56449 cumulative IPC: 0.949765 (Simulation time: 1 hr 28 min 40 sec) 
Heartbeat CPU 0 instructions: 147000002 cycles: 122237138 heartbeat IPC: 0.748483 cumulative IPC: 0.947139 (Simulation time: 1 hr 28 min 50 sec) 
Heartbeat CPU 0 instructions: 148000000 cycles: 122755212 heartbeat IPC: 1.93022 cumulative IPC: 0.952087 (Simulation time: 1 hr 28 min 57 sec) 
Heartbeat CPU 0 instructions: 149000000 cycles: 123264963 heartbeat IPC: 1.96174 cumulative IPC: 0.957063 (Simulation time: 1 hr 29 min 5 sec) 
Heartbeat CPU 0 instructions: 150000003 cycles: 123772755 heartbeat IPC: 1.96932 cumulative IPC: 0.962008 (Simulation time: 1 hr 29 min 12 sec) 
Finished CPU 0 instructions: 100000000 cycles: 103949294 cummulative IPC: 0.962007 (Simulation time: 1 hr 29 min 12 sec) 

ChampSim completed all CPUs

Region of Interest Statistics

CPU 0 cummulative IPC: 0.962007 instructions: 100000000 cycles: 103949294
LLC TOTAL     ACCESS:     678825  HIT:     550608  MISS:     128217
LLC LOAD      ACCESS:     201694  HIT:     200295  MISS:       1399
LLC RFO       ACCESS:      77428  HIT:      16473  MISS:      60955
LLC PREFETCH  ACCESS:     319038  HIT:     268978  MISS:      50060
LLC WRITEBACK ACCESS:      80665  HIT:      64862  MISS:      15803
OPTgen accesses: 19490
OPTgen hits: 21997
OPTgen hit rate: 112.863


