
*** ChampSim Multicore Out-of-Order Simulator ***

Warmup Instructions: 50000000
Simulation Instructions: 100000000
Configuration: 2
Number of CPUs: 1
LLC sets: 2048
LLC ways: 16
Off-chip DRAM Channels: 1 Width: 64-bit Data Rate: 1600 MT/s

CPU 0 runs /datasets/cs240c-wi22-a00-public/data/Assignment2-gz/gcc_39B.trace.gz
CPU 0 L1D next line prefetcher
CPU 0 L2C IP-based stride prefetcher
Initialize Hawkeye state
Heartbeat CPU 0 instructions: 1000000 cycles: 510415 heartbeat IPC: 1.95919 cumulative IPC: 1.95919 (Simulation time: 0 hr 0 min 40 sec) 
Heartbeat CPU 0 instructions: 2000002 cycles: 1020477 heartbeat IPC: 1.96055 cumulative IPC: 1.95987 (Simulation time: 0 hr 1 min 17 sec) 
Heartbeat CPU 0 instructions: 3000002 cycles: 1529254 heartbeat IPC: 1.9655 cumulative IPC: 1.96174 (Simulation time: 0 hr 2 min 0 sec) 
Heartbeat CPU 0 instructions: 4000000 cycles: 2038229 heartbeat IPC: 1.96473 cumulative IPC: 1.96249 (Simulation time: 0 hr 2 min 38 sec) 
Heartbeat CPU 0 instructions: 5000003 cycles: 2547014 heartbeat IPC: 1.96547 cumulative IPC: 1.96308 (Simulation time: 0 hr 3 min 17 sec) 
Heartbeat CPU 0 instructions: 6000000 cycles: 3057390 heartbeat IPC: 1.95933 cumulative IPC: 1.96246 (Simulation time: 0 hr 3 min 55 sec) 
Heartbeat CPU 0 instructions: 7000001 cycles: 3565359 heartbeat IPC: 1.96863 cumulative IPC: 1.96334 (Simulation time: 0 hr 4 min 30 sec) 
Heartbeat CPU 0 instructions: 8000000 cycles: 4078805 heartbeat IPC: 1.94762 cumulative IPC: 1.96136 (Simulation time: 0 hr 5 min 11 sec) 
Heartbeat CPU 0 instructions: 9000002 cycles: 4590941 heartbeat IPC: 1.95261 cumulative IPC: 1.96038 (Simulation time: 0 hr 5 min 52 sec) 
Heartbeat CPU 0 instructions: 10000000 cycles: 5101490 heartbeat IPC: 1.95867 cumulative IPC: 1.96021 (Simulation time: 0 hr 6 min 28 sec) 
Heartbeat CPU 0 instructions: 11000002 cycles: 5610505 heartbeat IPC: 1.96458 cumulative IPC: 1.96061 (Simulation time: 0 hr 7 min 9 sec) 
Heartbeat CPU 0 instructions: 12000000 cycles: 6120531 heartbeat IPC: 1.96068 cumulative IPC: 1.96061 (Simulation time: 0 hr 7 min 47 sec) 
Heartbeat CPU 0 instructions: 13000003 cycles: 6631187 heartbeat IPC: 1.95827 cumulative IPC: 1.96043 (Simulation time: 0 hr 8 min 24 sec) 
Heartbeat CPU 0 instructions: 14000003 cycles: 7142092 heartbeat IPC: 1.95731 cumulative IPC: 1.96021 (Simulation time: 0 hr 9 min 4 sec) 
Heartbeat CPU 0 instructions: 15000001 cycles: 7652522 heartbeat IPC: 1.95913 cumulative IPC: 1.96014 (Simulation time: 0 hr 9 min 42 sec) 
Heartbeat CPU 0 instructions: 16000000 cycles: 8161882 heartbeat IPC: 1.96325 cumulative IPC: 1.96033 (Simulation time: 0 hr 10 min 20 sec) 
Heartbeat CPU 0 instructions: 17000000 cycles: 8673439 heartbeat IPC: 1.95482 cumulative IPC: 1.96001 (Simulation time: 0 hr 11 min 3 sec) 
Heartbeat CPU 0 instructions: 18000000 cycles: 9182360 heartbeat IPC: 1.96494 cumulative IPC: 1.96028 (Simulation time: 0 hr 11 min 46 sec) 
Heartbeat CPU 0 instructions: 19000001 cycles: 9694546 heartbeat IPC: 1.95242 cumulative IPC: 1.95986 (Simulation time: 0 hr 12 min 22 sec) 
Heartbeat CPU 0 instructions: 20000000 cycles: 10205237 heartbeat IPC: 1.95813 cumulative IPC: 1.95978 (Simulation time: 0 hr 13 min 1 sec) 
Heartbeat CPU 0 instructions: 21000003 cycles: 10720665 heartbeat IPC: 1.94014 cumulative IPC: 1.95883 (Simulation time: 0 hr 13 min 36 sec) 
Heartbeat CPU 0 instructions: 22000003 cycles: 11230806 heartbeat IPC: 1.96024 cumulative IPC: 1.9589 (Simulation time: 0 hr 14 min 9 sec) 
Heartbeat CPU 0 instructions: 23000003 cycles: 11739123 heartbeat IPC: 1.96728 cumulative IPC: 1.95926 (Simulation time: 0 hr 14 min 47 sec) 
Heartbeat CPU 0 instructions: 24000000 cycles: 12249287 heartbeat IPC: 1.96015 cumulative IPC: 1.9593 (Simulation time: 0 hr 15 min 27 sec) 
Heartbeat CPU 0 instructions: 25000002 cycles: 12758679 heartbeat IPC: 1.96313 cumulative IPC: 1.95945 (Simulation time: 0 hr 16 min 7 sec) 
Heartbeat CPU 0 instructions: 26000001 cycles: 13266889 heartbeat IPC: 1.96769 cumulative IPC: 1.95977 (Simulation time: 0 hr 16 min 45 sec) 
Heartbeat CPU 0 instructions: 27000000 cycles: 13776716 heartbeat IPC: 1.96145 cumulative IPC: 1.95983 (Simulation time: 0 hr 17 min 28 sec) 
Heartbeat CPU 0 instructions: 28000000 cycles: 14286176 heartbeat IPC: 1.96286 cumulative IPC: 1.95994 (Simulation time: 0 hr 18 min 6 sec) 
Heartbeat CPU 0 instructions: 29000001 cycles: 14795515 heartbeat IPC: 1.96333 cumulative IPC: 1.96005 (Simulation time: 0 hr 18 min 43 sec) 
Heartbeat CPU 0 instructions: 30000003 cycles: 15306401 heartbeat IPC: 1.95739 cumulative IPC: 1.95996 (Simulation time: 0 hr 19 min 29 sec) 
Heartbeat CPU 0 instructions: 31000003 cycles: 15821636 heartbeat IPC: 1.94086 cumulative IPC: 1.95934 (Simulation time: 0 hr 20 min 0 sec) 
Heartbeat CPU 0 instructions: 32000000 cycles: 16331092 heartbeat IPC: 1.96287 cumulative IPC: 1.95945 (Simulation time: 0 hr 20 min 36 sec) 
Heartbeat CPU 0 instructions: 33000000 cycles: 16840929 heartbeat IPC: 1.96141 cumulative IPC: 1.95951 (Simulation time: 0 hr 21 min 12 sec) 
Heartbeat CPU 0 instructions: 34000003 cycles: 17351980 heartbeat IPC: 1.95676 cumulative IPC: 1.95943 (Simulation time: 0 hr 21 min 47 sec) 
Heartbeat CPU 0 instructions: 35000001 cycles: 17862389 heartbeat IPC: 1.95921 cumulative IPC: 1.95942 (Simulation time: 0 hr 22 min 21 sec) 
Heartbeat CPU 0 instructions: 36000000 cycles: 18371902 heartbeat IPC: 1.96266 cumulative IPC: 1.95951 (Simulation time: 0 hr 23 min 3 sec) 
Heartbeat CPU 0 instructions: 37000000 cycles: 18884671 heartbeat IPC: 1.9502 cumulative IPC: 1.95926 (Simulation time: 0 hr 23 min 37 sec) 
Heartbeat CPU 0 instructions: 38000001 cycles: 19393410 heartbeat IPC: 1.96565 cumulative IPC: 1.95943 (Simulation time: 0 hr 24 min 14 sec) 
Heartbeat CPU 0 instructions: 39000000 cycles: 19905657 heartbeat IPC: 1.95218 cumulative IPC: 1.95924 (Simulation time: 0 hr 24 min 52 sec) 
Heartbeat CPU 0 instructions: 40000000 cycles: 20415179 heartbeat IPC: 1.96262 cumulative IPC: 1.95933 (Simulation time: 0 hr 25 min 27 sec) 
Heartbeat CPU 0 instructions: 41000001 cycles: 20926967 heartbeat IPC: 1.95394 cumulative IPC: 1.95919 (Simulation time: 0 hr 26 min 3 sec) 
Heartbeat CPU 0 instructions: 42000001 cycles: 21438199 heartbeat IPC: 1.95606 cumulative IPC: 1.95912 (Simulation time: 0 hr 26 min 41 sec) 
Heartbeat CPU 0 instructions: 43000003 cycles: 21952930 heartbeat IPC: 1.94277 cumulative IPC: 1.95874 (Simulation time: 0 hr 27 min 18 sec) 
Heartbeat CPU 0 instructions: 44000000 cycles: 22464905 heartbeat IPC: 1.95321 cumulative IPC: 1.95861 (Simulation time: 0 hr 27 min 53 sec) 
Heartbeat CPU 0 instructions: 45000002 cycles: 22973601 heartbeat IPC: 1.96581 cumulative IPC: 1.95877 (Simulation time: 0 hr 28 min 32 sec) 
Heartbeat CPU 0 instructions: 46000002 cycles: 23484248 heartbeat IPC: 1.9583 cumulative IPC: 1.95876 (Simulation time: 0 hr 29 min 9 sec) 
Heartbeat CPU 0 instructions: 47000000 cycles: 23993880 heartbeat IPC: 1.9622 cumulative IPC: 1.95883 (Simulation time: 0 hr 29 min 46 sec) 
Heartbeat CPU 0 instructions: 48000000 cycles: 24502182 heartbeat IPC: 1.96733 cumulative IPC: 1.95901 (Simulation time: 0 hr 30 min 22 sec) 
Heartbeat CPU 0 instructions: 49000000 cycles: 25012237 heartbeat IPC: 1.96057 cumulative IPC: 1.95904 (Simulation time: 0 hr 31 min 0 sec) 
Heartbeat CPU 0 instructions: 50000000 cycles: 25527631 heartbeat IPC: 1.94026 cumulative IPC: 1.95866 (Simulation time: 0 hr 31 min 38 sec) 

Warmup complete CPU 0 instructions: 50000001 cycles: 25527632 (Simulation time: 0 hr 31 min 38 sec) 

Heartbeat CPU 0 instructions: 51000000 cycles: 26898787 heartbeat IPC: 0.729312 cumulative IPC: 0.729311 (Simulation time: 0 hr 32 min 22 sec) 
Heartbeat CPU 0 instructions: 52000000 cycles: 28280238 heartbeat IPC: 0.723877 cumulative IPC: 0.726584 (Simulation time: 0 hr 33 min 2 sec) 
Heartbeat CPU 0 instructions: 53000003 cycles: 29657675 heartbeat IPC: 0.725988 cumulative IPC: 0.726385 (Simulation time: 0 hr 33 min 45 sec) 
Heartbeat CPU 0 instructions: 54000000 cycles: 31037980 heartbeat IPC: 0.724475 cumulative IPC: 0.725907 (Simulation time: 0 hr 34 min 25 sec) 
Heartbeat CPU 0 instructions: 55000002 cycles: 32417142 heartbeat IPC: 0.725079 cumulative IPC: 0.725741 (Simulation time: 0 hr 35 min 11 sec) 
Heartbeat CPU 0 instructions: 56000000 cycles: 33795184 heartbeat IPC: 0.725666 cumulative IPC: 0.725729 (Simulation time: 0 hr 35 min 58 sec) 
Heartbeat CPU 0 instructions: 57000000 cycles: 35178153 heartbeat IPC: 0.723082 cumulative IPC: 0.725349 (Simulation time: 0 hr 36 min 41 sec) 
Heartbeat CPU 0 instructions: 58000000 cycles: 36561259 heartbeat IPC: 0.72301 cumulative IPC: 0.725056 (Simulation time: 0 hr 37 min 23 sec) 
Heartbeat CPU 0 instructions: 59000000 cycles: 37944274 heartbeat IPC: 0.723058 cumulative IPC: 0.724834 (Simulation time: 0 hr 38 min 6 sec) 
Heartbeat CPU 0 instructions: 60000000 cycles: 39326129 heartbeat IPC: 0.723665 cumulative IPC: 0.724717 (Simulation time: 0 hr 38 min 48 sec) 
Heartbeat CPU 0 instructions: 61000000 cycles: 40705519 heartbeat IPC: 0.724958 cumulative IPC: 0.724738 (Simulation time: 0 hr 39 min 38 sec) 
Heartbeat CPU 0 instructions: 62000000 cycles: 42089517 heartbeat IPC: 0.722544 cumulative IPC: 0.724555 (Simulation time: 0 hr 40 min 18 sec) 
Heartbeat CPU 0 instructions: 63000001 cycles: 43478207 heartbeat IPC: 0.720104 cumulative IPC: 0.724211 (Simulation time: 0 hr 41 min 4 sec) 
Heartbeat CPU 0 instructions: 64000000 cycles: 44869254 heartbeat IPC: 0.718882 cumulative IPC: 0.723828 (Simulation time: 0 hr 41 min 48 sec) 
Heartbeat CPU 0 instructions: 65000000 cycles: 46242691 heartbeat IPC: 0.7281 cumulative IPC: 0.724111 (Simulation time: 0 hr 42 min 30 sec) 
Heartbeat CPU 0 instructions: 66000001 cycles: 47627473 heartbeat IPC: 0.722136 cumulative IPC: 0.723987 (Simulation time: 0 hr 43 min 14 sec) 
Heartbeat CPU 0 instructions: 67000001 cycles: 48995169 heartbeat IPC: 0.731157 cumulative IPC: 0.724405 (Simulation time: 0 hr 44 min 0 sec) 
Heartbeat CPU 0 instructions: 68000000 cycles: 50360325 heartbeat IPC: 0.732516 cumulative IPC: 0.724851 (Simulation time: 0 hr 44 min 40 sec) 
Heartbeat CPU 0 instructions: 69000000 cycles: 51746375 heartbeat IPC: 0.721475 cumulative IPC: 0.724672 (Simulation time: 0 hr 45 min 25 sec) 
Heartbeat CPU 0 instructions: 70000002 cycles: 53113536 heartbeat IPC: 0.731444 cumulative IPC: 0.725008 (Simulation time: 0 hr 46 min 12 sec) 
Heartbeat CPU 0 instructions: 71000000 cycles: 54486546 heartbeat IPC: 0.728325 cumulative IPC: 0.725165 (Simulation time: 0 hr 47 min 6 sec) 
Heartbeat CPU 0 instructions: 72000000 cycles: 55849776 heartbeat IPC: 0.733552 cumulative IPC: 0.725542 (Simulation time: 0 hr 47 min 51 sec) 
Heartbeat CPU 0 instructions: 73000000 cycles: 57215170 heartbeat IPC: 0.732389 cumulative IPC: 0.725837 (Simulation time: 0 hr 48 min 35 sec) 
Heartbeat CPU 0 instructions: 74000000 cycles: 58592035 heartbeat IPC: 0.726288 cumulative IPC: 0.725856 (Simulation time: 0 hr 49 min 20 sec) 
Heartbeat CPU 0 instructions: 75000001 cycles: 59958601 heartbeat IPC: 0.731762 cumulative IPC: 0.72609 (Simulation time: 0 hr 50 min 9 sec) 
Heartbeat CPU 0 instructions: 76000000 cycles: 61344361 heartbeat IPC: 0.721625 cumulative IPC: 0.725918 (Simulation time: 0 hr 50 min 51 sec) 
Heartbeat CPU 0 instructions: 77000003 cycles: 62711089 heartbeat IPC: 0.731677 cumulative IPC: 0.726129 (Simulation time: 0 hr 51 min 37 sec) 
Heartbeat CPU 0 instructions: 78000000 cycles: 64088568 heartbeat IPC: 0.725962 cumulative IPC: 0.726123 (Simulation time: 0 hr 52 min 24 sec) 
Heartbeat CPU 0 instructions: 79000002 cycles: 65467007 heartbeat IPC: 0.72546 cumulative IPC: 0.726101 (Simulation time: 0 hr 53 min 9 sec) 
Heartbeat CPU 0 instructions: 80000000 cycles: 66851691 heartbeat IPC: 0.722185 cumulative IPC: 0.725969 (Simulation time: 0 hr 53 min 53 sec) 
Heartbeat CPU 0 instructions: 81000000 cycles: 68239750 heartbeat IPC: 0.72043 cumulative IPC: 0.725789 (Simulation time: 0 hr 54 min 42 sec) 
Heartbeat CPU 0 instructions: 82000000 cycles: 69620753 heartbeat IPC: 0.724111 cumulative IPC: 0.725737 (Simulation time: 0 hr 55 min 22 sec) 
Heartbeat CPU 0 instructions: 83000000 cycles: 71005315 heartbeat IPC: 0.72225 cumulative IPC: 0.725631 (Simulation time: 0 hr 56 min 13 sec) 
Heartbeat CPU 0 instructions: 84000000 cycles: 72386773 heartbeat IPC: 0.723873 cumulative IPC: 0.725579 (Simulation time: 0 hr 56 min 58 sec) 
Heartbeat CPU 0 instructions: 85000000 cycles: 73763237 heartbeat IPC: 0.726499 cumulative IPC: 0.725605 (Simulation time: 0 hr 57 min 46 sec) 
Heartbeat CPU 0 instructions: 86000001 cycles: 75145271 heartbeat IPC: 0.723572 cumulative IPC: 0.725548 (Simulation time: 0 hr 58 min 32 sec) 
Heartbeat CPU 0 instructions: 87000001 cycles: 76527821 heartbeat IPC: 0.723301 cumulative IPC: 0.725488 (Simulation time: 0 hr 59 min 17 sec) 
Heartbeat CPU 0 instructions: 88000000 cycles: 77907768 heartbeat IPC: 0.724665 cumulative IPC: 0.725466 (Simulation time: 1 hr 0 min 9 sec) 
Heartbeat CPU 0 instructions: 89000003 cycles: 79290553 heartbeat IPC: 0.72318 cumulative IPC: 0.725407 (Simulation time: 1 hr 1 min 0 sec) 
Heartbeat CPU 0 instructions: 90000000 cycles: 80667665 heartbeat IPC: 0.726155 cumulative IPC: 0.725426 (Simulation time: 1 hr 1 min 51 sec) 
Heartbeat CPU 0 instructions: 91000001 cycles: 82060096 heartbeat IPC: 0.718169 cumulative IPC: 0.725247 (Simulation time: 1 hr 2 min 33 sec) 
Heartbeat CPU 0 instructions: 92000000 cycles: 83445062 heartbeat IPC: 0.722039 cumulative IPC: 0.72517 (Simulation time: 1 hr 3 min 20 sec) 
Heartbeat CPU 0 instructions: 93000000 cycles: 84827947 heartbeat IPC: 0.723126 cumulative IPC: 0.725123 (Simulation time: 1 hr 4 min 8 sec) 
Heartbeat CPU 0 instructions: 94000002 cycles: 86207326 heartbeat IPC: 0.724965 cumulative IPC: 0.725119 (Simulation time: 1 hr 4 min 54 sec) 
Heartbeat CPU 0 instructions: 95000001 cycles: 87586396 heartbeat IPC: 0.725126 cumulative IPC: 0.725119 (Simulation time: 1 hr 5 min 36 sec) 
Heartbeat CPU 0 instructions: 96000000 cycles: 88954941 heartbeat IPC: 0.730702 cumulative IPC: 0.72524 (Simulation time: 1 hr 6 min 18 sec) 
Heartbeat CPU 0 instructions: 97000000 cycles: 90324937 heartbeat IPC: 0.729929 cumulative IPC: 0.725339 (Simulation time: 1 hr 6 min 59 sec) 
Heartbeat CPU 0 instructions: 98000003 cycles: 91694413 heartbeat IPC: 0.730209 cumulative IPC: 0.72544 (Simulation time: 1 hr 7 min 45 sec) 
Heartbeat CPU 0 instructions: 99000000 cycles: 93063360 heartbeat IPC: 0.730486 cumulative IPC: 0.725542 (Simulation time: 1 hr 8 min 28 sec) 
Heartbeat CPU 0 instructions: 100000000 cycles: 94425598 heartbeat IPC: 0.734086 cumulative IPC: 0.725711 (Simulation time: 1 hr 9 min 14 sec) 
Heartbeat CPU 0 instructions: 101000000 cycles: 95791352 heartbeat IPC: 0.732196 cumulative IPC: 0.725837 (Simulation time: 1 hr 9 min 57 sec) 
Heartbeat CPU 0 instructions: 102000002 cycles: 97170822 heartbeat IPC: 0.724918 cumulative IPC: 0.725819 (Simulation time: 1 hr 10 min 33 sec) 
Heartbeat CPU 0 instructions: 103000003 cycles: 98539667 heartbeat IPC: 0.730544 cumulative IPC: 0.725908 (Simulation time: 1 hr 11 min 8 sec) 
Heartbeat CPU 0 instructions: 104000000 cycles: 99916590 heartbeat IPC: 0.726255 cumulative IPC: 0.725914 (Simulation time: 1 hr 11 min 45 sec) 
Heartbeat CPU 0 instructions: 105000000 cycles: 101280826 heartbeat IPC: 0.733011 cumulative IPC: 0.726042 (Simulation time: 1 hr 12 min 20 sec) 
Heartbeat CPU 0 instructions: 106000001 cycles: 102663048 heartbeat IPC: 0.723473 cumulative IPC: 0.725996 (Simulation time: 1 hr 12 min 55 sec) 
Heartbeat CPU 0 instructions: 107000000 cycles: 104047798 heartbeat IPC: 0.722151 cumulative IPC: 0.725928 (Simulation time: 1 hr 13 min 30 sec) 
Heartbeat CPU 0 instructions: 108000000 cycles: 105429809 heartbeat IPC: 0.723583 cumulative IPC: 0.725888 (Simulation time: 1 hr 14 min 9 sec) 
Heartbeat CPU 0 instructions: 109000003 cycles: 106824654 heartbeat IPC: 0.716928 cumulative IPC: 0.725734 (Simulation time: 1 hr 14 min 45 sec) 
Heartbeat CPU 0 instructions: 110000001 cycles: 108206929 heartbeat IPC: 0.723444 cumulative IPC: 0.725696 (Simulation time: 1 hr 15 min 19 sec) 
Heartbeat CPU 0 instructions: 111000001 cycles: 109589441 heartbeat IPC: 0.723321 cumulative IPC: 0.725657 (Simulation time: 1 hr 15 min 51 sec) 
Heartbeat CPU 0 instructions: 112000000 cycles: 110971141 heartbeat IPC: 0.723745 cumulative IPC: 0.725626 (Simulation time: 1 hr 16 min 26 sec) 
Heartbeat CPU 0 instructions: 113000003 cycles: 112350758 heartbeat IPC: 0.724841 cumulative IPC: 0.725613 (Simulation time: 1 hr 16 min 54 sec) 
Heartbeat CPU 0 instructions: 114000000 cycles: 113735253 heartbeat IPC: 0.722283 cumulative IPC: 0.725561 (Simulation time: 1 hr 17 min 25 sec) 
Heartbeat CPU 0 instructions: 115000001 cycles: 115123102 heartbeat IPC: 0.72054 cumulative IPC: 0.725483 (Simulation time: 1 hr 17 min 54 sec) 
Heartbeat CPU 0 instructions: 116000000 cycles: 116505440 heartbeat IPC: 0.723411 cumulative IPC: 0.725452 (Simulation time: 1 hr 18 min 23 sec) 
Heartbeat CPU 0 instructions: 117000001 cycles: 117889433 heartbeat IPC: 0.722548 cumulative IPC: 0.725408 (Simulation time: 1 hr 18 min 50 sec) 
Heartbeat CPU 0 instructions: 118000001 cycles: 119271801 heartbeat IPC: 0.723396 cumulative IPC: 0.725378 (Simulation time: 1 hr 19 min 13 sec) 
Heartbeat CPU 0 instructions: 119000001 cycles: 120664883 heartbeat IPC: 0.717833 cumulative IPC: 0.725268 (Simulation time: 1 hr 19 min 39 sec) 
Heartbeat CPU 0 instructions: 120000000 cycles: 122050227 heartbeat IPC: 0.721842 cumulative IPC: 0.725219 (Simulation time: 1 hr 20 min 5 sec) 
Heartbeat CPU 0 instructions: 121000001 cycles: 123433794 heartbeat IPC: 0.72277 cumulative IPC: 0.725184 (Simulation time: 1 hr 20 min 31 sec) 
Heartbeat CPU 0 instructions: 122000001 cycles: 124821746 heartbeat IPC: 0.720486 cumulative IPC: 0.725119 (Simulation time: 1 hr 20 min 54 sec) 
Heartbeat CPU 0 instructions: 123000001 cycles: 126203895 heartbeat IPC: 0.723511 cumulative IPC: 0.725096 (Simulation time: 1 hr 21 min 15 sec) 
Heartbeat CPU 0 instructions: 124000000 cycles: 127580771 heartbeat IPC: 0.726281 cumulative IPC: 0.725112 (Simulation time: 1 hr 21 min 37 sec) 
Heartbeat CPU 0 instructions: 125000000 cycles: 128967768 heartbeat IPC: 0.720982 cumulative IPC: 0.725057 (Simulation time: 1 hr 21 min 58 sec) 
Heartbeat CPU 0 instructions: 126000000 cycles: 130348615 heartbeat IPC: 0.724193 cumulative IPC: 0.725046 (Simulation time: 1 hr 22 min 19 sec) 
Heartbeat CPU 0 instructions: 127000001 cycles: 131724419 heartbeat IPC: 0.726848 cumulative IPC: 0.725069 (Simulation time: 1 hr 22 min 38 sec) 
Heartbeat CPU 0 instructions: 128000000 cycles: 133115920 heartbeat IPC: 0.718648 cumulative IPC: 0.724986 (Simulation time: 1 hr 22 min 57 sec) 
Heartbeat CPU 0 instructions: 129000003 cycles: 134499011 heartbeat IPC: 0.72302 cumulative IPC: 0.724961 (Simulation time: 1 hr 23 min 16 sec) 
Heartbeat CPU 0 instructions: 130000003 cycles: 135880082 heartbeat IPC: 0.724076 cumulative IPC: 0.72495 (Simulation time: 1 hr 23 min 36 sec) 
Heartbeat CPU 0 instructions: 131000002 cycles: 137263059 heartbeat IPC: 0.723077 cumulative IPC: 0.724927 (Simulation time: 1 hr 23 min 55 sec) 
Heartbeat CPU 0 instructions: 132000000 cycles: 138642863 heartbeat IPC: 0.724739 cumulative IPC: 0.724924 (Simulation time: 1 hr 24 min 14 sec) 
Heartbeat CPU 0 instructions: 133000000 cycles: 140024032 heartbeat IPC: 0.724024 cumulative IPC: 0.724914 (Simulation time: 1 hr 24 min 33 sec) 
Heartbeat CPU 0 instructions: 134000000 cycles: 141415027 heartbeat IPC: 0.71891 cumulative IPC: 0.724842 (Simulation time: 1 hr 24 min 51 sec) 
Heartbeat CPU 0 instructions: 135000001 cycles: 142793105 heartbeat IPC: 0.725649 cumulative IPC: 0.724851 (Simulation time: 1 hr 25 min 8 sec) 
Heartbeat CPU 0 instructions: 136000000 cycles: 144176260 heartbeat IPC: 0.722984 cumulative IPC: 0.724829 (Simulation time: 1 hr 25 min 27 sec) 
Heartbeat CPU 0 instructions: 137000000 cycles: 145569677 heartbeat IPC: 0.71766 cumulative IPC: 0.724746 (Simulation time: 1 hr 25 min 45 sec) 
Heartbeat CPU 0 instructions: 138000000 cycles: 146954471 heartbeat IPC: 0.722129 cumulative IPC: 0.724716 (Simulation time: 1 hr 26 min 2 sec) 
Heartbeat CPU 0 instructions: 139000000 cycles: 148339194 heartbeat IPC: 0.722166 cumulative IPC: 0.724687 (Simulation time: 1 hr 26 min 18 sec) 
Heartbeat CPU 0 instructions: 140000000 cycles: 149719974 heartbeat IPC: 0.724228 cumulative IPC: 0.724682 (Simulation time: 1 hr 26 min 34 sec) 
Heartbeat CPU 0 instructions: 141000003 cycles: 151111078 heartbeat IPC: 0.718856 cumulative IPC: 0.724618 (Simulation time: 1 hr 26 min 50 sec) 
Heartbeat CPU 0 instructions: 142000002 cycles: 152486474 heartbeat IPC: 0.727063 cumulative IPC: 0.724644 (Simulation time: 1 hr 27 min 5 sec) 
Heartbeat CPU 0 instructions: 143000001 cycles: 153861792 heartbeat IPC: 0.727104 cumulative IPC: 0.724671 (Simulation time: 1 hr 27 min 19 sec) 
Heartbeat CPU 0 instructions: 144000000 cycles: 155237658 heartbeat IPC: 0.726814 cumulative IPC: 0.724693 (Simulation time: 1 hr 27 min 33 sec) 
Heartbeat CPU 0 instructions: 145000001 cycles: 156601637 heartbeat IPC: 0.73315 cumulative IPC: 0.724781 (Simulation time: 1 hr 27 min 47 sec) 
Heartbeat CPU 0 instructions: 146000001 cycles: 157971327 heartbeat IPC: 0.730092 cumulative IPC: 0.724836 (Simulation time: 1 hr 27 min 59 sec) 
Heartbeat CPU 0 instructions: 147000001 cycles: 159353459 heartbeat IPC: 0.72352 cumulative IPC: 0.724823 (Simulation time: 1 hr 28 min 12 sec) 
Heartbeat CPU 0 instructions: 148000000 cycles: 160722981 heartbeat IPC: 0.730181 cumulative IPC: 0.724877 (Simulation time: 1 hr 28 min 25 sec) 
Heartbeat CPU 0 instructions: 149000000 cycles: 162102544 heartbeat IPC: 0.724867 cumulative IPC: 0.724877 (Simulation time: 1 hr 28 min 37 sec) 
Heartbeat CPU 0 instructions: 150000001 cycles: 163463353 heartbeat IPC: 0.734858 cumulative IPC: 0.724975 (Simulation time: 1 hr 28 min 49 sec) 
Finished CPU 0 instructions: 100000000 cycles: 137935721 cummulative IPC: 0.724975 (Simulation time: 1 hr 28 min 49 sec) 

ChampSim completed all CPUs

Region of Interest Statistics

CPU 0 cummulative IPC: 0.724975 instructions: 100000000 cycles: 137935721
LLC TOTAL     ACCESS:      43227  HIT:       5695  MISS:      37532
LLC LOAD      ACCESS:      13845  HIT:        475  MISS:      13370
LLC RFO       ACCESS:       3359  HIT:          7  MISS:       3352
LLC PREFETCH  ACCESS:      17995  HIT:        575  MISS:      17420
LLC WRITEBACK ACCESS:       8028  HIT:       4638  MISS:       3390
OPTgen accesses: 413
OPTgen hits: 25
OPTgen hit rate: 6.05327


