
*** ChampSim Multicore Out-of-Order Simulator ***

Warmup Instructions: 50000000
Simulation Instructions: 100000000
Configuration: 2
Number of CPUs: 1
LLC sets: 2048
LLC ways: 16
Off-chip DRAM Channels: 1 Width: 64-bit Data Rate: 1600 MT/s

CPU 0 runs /datasets/cs240c-wi22-a00-public/data/Assignment2-gz/omnetpp_17B.trace.gz
CPU 0 L1D next line prefetcher
CPU 0 L2C IP-based stride prefetcher
Initialize Hawkeye state
Heartbeat CPU 0 instructions: 1000000 cycles: 559560 heartbeat IPC: 1.78712 cumulative IPC: 1.78712 (Simulation time: 0 hr 0 min 36 sec) 
Heartbeat CPU 0 instructions: 2000002 cycles: 1133724 heartbeat IPC: 1.74167 cumulative IPC: 1.7641 (Simulation time: 0 hr 1 min 7 sec) 
Heartbeat CPU 0 instructions: 3000001 cycles: 1769032 heartbeat IPC: 1.57404 cumulative IPC: 1.69584 (Simulation time: 0 hr 1 min 35 sec) 
Heartbeat CPU 0 instructions: 4000000 cycles: 2334034 heartbeat IPC: 1.7699 cumulative IPC: 1.71377 (Simulation time: 0 hr 2 min 5 sec) 
Heartbeat CPU 0 instructions: 5000002 cycles: 2893133 heartbeat IPC: 1.7886 cumulative IPC: 1.72823 (Simulation time: 0 hr 2 min 36 sec) 
Heartbeat CPU 0 instructions: 6000000 cycles: 3471689 heartbeat IPC: 1.72844 cumulative IPC: 1.72827 (Simulation time: 0 hr 3 min 3 sec) 
Heartbeat CPU 0 instructions: 7000000 cycles: 4036061 heartbeat IPC: 1.77188 cumulative IPC: 1.73436 (Simulation time: 0 hr 3 min 32 sec) 
Heartbeat CPU 0 instructions: 8000000 cycles: 4697795 heartbeat IPC: 1.51118 cumulative IPC: 1.70293 (Simulation time: 0 hr 4 min 1 sec) 
Heartbeat CPU 0 instructions: 9000000 cycles: 5359600 heartbeat IPC: 1.51102 cumulative IPC: 1.67923 (Simulation time: 0 hr 4 min 25 sec) 
Heartbeat CPU 0 instructions: 10000001 cycles: 6021169 heartbeat IPC: 1.51156 cumulative IPC: 1.66081 (Simulation time: 0 hr 4 min 52 sec) 
Heartbeat CPU 0 instructions: 11000001 cycles: 6682559 heartbeat IPC: 1.51197 cumulative IPC: 1.64608 (Simulation time: 0 hr 5 min 21 sec) 
Heartbeat CPU 0 instructions: 12000000 cycles: 7343335 heartbeat IPC: 1.51337 cumulative IPC: 1.63413 (Simulation time: 0 hr 5 min 50 sec) 
Heartbeat CPU 0 instructions: 13000001 cycles: 8002035 heartbeat IPC: 1.51814 cumulative IPC: 1.62459 (Simulation time: 0 hr 6 min 13 sec) 
Heartbeat CPU 0 instructions: 14000000 cycles: 8663323 heartbeat IPC: 1.5122 cumulative IPC: 1.61601 (Simulation time: 0 hr 6 min 41 sec) 
Heartbeat CPU 0 instructions: 15000000 cycles: 9325037 heartbeat IPC: 1.51123 cumulative IPC: 1.60857 (Simulation time: 0 hr 7 min 7 sec) 
Heartbeat CPU 0 instructions: 16000000 cycles: 9986948 heartbeat IPC: 1.51078 cumulative IPC: 1.60209 (Simulation time: 0 hr 7 min 33 sec) 
Heartbeat CPU 0 instructions: 17000000 cycles: 10652674 heartbeat IPC: 1.50212 cumulative IPC: 1.59584 (Simulation time: 0 hr 7 min 58 sec) 
Heartbeat CPU 0 instructions: 18000001 cycles: 11319231 heartbeat IPC: 1.50025 cumulative IPC: 1.59021 (Simulation time: 0 hr 8 min 26 sec) 
Heartbeat CPU 0 instructions: 19000002 cycles: 11988037 heartbeat IPC: 1.4952 cumulative IPC: 1.58491 (Simulation time: 0 hr 8 min 52 sec) 
Heartbeat CPU 0 instructions: 20000000 cycles: 12559795 heartbeat IPC: 1.74899 cumulative IPC: 1.59238 (Simulation time: 0 hr 9 min 19 sec) 
Heartbeat CPU 0 instructions: 21000000 cycles: 13148886 heartbeat IPC: 1.69753 cumulative IPC: 1.59709 (Simulation time: 0 hr 9 min 46 sec) 
Heartbeat CPU 0 instructions: 22000001 cycles: 13760795 heartbeat IPC: 1.63423 cumulative IPC: 1.59874 (Simulation time: 0 hr 10 min 11 sec) 
Heartbeat CPU 0 instructions: 23000000 cycles: 14318670 heartbeat IPC: 1.79251 cumulative IPC: 1.60629 (Simulation time: 0 hr 10 min 41 sec) 
Heartbeat CPU 0 instructions: 24000000 cycles: 14878330 heartbeat IPC: 1.7868 cumulative IPC: 1.61308 (Simulation time: 0 hr 11 min 8 sec) 
Heartbeat CPU 0 instructions: 25000001 cycles: 15461885 heartbeat IPC: 1.71364 cumulative IPC: 1.61688 (Simulation time: 0 hr 11 min 35 sec) 
Heartbeat CPU 0 instructions: 26000001 cycles: 16078755 heartbeat IPC: 1.62109 cumulative IPC: 1.61704 (Simulation time: 0 hr 12 min 0 sec) 
Heartbeat CPU 0 instructions: 27000000 cycles: 16638414 heartbeat IPC: 1.7868 cumulative IPC: 1.62275 (Simulation time: 0 hr 12 min 27 sec) 
Heartbeat CPU 0 instructions: 28000000 cycles: 17196762 heartbeat IPC: 1.791 cumulative IPC: 1.62821 (Simulation time: 0 hr 12 min 55 sec) 
Heartbeat CPU 0 instructions: 29000000 cycles: 17775466 heartbeat IPC: 1.728 cumulative IPC: 1.63146 (Simulation time: 0 hr 13 min 23 sec) 
Heartbeat CPU 0 instructions: 30000000 cycles: 18398018 heartbeat IPC: 1.60629 cumulative IPC: 1.63061 (Simulation time: 0 hr 13 min 51 sec) 
Heartbeat CPU 0 instructions: 31000000 cycles: 18959452 heartbeat IPC: 1.78115 cumulative IPC: 1.63507 (Simulation time: 0 hr 14 min 22 sec) 
Heartbeat CPU 0 instructions: 32000000 cycles: 19516748 heartbeat IPC: 1.79438 cumulative IPC: 1.63962 (Simulation time: 0 hr 14 min 49 sec) 
Heartbeat CPU 0 instructions: 33000001 cycles: 20088618 heartbeat IPC: 1.74865 cumulative IPC: 1.64272 (Simulation time: 0 hr 15 min 23 sec) 
Heartbeat CPU 0 instructions: 34000001 cycles: 20724329 heartbeat IPC: 1.57304 cumulative IPC: 1.64058 (Simulation time: 0 hr 15 min 52 sec) 
Heartbeat CPU 0 instructions: 35000002 cycles: 21289584 heartbeat IPC: 1.76911 cumulative IPC: 1.644 (Simulation time: 0 hr 16 min 26 sec) 
Heartbeat CPU 0 instructions: 36000000 cycles: 21849382 heartbeat IPC: 1.78636 cumulative IPC: 1.64764 (Simulation time: 0 hr 16 min 53 sec) 
Heartbeat CPU 0 instructions: 37000001 cycles: 22427585 heartbeat IPC: 1.7295 cumulative IPC: 1.64975 (Simulation time: 0 hr 17 min 20 sec) 
Heartbeat CPU 0 instructions: 38000002 cycles: 23056622 heartbeat IPC: 1.58973 cumulative IPC: 1.64812 (Simulation time: 0 hr 17 min 46 sec) 
Heartbeat CPU 0 instructions: 39000000 cycles: 23619338 heartbeat IPC: 1.77709 cumulative IPC: 1.65119 (Simulation time: 0 hr 18 min 17 sec) 
Heartbeat CPU 0 instructions: 40000000 cycles: 24179446 heartbeat IPC: 1.78537 cumulative IPC: 1.6543 (Simulation time: 0 hr 18 min 48 sec) 
Heartbeat CPU 0 instructions: 41000002 cycles: 24762553 heartbeat IPC: 1.71495 cumulative IPC: 1.65573 (Simulation time: 0 hr 19 min 19 sec) 
Heartbeat CPU 0 instructions: 42000000 cycles: 25389529 heartbeat IPC: 1.59495 cumulative IPC: 1.65423 (Simulation time: 0 hr 19 min 44 sec) 
Heartbeat CPU 0 instructions: 43000001 cycles: 25876918 heartbeat IPC: 2.05175 cumulative IPC: 1.66171 (Simulation time: 0 hr 20 min 19 sec) 
Heartbeat CPU 0 instructions: 44000000 cycles: 26537615 heartbeat IPC: 1.51355 cumulative IPC: 1.65802 (Simulation time: 0 hr 20 min 47 sec) 
Heartbeat CPU 0 instructions: 45000003 cycles: 27199257 heartbeat IPC: 1.5114 cumulative IPC: 1.65446 (Simulation time: 0 hr 21 min 13 sec) 
Heartbeat CPU 0 instructions: 46000000 cycles: 27861632 heartbeat IPC: 1.50971 cumulative IPC: 1.65102 (Simulation time: 0 hr 21 min 40 sec) 
Heartbeat CPU 0 instructions: 47000001 cycles: 28524649 heartbeat IPC: 1.50826 cumulative IPC: 1.6477 (Simulation time: 0 hr 22 min 7 sec) 
Heartbeat CPU 0 instructions: 48000000 cycles: 29187400 heartbeat IPC: 1.50886 cumulative IPC: 1.64455 (Simulation time: 0 hr 22 min 35 sec) 
Heartbeat CPU 0 instructions: 49000000 cycles: 29848898 heartbeat IPC: 1.51172 cumulative IPC: 1.6416 (Simulation time: 0 hr 23 min 0 sec) 
Heartbeat CPU 0 instructions: 50000000 cycles: 30511089 heartbeat IPC: 1.51014 cumulative IPC: 1.63875 (Simulation time: 0 hr 23 min 27 sec) 

Warmup complete CPU 0 instructions: 50000002 cycles: 30511090 (Simulation time: 0 hr 23 min 27 sec) 

Heartbeat CPU 0 instructions: 51000002 cycles: 31554312 heartbeat IPC: 0.95857 cumulative IPC: 0.958569 (Simulation time: 0 hr 23 min 52 sec) 
Heartbeat CPU 0 instructions: 52000000 cycles: 32598571 heartbeat IPC: 0.957615 cumulative IPC: 0.958092 (Simulation time: 0 hr 24 min 24 sec) 
Heartbeat CPU 0 instructions: 53000001 cycles: 33641063 heartbeat IPC: 0.959241 cumulative IPC: 0.958474 (Simulation time: 0 hr 24 min 51 sec) 
Heartbeat CPU 0 instructions: 54000002 cycles: 34709208 heartbeat IPC: 0.936203 cumulative IPC: 0.952808 (Simulation time: 0 hr 25 min 17 sec) 
Heartbeat CPU 0 instructions: 55000003 cycles: 35749483 heartbeat IPC: 0.961285 cumulative IPC: 0.954491 (Simulation time: 0 hr 25 min 46 sec) 
Heartbeat CPU 0 instructions: 56000000 cycles: 38052617 heartbeat IPC: 0.43419 cumulative IPC: 0.795595 (Simulation time: 0 hr 26 min 17 sec) 
Heartbeat CPU 0 instructions: 57000003 cycles: 40123136 heartbeat IPC: 0.482972 cumulative IPC: 0.728253 (Simulation time: 0 hr 26 min 51 sec) 
Heartbeat CPU 0 instructions: 58000000 cycles: 43493359 heartbeat IPC: 0.296715 cumulative IPC: 0.616225 (Simulation time: 0 hr 27 min 26 sec) 
Heartbeat CPU 0 instructions: 59000003 cycles: 46859948 heartbeat IPC: 0.297037 cumulative IPC: 0.550497 (Simulation time: 0 hr 28 min 5 sec) 
Heartbeat CPU 0 instructions: 60000000 cycles: 49343264 heartbeat IPC: 0.402686 cumulative IPC: 0.531006 (Simulation time: 0 hr 28 min 36 sec) 
Heartbeat CPU 0 instructions: 61000001 cycles: 51236178 heartbeat IPC: 0.528287 cumulative IPC: 0.530758 (Simulation time: 0 hr 29 min 9 sec) 
Heartbeat CPU 0 instructions: 62000001 cycles: 54579007 heartbeat IPC: 0.299148 cumulative IPC: 0.498589 (Simulation time: 0 hr 29 min 45 sec) 
Heartbeat CPU 0 instructions: 63000000 cycles: 57933834 heartbeat IPC: 0.298078 cumulative IPC: 0.474059 (Simulation time: 0 hr 30 min 20 sec) 
Heartbeat CPU 0 instructions: 64000000 cycles: 60574199 heartbeat IPC: 0.378736 cumulative IPC: 0.465687 (Simulation time: 0 hr 30 min 52 sec) 
Heartbeat CPU 0 instructions: 65000000 cycles: 62292573 heartbeat IPC: 0.581945 cumulative IPC: 0.471973 (Simulation time: 0 hr 31 min 24 sec) 
Heartbeat CPU 0 instructions: 66000000 cycles: 65627147 heartbeat IPC: 0.299888 cumulative IPC: 0.455632 (Simulation time: 0 hr 31 min 58 sec) 
Heartbeat CPU 0 instructions: 67000001 cycles: 68963404 heartbeat IPC: 0.299737 cumulative IPC: 0.442106 (Simulation time: 0 hr 32 min 33 sec) 
Heartbeat CPU 0 instructions: 68000000 cycles: 71788769 heartbeat IPC: 0.353936 cumulative IPC: 0.436071 (Simulation time: 0 hr 33 min 7 sec) 
Heartbeat CPU 0 instructions: 69000001 cycles: 73325693 heartbeat IPC: 0.650651 cumulative IPC: 0.443774 (Simulation time: 0 hr 33 min 34 sec) 
Heartbeat CPU 0 instructions: 70000001 cycles: 76646439 heartbeat IPC: 0.301137 cumulative IPC: 0.433507 (Simulation time: 0 hr 34 min 9 sec) 
Heartbeat CPU 0 instructions: 71000001 cycles: 79991456 heartbeat IPC: 0.298952 cumulative IPC: 0.424411 (Simulation time: 0 hr 34 min 43 sec) 
Heartbeat CPU 0 instructions: 72000000 cycles: 82818623 heartbeat IPC: 0.353711 cumulative IPC: 0.420589 (Simulation time: 0 hr 35 min 15 sec) 
Heartbeat CPU 0 instructions: 73000000 cycles: 84360276 heartbeat IPC: 0.648654 cumulative IPC: 0.427119 (Simulation time: 0 hr 35 min 42 sec) 
Heartbeat CPU 0 instructions: 74000003 cycles: 87706067 heartbeat IPC: 0.298884 cumulative IPC: 0.419617 (Simulation time: 0 hr 36 min 17 sec) 
Heartbeat CPU 0 instructions: 75000001 cycles: 91033285 heartbeat IPC: 0.300551 cumulative IPC: 0.413072 (Simulation time: 0 hr 36 min 51 sec) 
Heartbeat CPU 0 instructions: 76000000 cycles: 93763392 heartbeat IPC: 0.366286 cumulative IPC: 0.411052 (Simulation time: 0 hr 37 min 24 sec) 
Heartbeat CPU 0 instructions: 77000001 cycles: 95405210 heartbeat IPC: 0.609082 cumulative IPC: 0.416062 (Simulation time: 0 hr 37 min 54 sec) 
Heartbeat CPU 0 instructions: 78000000 cycles: 98741792 heartbeat IPC: 0.299708 cumulative IPC: 0.410372 (Simulation time: 0 hr 38 min 29 sec) 
Heartbeat CPU 0 instructions: 79000000 cycles: 102258392 heartbeat IPC: 0.284366 cumulative IPC: 0.404196 (Simulation time: 0 hr 39 min 5 sec) 
Heartbeat CPU 0 instructions: 80000000 cycles: 104149038 heartbeat IPC: 0.52892 cumulative IPC: 0.407399 (Simulation time: 0 hr 39 min 32 sec) 
Heartbeat CPU 0 instructions: 81000001 cycles: 106625328 heartbeat IPC: 0.40383 cumulative IPC: 0.407283 (Simulation time: 0 hr 40 min 3 sec) 
Heartbeat CPU 0 instructions: 82000000 cycles: 109980668 heartbeat IPC: 0.298032 cumulative IPC: 0.40267 (Simulation time: 0 hr 40 min 36 sec) 
Heartbeat CPU 0 instructions: 83000000 cycles: 113324825 heartbeat IPC: 0.299029 cumulative IPC: 0.398485 (Simulation time: 0 hr 41 min 14 sec) 
Heartbeat CPU 0 instructions: 84000000 cycles: 115183025 heartbeat IPC: 0.538155 cumulative IPC: 0.40155 (Simulation time: 0 hr 41 min 41 sec) 
Heartbeat CPU 0 instructions: 85000003 cycles: 117690476 heartbeat IPC: 0.398813 cumulative IPC: 0.401471 (Simulation time: 0 hr 42 min 11 sec) 
Heartbeat CPU 0 instructions: 86000001 cycles: 121034891 heartbeat IPC: 0.299005 cumulative IPC: 0.397685 (Simulation time: 0 hr 42 min 43 sec) 
Heartbeat CPU 0 instructions: 87000000 cycles: 124380369 heartbeat IPC: 0.298911 cumulative IPC: 0.394165 (Simulation time: 0 hr 43 min 17 sec) 
Heartbeat CPU 0 instructions: 88000000 cycles: 126114994 heartbeat IPC: 0.576494 cumulative IPC: 0.397473 (Simulation time: 0 hr 43 min 48 sec) 
Heartbeat CPU 0 instructions: 89000000 cycles: 130936158 heartbeat IPC: 0.207419 cumulative IPC: 0.388349 (Simulation time: 0 hr 44 min 28 sec) 
Heartbeat CPU 0 instructions: 90000002 cycles: 131979787 heartbeat IPC: 0.958197 cumulative IPC: 0.39421 (Simulation time: 0 hr 44 min 52 sec) 
Heartbeat CPU 0 instructions: 91000001 cycles: 133024180 heartbeat IPC: 0.957493 cumulative IPC: 0.399949 (Simulation time: 0 hr 45 min 17 sec) 
Heartbeat CPU 0 instructions: 92000000 cycles: 134067936 heartbeat IPC: 0.958077 cumulative IPC: 0.405574 (Simulation time: 0 hr 45 min 44 sec) 
Heartbeat CPU 0 instructions: 93000002 cycles: 135112276 heartbeat IPC: 0.957545 cumulative IPC: 0.411085 (Simulation time: 0 hr 46 min 10 sec) 
Heartbeat CPU 0 instructions: 94000001 cycles: 136156123 heartbeat IPC: 0.957994 cumulative IPC: 0.416489 (Simulation time: 0 hr 46 min 35 sec) 
Heartbeat CPU 0 instructions: 95000000 cycles: 137200408 heartbeat IPC: 0.957592 cumulative IPC: 0.421785 (Simulation time: 0 hr 47 min 3 sec) 
Heartbeat CPU 0 instructions: 96000000 cycles: 138245388 heartbeat IPC: 0.956956 cumulative IPC: 0.426976 (Simulation time: 0 hr 47 min 30 sec) 
Heartbeat CPU 0 instructions: 97000002 cycles: 139316280 heartbeat IPC: 0.933803 cumulative IPC: 0.431965 (Simulation time: 0 hr 48 min 0 sec) 
Heartbeat CPU 0 instructions: 98000000 cycles: 140361925 heartbeat IPC: 0.956346 cumulative IPC: 0.436956 (Simulation time: 0 hr 48 min 26 sec) 
Heartbeat CPU 0 instructions: 99000003 cycles: 141400262 heartbeat IPC: 0.963081 cumulative IPC: 0.441883 (Simulation time: 0 hr 48 min 51 sec) 
Heartbeat CPU 0 instructions: 100000000 cycles: 142436736 heartbeat IPC: 0.964807 cumulative IPC: 0.446725 (Simulation time: 0 hr 49 min 15 sec) 
Heartbeat CPU 0 instructions: 101000001 cycles: 143477826 heartbeat IPC: 0.960533 cumulative IPC: 0.45146 (Simulation time: 0 hr 49 min 40 sec) 
Heartbeat CPU 0 instructions: 102000001 cycles: 146775380 heartbeat IPC: 0.303255 cumulative IPC: 0.447257 (Simulation time: 0 hr 50 min 13 sec) 
Heartbeat CPU 0 instructions: 103000000 cycles: 148201105 heartbeat IPC: 0.701397 cumulative IPC: 0.450336 (Simulation time: 0 hr 50 min 39 sec) 
Heartbeat CPU 0 instructions: 104000000 cycles: 151193806 heartbeat IPC: 0.334146 cumulative IPC: 0.447454 (Simulation time: 0 hr 51 min 14 sec) 
Heartbeat CPU 0 instructions: 105000000 cycles: 154531367 heartbeat IPC: 0.29962 cumulative IPC: 0.443476 (Simulation time: 0 hr 51 min 48 sec) 
Heartbeat CPU 0 instructions: 106000000 cycles: 157801224 heartbeat IPC: 0.305824 cumulative IPC: 0.43994 (Simulation time: 0 hr 52 min 20 sec) 
Heartbeat CPU 0 instructions: 107000001 cycles: 159382327 heartbeat IPC: 0.63247 cumulative IPC: 0.442302 (Simulation time: 0 hr 52 min 48 sec) 
Heartbeat CPU 0 instructions: 108000000 cycles: 162206170 heartbeat IPC: 0.354127 cumulative IPC: 0.440411 (Simulation time: 0 hr 53 min 20 sec) 
Heartbeat CPU 0 instructions: 109000000 cycles: 165547037 heartbeat IPC: 0.299323 cumulative IPC: 0.436921 (Simulation time: 0 hr 53 min 56 sec) 
Heartbeat CPU 0 instructions: 110000000 cycles: 168866634 heartbeat IPC: 0.301241 cumulative IPC: 0.433665 (Simulation time: 0 hr 54 min 32 sec) 
Heartbeat CPU 0 instructions: 111000000 cycles: 170597333 heartbeat IPC: 0.577801 cumulative IPC: 0.435446 (Simulation time: 0 hr 54 min 59 sec) 
Heartbeat CPU 0 instructions: 112000000 cycles: 173247683 heartbeat IPC: 0.377309 cumulative IPC: 0.434367 (Simulation time: 0 hr 55 min 28 sec) 
Heartbeat CPU 0 instructions: 113000001 cycles: 176600761 heartbeat IPC: 0.298234 cumulative IPC: 0.431242 (Simulation time: 0 hr 56 min 2 sec) 
Heartbeat CPU 0 instructions: 114000001 cycles: 179958405 heartbeat IPC: 0.297828 cumulative IPC: 0.428245 (Simulation time: 0 hr 56 min 37 sec) 
Heartbeat CPU 0 instructions: 115000002 cycles: 181881741 heartbeat IPC: 0.51993 cumulative IPC: 0.42941 (Simulation time: 0 hr 57 min 8 sec) 
Heartbeat CPU 0 instructions: 116000000 cycles: 184346605 heartbeat IPC: 0.405701 cumulative IPC: 0.42903 (Simulation time: 0 hr 57 min 40 sec) 
Heartbeat CPU 0 instructions: 117000000 cycles: 187673280 heartbeat IPC: 0.3006 cumulative IPC: 0.426311 (Simulation time: 0 hr 58 min 13 sec) 
Heartbeat CPU 0 instructions: 118000001 cycles: 191042335 heartbeat IPC: 0.296819 cumulative IPC: 0.423594 (Simulation time: 0 hr 58 min 45 sec) 
Heartbeat CPU 0 instructions: 119000002 cycles: 192860926 heartbeat IPC: 0.549877 cumulative IPC: 0.425008 (Simulation time: 0 hr 59 min 15 sec) 
Heartbeat CPU 0 instructions: 120000000 cycles: 195430031 heartbeat IPC: 0.38924 cumulative IPC: 0.424451 (Simulation time: 0 hr 59 min 50 sec) 
Heartbeat CPU 0 instructions: 121000000 cycles: 198771163 heartbeat IPC: 0.2993 cumulative IPC: 0.421966 (Simulation time: 1 hr 0 min 23 sec) 
Heartbeat CPU 0 instructions: 122000000 cycles: 202115984 heartbeat IPC: 0.29897 cumulative IPC: 0.419568 (Simulation time: 1 hr 0 min 59 sec) 
Heartbeat CPU 0 instructions: 123000002 cycles: 203825668 heartbeat IPC: 0.584905 cumulative IPC: 0.421199 (Simulation time: 1 hr 1 min 28 sec) 
Heartbeat CPU 0 instructions: 124000000 cycles: 206470187 heartbeat IPC: 0.37814 cumulative IPC: 0.420552 (Simulation time: 1 hr 1 min 59 sec) 
Heartbeat CPU 0 instructions: 125000000 cycles: 209963472 heartbeat IPC: 0.286263 cumulative IPC: 0.417938 (Simulation time: 1 hr 2 min 35 sec) 
Heartbeat CPU 0 instructions: 126000001 cycles: 213185462 heartbeat IPC: 0.310367 cumulative IPC: 0.416041 (Simulation time: 1 hr 3 min 6 sec) 
Heartbeat CPU 0 instructions: 127000002 cycles: 214345782 heartbeat IPC: 0.861832 cumulative IPC: 0.418855 (Simulation time: 1 hr 3 min 31 sec) 
Heartbeat CPU 0 instructions: 128000000 cycles: 217702585 heartbeat IPC: 0.297902 cumulative IPC: 0.416686 (Simulation time: 1 hr 4 min 4 sec) 
Heartbeat CPU 0 instructions: 129000000 cycles: 221044102 heartbeat IPC: 0.299265 cumulative IPC: 0.414626 (Simulation time: 1 hr 4 min 40 sec) 
Heartbeat CPU 0 instructions: 130000001 cycles: 224234976 heartbeat IPC: 0.313394 cumulative IPC: 0.412959 (Simulation time: 1 hr 5 min 11 sec) 
Heartbeat CPU 0 instructions: 131000002 cycles: 225432735 heartbeat IPC: 0.834893 cumulative IPC: 0.415552 (Simulation time: 1 hr 5 min 36 sec) 
Heartbeat CPU 0 instructions: 132000000 cycles: 228787291 heartbeat IPC: 0.298101 cumulative IPC: 0.413565 (Simulation time: 1 hr 6 min 11 sec) 
Heartbeat CPU 0 instructions: 133000000 cycles: 232118049 heartbeat IPC: 0.300232 cumulative IPC: 0.411692 (Simulation time: 1 hr 6 min 44 sec) 
Heartbeat CPU 0 instructions: 134000000 cycles: 235179870 heartbeat IPC: 0.326603 cumulative IPC: 0.410419 (Simulation time: 1 hr 7 min 17 sec) 
Heartbeat CPU 0 instructions: 135000001 cycles: 238666783 heartbeat IPC: 0.286787 cumulative IPC: 0.408348 (Simulation time: 1 hr 7 min 49 sec) 
Heartbeat CPU 0 instructions: 136000000 cycles: 239710954 heartbeat IPC: 0.957697 cumulative IPC: 0.41109 (Simulation time: 1 hr 8 min 17 sec) 
Heartbeat CPU 0 instructions: 137000001 cycles: 240756139 heartbeat IPC: 0.956769 cumulative IPC: 0.413803 (Simulation time: 1 hr 8 min 43 sec) 
Heartbeat CPU 0 instructions: 138000001 cycles: 241800843 heartbeat IPC: 0.957209 cumulative IPC: 0.41649 (Simulation time: 1 hr 9 min 7 sec) 
Heartbeat CPU 0 instructions: 139000001 cycles: 242846244 heartbeat IPC: 0.956571 cumulative IPC: 0.419149 (Simulation time: 1 hr 9 min 30 sec) 
Heartbeat CPU 0 instructions: 140000000 cycles: 243892768 heartbeat IPC: 0.955543 cumulative IPC: 0.421779 (Simulation time: 1 hr 9 min 58 sec) 
Heartbeat CPU 0 instructions: 141000001 cycles: 244963203 heartbeat IPC: 0.934201 cumulative IPC: 0.424337 (Simulation time: 1 hr 10 min 22 sec) 
Heartbeat CPU 0 instructions: 142000002 cycles: 246007077 heartbeat IPC: 0.957971 cumulative IPC: 0.426922 (Simulation time: 1 hr 10 min 45 sec) 
Heartbeat CPU 0 instructions: 143000001 cycles: 247052231 heartbeat IPC: 0.956796 cumulative IPC: 0.42948 (Simulation time: 1 hr 11 min 8 sec) 
Heartbeat CPU 0 instructions: 144000000 cycles: 248096033 heartbeat IPC: 0.958035 cumulative IPC: 0.432015 (Simulation time: 1 hr 11 min 31 sec) 
Heartbeat CPU 0 instructions: 145000003 cycles: 249138762 heartbeat IPC: 0.959025 cumulative IPC: 0.434529 (Simulation time: 1 hr 11 min 53 sec) 
Heartbeat CPU 0 instructions: 146000001 cycles: 250180088 heartbeat IPC: 0.960312 cumulative IPC: 0.437021 (Simulation time: 1 hr 12 min 15 sec) 
Heartbeat CPU 0 instructions: 147000000 cycles: 251222015 heartbeat IPC: 0.959759 cumulative IPC: 0.439489 (Simulation time: 1 hr 12 min 36 sec) 
Heartbeat CPU 0 instructions: 148000000 cycles: 254574249 heartbeat IPC: 0.298309 cumulative IPC: 0.437377 (Simulation time: 1 hr 13 min 6 sec) 
Heartbeat CPU 0 instructions: 149000000 cycles: 257274923 heartbeat IPC: 0.370278 cumulative IPC: 0.436578 (Simulation time: 1 hr 13 min 31 sec) 
Heartbeat CPU 0 instructions: 150000000 cycles: 258950419 heartbeat IPC: 0.596838 cumulative IPC: 0.437753 (Simulation time: 1 hr 13 min 55 sec) 
Finished CPU 0 instructions: 100000002 cycles: 228439335 cummulative IPC: 0.437753 (Simulation time: 1 hr 13 min 55 sec) 

ChampSim completed all CPUs

Region of Interest Statistics

CPU 0 cummulative IPC: 0.437753 instructions: 100000002 cycles: 228439335
LLC TOTAL     ACCESS:    3408584  HIT:    1190321  MISS:    2218263
LLC LOAD      ACCESS:    1620617  HIT:    1085845  MISS:     534772
LLC RFO       ACCESS:       5352  HIT:       2294  MISS:       3058
LLC PREFETCH  ACCESS:    1765214  HIT:      94318  MISS:    1670896
LLC WRITEBACK ACCESS:      17401  HIT:       7864  MISS:       9537
OPTgen accesses: 38881
OPTgen hits: 31961
OPTgen hit rate: 82.2021


