
*** ChampSim Multicore Out-of-Order Simulator ***

Warmup Instructions: 50000000
Simulation Instructions: 100000000
Configuration: 2
Number of CPUs: 1
LLC sets: 2048
LLC ways: 16
Off-chip DRAM Channels: 1 Width: 64-bit Data Rate: 1600 MT/s

CPU 0 runs /datasets/cs240c-wi22-a00-public/data/Assignment2-gz/mcf_250B.trace.gz
CPU 0 L1D next line prefetcher
CPU 0 L2C IP-based stride prefetcher
Initialize Hawkeye state
Heartbeat CPU 0 instructions: 1000000 cycles: 532229 heartbeat IPC: 1.87889 cumulative IPC: 1.87889 (Simulation time: 0 hr 0 min 50 sec) 
Heartbeat CPU 0 instructions: 2000003 cycles: 1045454 heartbeat IPC: 1.94847 cumulative IPC: 1.91305 (Simulation time: 0 hr 1 min 37 sec) 
Heartbeat CPU 0 instructions: 3000002 cycles: 1542376 heartbeat IPC: 2.01239 cumulative IPC: 1.94505 (Simulation time: 0 hr 2 min 15 sec) 
Heartbeat CPU 0 instructions: 4000000 cycles: 2053698 heartbeat IPC: 1.95571 cumulative IPC: 1.94771 (Simulation time: 0 hr 3 min 1 sec) 
Heartbeat CPU 0 instructions: 5000002 cycles: 2559996 heartbeat IPC: 1.97513 cumulative IPC: 1.95313 (Simulation time: 0 hr 3 min 47 sec) 
Heartbeat CPU 0 instructions: 6000002 cycles: 3065646 heartbeat IPC: 1.97765 cumulative IPC: 1.95717 (Simulation time: 0 hr 4 min 29 sec) 
Heartbeat CPU 0 instructions: 7000002 cycles: 3604914 heartbeat IPC: 1.85437 cumulative IPC: 1.94179 (Simulation time: 0 hr 5 min 16 sec) 
Heartbeat CPU 0 instructions: 8000000 cycles: 4119983 heartbeat IPC: 1.94148 cumulative IPC: 1.94176 (Simulation time: 0 hr 6 min 2 sec) 
Heartbeat CPU 0 instructions: 9000002 cycles: 4634510 heartbeat IPC: 1.94354 cumulative IPC: 1.94195 (Simulation time: 0 hr 6 min 47 sec) 
Heartbeat CPU 0 instructions: 10000000 cycles: 5145851 heartbeat IPC: 1.95564 cumulative IPC: 1.94331 (Simulation time: 0 hr 7 min 37 sec) 
Heartbeat CPU 0 instructions: 11000001 cycles: 5658005 heartbeat IPC: 1.95254 cumulative IPC: 1.94415 (Simulation time: 0 hr 8 min 20 sec) 
Heartbeat CPU 0 instructions: 12000000 cycles: 6192693 heartbeat IPC: 1.87025 cumulative IPC: 1.93777 (Simulation time: 0 hr 9 min 0 sec) 
Heartbeat CPU 0 instructions: 13000001 cycles: 6712708 heartbeat IPC: 1.92302 cumulative IPC: 1.93663 (Simulation time: 0 hr 9 min 44 sec) 
Heartbeat CPU 0 instructions: 14000003 cycles: 7225674 heartbeat IPC: 1.94945 cumulative IPC: 1.93754 (Simulation time: 0 hr 10 min 28 sec) 
Heartbeat CPU 0 instructions: 15000002 cycles: 7738808 heartbeat IPC: 1.94881 cumulative IPC: 1.93828 (Simulation time: 0 hr 11 min 16 sec) 
Heartbeat CPU 0 instructions: 16000000 cycles: 8247928 heartbeat IPC: 1.96417 cumulative IPC: 1.93988 (Simulation time: 0 hr 12 min 9 sec) 
Heartbeat CPU 0 instructions: 17000000 cycles: 8759785 heartbeat IPC: 1.95367 cumulative IPC: 1.94069 (Simulation time: 0 hr 12 min 57 sec) 
Heartbeat CPU 0 instructions: 18000002 cycles: 9269375 heartbeat IPC: 1.96237 cumulative IPC: 1.94188 (Simulation time: 0 hr 13 min 39 sec) 
Heartbeat CPU 0 instructions: 19000001 cycles: 9781115 heartbeat IPC: 1.95412 cumulative IPC: 1.94252 (Simulation time: 0 hr 14 min 26 sec) 
Heartbeat CPU 0 instructions: 20000000 cycles: 10292221 heartbeat IPC: 1.95654 cumulative IPC: 1.94322 (Simulation time: 0 hr 15 min 8 sec) 
Heartbeat CPU 0 instructions: 21000001 cycles: 10799131 heartbeat IPC: 1.97274 cumulative IPC: 1.9446 (Simulation time: 0 hr 15 min 54 sec) 
Heartbeat CPU 0 instructions: 22000000 cycles: 11303775 heartbeat IPC: 1.98159 cumulative IPC: 1.94625 (Simulation time: 0 hr 16 min 38 sec) 
Heartbeat CPU 0 instructions: 23000003 cycles: 11812293 heartbeat IPC: 1.9665 cumulative IPC: 1.94712 (Simulation time: 0 hr 17 min 21 sec) 
Heartbeat CPU 0 instructions: 24000000 cycles: 12319487 heartbeat IPC: 1.97163 cumulative IPC: 1.94813 (Simulation time: 0 hr 18 min 6 sec) 
Heartbeat CPU 0 instructions: 25000002 cycles: 12828886 heartbeat IPC: 1.9631 cumulative IPC: 1.94873 (Simulation time: 0 hr 18 min 55 sec) 
Heartbeat CPU 0 instructions: 26000000 cycles: 13342296 heartbeat IPC: 1.94776 cumulative IPC: 1.94869 (Simulation time: 0 hr 19 min 38 sec) 
Heartbeat CPU 0 instructions: 27000003 cycles: 13856786 heartbeat IPC: 1.94368 cumulative IPC: 1.9485 (Simulation time: 0 hr 20 min 23 sec) 
Heartbeat CPU 0 instructions: 28000000 cycles: 14371069 heartbeat IPC: 1.94445 cumulative IPC: 1.94836 (Simulation time: 0 hr 21 min 8 sec) 
Heartbeat CPU 0 instructions: 29000000 cycles: 14885635 heartbeat IPC: 1.94339 cumulative IPC: 1.94819 (Simulation time: 0 hr 21 min 55 sec) 
Heartbeat CPU 0 instructions: 30000000 cycles: 15400112 heartbeat IPC: 1.94372 cumulative IPC: 1.94804 (Simulation time: 0 hr 22 min 41 sec) 
Heartbeat CPU 0 instructions: 31000000 cycles: 15913568 heartbeat IPC: 1.94759 cumulative IPC: 1.94802 (Simulation time: 0 hr 23 min 27 sec) 
Heartbeat CPU 0 instructions: 32000000 cycles: 16421879 heartbeat IPC: 1.9673 cumulative IPC: 1.94862 (Simulation time: 0 hr 24 min 13 sec) 
Heartbeat CPU 0 instructions: 33000002 cycles: 16934960 heartbeat IPC: 1.94901 cumulative IPC: 1.94863 (Simulation time: 0 hr 24 min 59 sec) 
Heartbeat CPU 0 instructions: 34000000 cycles: 17448925 heartbeat IPC: 1.94565 cumulative IPC: 1.94854 (Simulation time: 0 hr 25 min 42 sec) 
Heartbeat CPU 0 instructions: 35000000 cycles: 17974409 heartbeat IPC: 1.90301 cumulative IPC: 1.94721 (Simulation time: 0 hr 26 min 27 sec) 
Heartbeat CPU 0 instructions: 36000000 cycles: 18504087 heartbeat IPC: 1.88794 cumulative IPC: 1.94552 (Simulation time: 0 hr 27 min 9 sec) 
Heartbeat CPU 0 instructions: 37000002 cycles: 19017266 heartbeat IPC: 1.94864 cumulative IPC: 1.9456 (Simulation time: 0 hr 27 min 51 sec) 
Heartbeat CPU 0 instructions: 38000000 cycles: 19530603 heartbeat IPC: 1.94803 cumulative IPC: 1.94566 (Simulation time: 0 hr 28 min 41 sec) 
Heartbeat CPU 0 instructions: 39000002 cycles: 20044029 heartbeat IPC: 1.9477 cumulative IPC: 1.94572 (Simulation time: 0 hr 29 min 29 sec) 
Heartbeat CPU 0 instructions: 40000000 cycles: 20558478 heartbeat IPC: 1.94382 cumulative IPC: 1.94567 (Simulation time: 0 hr 30 min 21 sec) 
Heartbeat CPU 0 instructions: 41000000 cycles: 21072925 heartbeat IPC: 1.94383 cumulative IPC: 1.94562 (Simulation time: 0 hr 31 min 6 sec) 
Heartbeat CPU 0 instructions: 42000000 cycles: 21588072 heartbeat IPC: 1.94119 cumulative IPC: 1.94552 (Simulation time: 0 hr 31 min 53 sec) 
Heartbeat CPU 0 instructions: 43000000 cycles: 22101042 heartbeat IPC: 1.94943 cumulative IPC: 1.94561 (Simulation time: 0 hr 32 min 42 sec) 
Heartbeat CPU 0 instructions: 44000000 cycles: 22614056 heartbeat IPC: 1.94926 cumulative IPC: 1.94569 (Simulation time: 0 hr 33 min 25 sec) 
Heartbeat CPU 0 instructions: 45000001 cycles: 23128085 heartbeat IPC: 1.94542 cumulative IPC: 1.94569 (Simulation time: 0 hr 34 min 8 sec) 
Heartbeat CPU 0 instructions: 46000002 cycles: 23642305 heartbeat IPC: 1.94469 cumulative IPC: 1.94566 (Simulation time: 0 hr 34 min 51 sec) 
Heartbeat CPU 0 instructions: 47000002 cycles: 24156630 heartbeat IPC: 1.9443 cumulative IPC: 1.94564 (Simulation time: 0 hr 35 min 32 sec) 
Heartbeat CPU 0 instructions: 48000000 cycles: 24670857 heartbeat IPC: 1.94466 cumulative IPC: 1.94562 (Simulation time: 0 hr 36 min 21 sec) 
Heartbeat CPU 0 instructions: 49000000 cycles: 25184991 heartbeat IPC: 1.94502 cumulative IPC: 1.9456 (Simulation time: 0 hr 37 min 5 sec) 
Heartbeat CPU 0 instructions: 50000002 cycles: 25698392 heartbeat IPC: 1.9478 cumulative IPC: 1.94565 (Simulation time: 0 hr 37 min 50 sec) 

Warmup complete CPU 0 instructions: 50000002 cycles: 25698392 (Simulation time: 0 hr 37 min 50 sec) 

Heartbeat CPU 0 instructions: 51000002 cycles: 34909160 heartbeat IPC: 0.108569 cumulative IPC: 0.108569 (Simulation time: 0 hr 38 min 56 sec) 
Heartbeat CPU 0 instructions: 52000000 cycles: 44149872 heartbeat IPC: 0.108217 cumulative IPC: 0.108392 (Simulation time: 0 hr 39 min 58 sec) 
Heartbeat CPU 0 instructions: 53000000 cycles: 53386590 heartbeat IPC: 0.108264 cumulative IPC: 0.108349 (Simulation time: 0 hr 40 min 58 sec) 
Heartbeat CPU 0 instructions: 54000000 cycles: 62592149 heartbeat IPC: 0.10863 cumulative IPC: 0.108419 (Simulation time: 0 hr 41 min 56 sec) 
Heartbeat CPU 0 instructions: 55000000 cycles: 71774587 heartbeat IPC: 0.108904 cumulative IPC: 0.108516 (Simulation time: 0 hr 42 min 58 sec) 
Heartbeat CPU 0 instructions: 56000000 cycles: 80873349 heartbeat IPC: 0.109905 cumulative IPC: 0.108745 (Simulation time: 0 hr 44 min 6 sec) 
Heartbeat CPU 0 instructions: 57000000 cycles: 90014397 heartbeat IPC: 0.109397 cumulative IPC: 0.108838 (Simulation time: 0 hr 45 min 8 sec) 
Heartbeat CPU 0 instructions: 58000000 cycles: 99162903 heartbeat IPC: 0.109307 cumulative IPC: 0.108896 (Simulation time: 0 hr 46 min 9 sec) 
Heartbeat CPU 0 instructions: 59000001 cycles: 108279018 heartbeat IPC: 0.109696 cumulative IPC: 0.108984 (Simulation time: 0 hr 47 min 9 sec) 
Heartbeat CPU 0 instructions: 60000000 cycles: 117311806 heartbeat IPC: 0.110708 cumulative IPC: 0.109154 (Simulation time: 0 hr 48 min 8 sec) 
Heartbeat CPU 0 instructions: 61000001 cycles: 126314508 heartbeat IPC: 0.111078 cumulative IPC: 0.109326 (Simulation time: 0 hr 49 min 5 sec) 
Heartbeat CPU 0 instructions: 62000000 cycles: 134051539 heartbeat IPC: 0.129248 cumulative IPC: 0.110749 (Simulation time: 0 hr 49 min 59 sec) 
Heartbeat CPU 0 instructions: 63000001 cycles: 142615902 heartbeat IPC: 0.116763 cumulative IPC: 0.111189 (Simulation time: 0 hr 50 min 57 sec) 
Heartbeat CPU 0 instructions: 64000000 cycles: 151725881 heartbeat IPC: 0.10977 cumulative IPC: 0.111087 (Simulation time: 0 hr 52 min 0 sec) 
Heartbeat CPU 0 instructions: 65000000 cycles: 160217536 heartbeat IPC: 0.117763 cumulative IPC: 0.111508 (Simulation time: 0 hr 52 min 56 sec) 
Heartbeat CPU 0 instructions: 66000000 cycles: 169219129 heartbeat IPC: 0.111091 cumulative IPC: 0.111482 (Simulation time: 0 hr 53 min 58 sec) 
Heartbeat CPU 0 instructions: 67000000 cycles: 178341649 heartbeat IPC: 0.109619 cumulative IPC: 0.111371 (Simulation time: 0 hr 55 min 2 sec) 
Heartbeat CPU 0 instructions: 68000000 cycles: 187587113 heartbeat IPC: 0.108161 cumulative IPC: 0.111187 (Simulation time: 0 hr 56 min 0 sec) 
Heartbeat CPU 0 instructions: 69000000 cycles: 196361894 heartbeat IPC: 0.113963 cumulative IPC: 0.11133 (Simulation time: 0 hr 57 min 9 sec) 
Heartbeat CPU 0 instructions: 70000000 cycles: 205296050 heartbeat IPC: 0.11193 cumulative IPC: 0.11136 (Simulation time: 0 hr 58 min 10 sec) 
Heartbeat CPU 0 instructions: 71000000 cycles: 214115806 heartbeat IPC: 0.113382 cumulative IPC: 0.111455 (Simulation time: 0 hr 59 min 14 sec) 
Heartbeat CPU 0 instructions: 72000000 cycles: 222936215 heartbeat IPC: 0.113373 cumulative IPC: 0.11154 (Simulation time: 1 hr 0 min 16 sec) 
Heartbeat CPU 0 instructions: 73000001 cycles: 231969273 heartbeat IPC: 0.110705 cumulative IPC: 0.111504 (Simulation time: 1 hr 1 min 26 sec) 
Heartbeat CPU 0 instructions: 74000001 cycles: 240871338 heartbeat IPC: 0.112333 cumulative IPC: 0.111538 (Simulation time: 1 hr 2 min 30 sec) 
Heartbeat CPU 0 instructions: 75000002 cycles: 249725997 heartbeat IPC: 0.112935 cumulative IPC: 0.111593 (Simulation time: 1 hr 3 min 27 sec) 
Heartbeat CPU 0 instructions: 76000000 cycles: 258887156 heartbeat IPC: 0.109156 cumulative IPC: 0.111498 (Simulation time: 1 hr 4 min 28 sec) 
Heartbeat CPU 0 instructions: 77000003 cycles: 273107142 heartbeat IPC: 0.0703238 cumulative IPC: 0.109131 (Simulation time: 1 hr 5 min 40 sec) 
Heartbeat CPU 0 instructions: 78000000 cycles: 283496179 heartbeat IPC: 0.096255 cumulative IPC: 0.108612 (Simulation time: 1 hr 6 min 44 sec) 
Heartbeat CPU 0 instructions: 79000000 cycles: 292334747 heartbeat IPC: 0.113141 cumulative IPC: 0.108762 (Simulation time: 1 hr 7 min 45 sec) 
Heartbeat CPU 0 instructions: 80000000 cycles: 301089160 heartbeat IPC: 0.114228 cumulative IPC: 0.108936 (Simulation time: 1 hr 8 min 43 sec) 
Heartbeat CPU 0 instructions: 81000001 cycles: 310080171 heartbeat IPC: 0.111222 cumulative IPC: 0.109008 (Simulation time: 1 hr 9 min 38 sec) 
Heartbeat CPU 0 instructions: 82000001 cycles: 318225195 heartbeat IPC: 0.122774 cumulative IPC: 0.109392 (Simulation time: 1 hr 10 min 32 sec) 
Heartbeat CPU 0 instructions: 83000002 cycles: 325834212 heartbeat IPC: 0.131423 cumulative IPC: 0.10995 (Simulation time: 1 hr 11 min 27 sec) 
Heartbeat CPU 0 instructions: 84000000 cycles: 333216401 heartbeat IPC: 0.135461 cumulative IPC: 0.110563 (Simulation time: 1 hr 12 min 16 sec) 
Heartbeat CPU 0 instructions: 85000000 cycles: 341091993 heartbeat IPC: 0.126975 cumulative IPC: 0.110972 (Simulation time: 1 hr 13 min 5 sec) 
Heartbeat CPU 0 instructions: 86000001 cycles: 348745089 heartbeat IPC: 0.130666 cumulative IPC: 0.111439 (Simulation time: 1 hr 13 min 57 sec) 
Heartbeat CPU 0 instructions: 87000001 cycles: 362303156 heartbeat IPC: 0.0737568 cumulative IPC: 0.109921 (Simulation time: 1 hr 15 min 1 sec) 
Heartbeat CPU 0 instructions: 88000000 cycles: 372783490 heartbeat IPC: 0.0954167 cumulative IPC: 0.109483 (Simulation time: 1 hr 15 min 52 sec) 
Heartbeat CPU 0 instructions: 89000001 cycles: 380841200 heartbeat IPC: 0.124105 cumulative IPC: 0.109815 (Simulation time: 1 hr 16 min 38 sec) 
Heartbeat CPU 0 instructions: 90000001 cycles: 387600164 heartbeat IPC: 0.147952 cumulative IPC: 0.110527 (Simulation time: 1 hr 17 min 20 sec) 
Heartbeat CPU 0 instructions: 91000000 cycles: 397618341 heartbeat IPC: 0.0998185 cumulative IPC: 0.110239 (Simulation time: 1 hr 18 min 5 sec) 
Heartbeat CPU 0 instructions: 92000000 cycles: 405864124 heartbeat IPC: 0.121274 cumulative IPC: 0.110478 (Simulation time: 1 hr 18 min 42 sec) 
Heartbeat CPU 0 instructions: 93000000 cycles: 415039316 heartbeat IPC: 0.10899 cumulative IPC: 0.110443 (Simulation time: 1 hr 19 min 18 sec) 
Heartbeat CPU 0 instructions: 94000000 cycles: 424116564 heartbeat IPC: 0.110166 cumulative IPC: 0.110437 (Simulation time: 1 hr 19 min 55 sec) 
Heartbeat CPU 0 instructions: 95000000 cycles: 433123802 heartbeat IPC: 0.111022 cumulative IPC: 0.11045 (Simulation time: 1 hr 20 min 30 sec) 
Heartbeat CPU 0 instructions: 96000000 cycles: 442486569 heartbeat IPC: 0.106806 cumulative IPC: 0.110368 (Simulation time: 1 hr 21 min 3 sec) 
Heartbeat CPU 0 instructions: 97000000 cycles: 451497428 heartbeat IPC: 0.110977 cumulative IPC: 0.110381 (Simulation time: 1 hr 21 min 33 sec) 
Heartbeat CPU 0 instructions: 98000000 cycles: 460831429 heartbeat IPC: 0.107135 cumulative IPC: 0.110311 (Simulation time: 1 hr 22 min 5 sec) 
Heartbeat CPU 0 instructions: 99000000 cycles: 469946231 heartbeat IPC: 0.109712 cumulative IPC: 0.110299 (Simulation time: 1 hr 22 min 33 sec) 
Heartbeat CPU 0 instructions: 100000000 cycles: 478982112 heartbeat IPC: 0.11067 cumulative IPC: 0.110306 (Simulation time: 1 hr 23 min 2 sec) 
Heartbeat CPU 0 instructions: 101000002 cycles: 488097626 heartbeat IPC: 0.109703 cumulative IPC: 0.110294 (Simulation time: 1 hr 23 min 33 sec) 
Heartbeat CPU 0 instructions: 102000000 cycles: 497422637 heartbeat IPC: 0.107238 cumulative IPC: 0.110234 (Simulation time: 1 hr 24 min 1 sec) 
Heartbeat CPU 0 instructions: 103000000 cycles: 506980727 heartbeat IPC: 0.104623 cumulative IPC: 0.110122 (Simulation time: 1 hr 24 min 29 sec) 
Heartbeat CPU 0 instructions: 104000000 cycles: 516302059 heartbeat IPC: 0.107281 cumulative IPC: 0.110068 (Simulation time: 1 hr 24 min 56 sec) 
Heartbeat CPU 0 instructions: 105000000 cycles: 525726404 heartbeat IPC: 0.106108 cumulative IPC: 0.109994 (Simulation time: 1 hr 25 min 22 sec) 
Heartbeat CPU 0 instructions: 106000003 cycles: 534839742 heartbeat IPC: 0.10973 cumulative IPC: 0.109989 (Simulation time: 1 hr 25 min 49 sec) 
Heartbeat CPU 0 instructions: 107000003 cycles: 544115656 heartbeat IPC: 0.107806 cumulative IPC: 0.10995 (Simulation time: 1 hr 26 min 14 sec) 
Heartbeat CPU 0 instructions: 108000000 cycles: 553287830 heartbeat IPC: 0.109025 cumulative IPC: 0.109934 (Simulation time: 1 hr 26 min 37 sec) 
Heartbeat CPU 0 instructions: 109000000 cycles: 562392585 heartbeat IPC: 0.109833 cumulative IPC: 0.109932 (Simulation time: 1 hr 27 min 0 sec) 
Heartbeat CPU 0 instructions: 110000000 cycles: 571527094 heartbeat IPC: 0.109475 cumulative IPC: 0.109925 (Simulation time: 1 hr 27 min 22 sec) 
Heartbeat CPU 0 instructions: 111000000 cycles: 580491608 heartbeat IPC: 0.111551 cumulative IPC: 0.109951 (Simulation time: 1 hr 27 min 43 sec) 
Heartbeat CPU 0 instructions: 112000000 cycles: 589553418 heartbeat IPC: 0.110353 cumulative IPC: 0.109957 (Simulation time: 1 hr 28 min 2 sec) 
Heartbeat CPU 0 instructions: 113000001 cycles: 598482200 heartbeat IPC: 0.111997 cumulative IPC: 0.109989 (Simulation time: 1 hr 28 min 20 sec) 
Heartbeat CPU 0 instructions: 114000000 cycles: 607572599 heartbeat IPC: 0.110006 cumulative IPC: 0.109989 (Simulation time: 1 hr 28 min 37 sec) 
Heartbeat CPU 0 instructions: 115000000 cycles: 616633544 heartbeat IPC: 0.110364 cumulative IPC: 0.109995 (Simulation time: 1 hr 28 min 53 sec) 
Heartbeat CPU 0 instructions: 116000000 cycles: 625825159 heartbeat IPC: 0.108795 cumulative IPC: 0.109977 (Simulation time: 1 hr 29 min 7 sec) 
Heartbeat CPU 0 instructions: 117000001 cycles: 635073419 heartbeat IPC: 0.108129 cumulative IPC: 0.109949 (Simulation time: 1 hr 29 min 21 sec) 
Heartbeat CPU 0 instructions: 118000000 cycles: 644081623 heartbeat IPC: 0.11101 cumulative IPC: 0.109964 (Simulation time: 1 hr 29 min 34 sec) 
Heartbeat CPU 0 instructions: 119000000 cycles: 653100661 heartbeat IPC: 0.110877 cumulative IPC: 0.109977 (Simulation time: 1 hr 29 min 47 sec) 
Heartbeat CPU 0 instructions: 120000000 cycles: 662230686 heartbeat IPC: 0.109529 cumulative IPC: 0.109971 (Simulation time: 1 hr 29 min 59 sec) 
Heartbeat CPU 0 instructions: 121000000 cycles: 671242847 heartbeat IPC: 0.110961 cumulative IPC: 0.109985 (Simulation time: 1 hr 30 min 12 sec) 
Heartbeat CPU 0 instructions: 122000001 cycles: 680397319 heartbeat IPC: 0.109236 cumulative IPC: 0.109974 (Simulation time: 1 hr 30 min 24 sec) 
Heartbeat CPU 0 instructions: 123000002 cycles: 689506854 heartbeat IPC: 0.109775 cumulative IPC: 0.109971 (Simulation time: 1 hr 30 min 36 sec) 
Heartbeat CPU 0 instructions: 124000000 cycles: 698670905 heartbeat IPC: 0.109122 cumulative IPC: 0.10996 (Simulation time: 1 hr 30 min 46 sec) 
Heartbeat CPU 0 instructions: 125000001 cycles: 708110350 heartbeat IPC: 0.105939 cumulative IPC: 0.109904 (Simulation time: 1 hr 30 min 57 sec) 
Heartbeat CPU 0 instructions: 126000002 cycles: 717424545 heartbeat IPC: 0.107363 cumulative IPC: 0.10987 (Simulation time: 1 hr 31 min 6 sec) 
Heartbeat CPU 0 instructions: 127000000 cycles: 726563784 heartbeat IPC: 0.109418 cumulative IPC: 0.109864 (Simulation time: 1 hr 31 min 15 sec) 
Heartbeat CPU 0 instructions: 128000000 cycles: 735917892 heartbeat IPC: 0.106905 cumulative IPC: 0.109825 (Simulation time: 1 hr 31 min 24 sec) 
Heartbeat CPU 0 instructions: 129000001 cycles: 745399696 heartbeat IPC: 0.105465 cumulative IPC: 0.109768 (Simulation time: 1 hr 31 min 32 sec) 
Heartbeat CPU 0 instructions: 130000000 cycles: 754886249 heartbeat IPC: 0.105412 cumulative IPC: 0.109711 (Simulation time: 1 hr 31 min 40 sec) 
Heartbeat CPU 0 instructions: 131000000 cycles: 764208922 heartbeat IPC: 0.107265 cumulative IPC: 0.10968 (Simulation time: 1 hr 31 min 47 sec) 
Heartbeat CPU 0 instructions: 132000000 cycles: 773203336 heartbeat IPC: 0.11118 cumulative IPC: 0.109698 (Simulation time: 1 hr 31 min 55 sec) 
Heartbeat CPU 0 instructions: 133000000 cycles: 782238528 heartbeat IPC: 0.110678 cumulative IPC: 0.10971 (Simulation time: 1 hr 32 min 3 sec) 
Heartbeat CPU 0 instructions: 134000002 cycles: 791261116 heartbeat IPC: 0.110833 cumulative IPC: 0.109723 (Simulation time: 1 hr 32 min 10 sec) 
Heartbeat CPU 0 instructions: 135000002 cycles: 800459914 heartbeat IPC: 0.10871 cumulative IPC: 0.109711 (Simulation time: 1 hr 32 min 17 sec) 
Heartbeat CPU 0 instructions: 136000000 cycles: 809765240 heartbeat IPC: 0.107465 cumulative IPC: 0.109685 (Simulation time: 1 hr 32 min 25 sec) 
Heartbeat CPU 0 instructions: 137000000 cycles: 818829922 heartbeat IPC: 0.110318 cumulative IPC: 0.109692 (Simulation time: 1 hr 32 min 32 sec) 
Heartbeat CPU 0 instructions: 138000000 cycles: 827876498 heartbeat IPC: 0.110539 cumulative IPC: 0.109701 (Simulation time: 1 hr 32 min 38 sec) 
Heartbeat CPU 0 instructions: 139000001 cycles: 836904715 heartbeat IPC: 0.110764 cumulative IPC: 0.109713 (Simulation time: 1 hr 32 min 45 sec) 
Heartbeat CPU 0 instructions: 140000000 cycles: 845967085 heartbeat IPC: 0.110346 cumulative IPC: 0.10972 (Simulation time: 1 hr 32 min 52 sec) 
Heartbeat CPU 0 instructions: 141000002 cycles: 859771103 heartbeat IPC: 0.0724428 cumulative IPC: 0.109103 (Simulation time: 1 hr 33 min 0 sec) 
Heartbeat CPU 0 instructions: 142000002 cycles: 870356474 heartbeat IPC: 0.09447 cumulative IPC: 0.10892 (Simulation time: 1 hr 33 min 8 sec) 
Heartbeat CPU 0 instructions: 143000001 cycles: 879305688 heartbeat IPC: 0.111742 cumulative IPC: 0.108949 (Simulation time: 1 hr 33 min 15 sec) 
Heartbeat CPU 0 instructions: 144000000 cycles: 888294586 heartbeat IPC: 0.111248 cumulative IPC: 0.108973 (Simulation time: 1 hr 33 min 23 sec) 
Heartbeat CPU 0 instructions: 145000000 cycles: 897311631 heartbeat IPC: 0.110901 cumulative IPC: 0.108993 (Simulation time: 1 hr 33 min 30 sec) 
Heartbeat CPU 0 instructions: 146000001 cycles: 906010219 heartbeat IPC: 0.114961 cumulative IPC: 0.109052 (Simulation time: 1 hr 33 min 37 sec) 
Heartbeat CPU 0 instructions: 147000001 cycles: 914560113 heartbeat IPC: 0.116961 cumulative IPC: 0.109128 (Simulation time: 1 hr 33 min 45 sec) 
Heartbeat CPU 0 instructions: 148000000 cycles: 923129114 heartbeat IPC: 0.1167 cumulative IPC: 0.109201 (Simulation time: 1 hr 33 min 52 sec) 
Heartbeat CPU 0 instructions: 149000001 cycles: 931510360 heartbeat IPC: 0.119314 cumulative IPC: 0.109294 (Simulation time: 1 hr 33 min 59 sec) 
Heartbeat CPU 0 instructions: 150000001 cycles: 940277814 heartbeat IPC: 0.114058 cumulative IPC: 0.10934 (Simulation time: 1 hr 34 min 6 sec) 
Finished CPU 0 instructions: 100000001 cycles: 914579471 cummulative IPC: 0.10934 (Simulation time: 1 hr 34 min 6 sec) 

ChampSim completed all CPUs

Region of Interest Statistics

CPU 0 cummulative IPC: 0.10934 instructions: 100000001 cycles: 914579471
LLC TOTAL     ACCESS:   27038390  HIT:   15299206  MISS:   11739184
LLC LOAD      ACCESS:   11745695  HIT:    8820822  MISS:    2924873
LLC RFO       ACCESS:      20880  HIT:       7063  MISS:      13817
LLC PREFETCH  ACCESS:   14998388  HIT:    6281527  MISS:    8716861
LLC WRITEBACK ACCESS:     273427  HIT:     189794  MISS:      83633
OPTgen accesses: 279139
OPTgen hits: 280889
OPTgen hit rate: 100.627


