
*** ChampSim Multicore Out-of-Order Simulator ***

Warmup Instructions: 50000000
Simulation Instructions: 100000000
Configuration: 2
Number of CPUs: 1
LLC sets: 2048
LLC ways: 16
Off-chip DRAM Channels: 1 Width: 64-bit Data Rate: 1600 MT/s

CPU 0 runs /datasets/cs240c-wi22-a00-public/data/Assignment2-gz/sphinx3_1339B.trace.gz
CPU 0 L1D next line prefetcher
CPU 0 L2C IP-based stride prefetcher
Initialize Hawkeye state
Heartbeat CPU 0 instructions: 1000000 cycles: 339022 heartbeat IPC: 2.94966 cumulative IPC: 2.94966 (Simulation time: 0 hr 0 min 28 sec) 
Heartbeat CPU 0 instructions: 2000001 cycles: 693417 heartbeat IPC: 2.82171 cumulative IPC: 2.88427 (Simulation time: 0 hr 0 min 58 sec) 
Heartbeat CPU 0 instructions: 3000000 cycles: 1084468 heartbeat IPC: 2.55721 cumulative IPC: 2.76633 (Simulation time: 0 hr 1 min 33 sec) 
Heartbeat CPU 0 instructions: 4000000 cycles: 1529998 heartbeat IPC: 2.24452 cumulative IPC: 2.61438 (Simulation time: 0 hr 2 min 0 sec) 
Heartbeat CPU 0 instructions: 5000003 cycles: 1869012 heartbeat IPC: 2.94974 cumulative IPC: 2.67521 (Simulation time: 0 hr 2 min 27 sec) 
Heartbeat CPU 0 instructions: 6000002 cycles: 2253182 heartbeat IPC: 2.60301 cumulative IPC: 2.6629 (Simulation time: 0 hr 2 min 56 sec) 
Heartbeat CPU 0 instructions: 7000001 cycles: 2716931 heartbeat IPC: 2.15634 cumulative IPC: 2.57644 (Simulation time: 0 hr 3 min 24 sec) 
Heartbeat CPU 0 instructions: 8000000 cycles: 3055799 heartbeat IPC: 2.951 cumulative IPC: 2.61797 (Simulation time: 0 hr 3 min 48 sec) 
Heartbeat CPU 0 instructions: 9000003 cycles: 3412356 heartbeat IPC: 2.80461 cumulative IPC: 2.63747 (Simulation time: 0 hr 4 min 16 sec) 
Heartbeat CPU 0 instructions: 10000001 cycles: 3799015 heartbeat IPC: 2.58625 cumulative IPC: 2.63226 (Simulation time: 0 hr 4 min 46 sec) 
Heartbeat CPU 0 instructions: 11000002 cycles: 4242141 heartbeat IPC: 2.2567 cumulative IPC: 2.59303 (Simulation time: 0 hr 5 min 12 sec) 
Heartbeat CPU 0 instructions: 12000000 cycles: 4581097 heartbeat IPC: 2.95023 cumulative IPC: 2.61946 (Simulation time: 0 hr 5 min 42 sec) 
Heartbeat CPU 0 instructions: 13000000 cycles: 4972913 heartbeat IPC: 2.55222 cumulative IPC: 2.61416 (Simulation time: 0 hr 6 min 14 sec) 
Heartbeat CPU 0 instructions: 14000003 cycles: 5427753 heartbeat IPC: 2.19858 cumulative IPC: 2.57934 (Simulation time: 0 hr 6 min 41 sec) 
Heartbeat CPU 0 instructions: 15000003 cycles: 5766712 heartbeat IPC: 2.95021 cumulative IPC: 2.60114 (Simulation time: 0 hr 7 min 8 sec) 
Heartbeat CPU 0 instructions: 16000000 cycles: 6131593 heartbeat IPC: 2.74061 cumulative IPC: 2.60944 (Simulation time: 0 hr 7 min 36 sec) 
Heartbeat CPU 0 instructions: 17000000 cycles: 6578458 heartbeat IPC: 2.23781 cumulative IPC: 2.58419 (Simulation time: 0 hr 8 min 7 sec) 
Heartbeat CPU 0 instructions: 18000000 cycles: 7017741 heartbeat IPC: 2.27644 cumulative IPC: 2.56493 (Simulation time: 0 hr 8 min 36 sec) 
Heartbeat CPU 0 instructions: 19000001 cycles: 7462704 heartbeat IPC: 2.24738 cumulative IPC: 2.54599 (Simulation time: 0 hr 9 min 5 sec) 
Heartbeat CPU 0 instructions: 20000000 cycles: 7801757 heartbeat IPC: 2.94939 cumulative IPC: 2.56353 (Simulation time: 0 hr 9 min 34 sec) 
Heartbeat CPU 0 instructions: 21000000 cycles: 8183302 heartbeat IPC: 2.62092 cumulative IPC: 2.5662 (Simulation time: 0 hr 10 min 5 sec) 
Heartbeat CPU 0 instructions: 22000000 cycles: 8648968 heartbeat IPC: 2.14746 cumulative IPC: 2.54366 (Simulation time: 0 hr 10 min 32 sec) 
Heartbeat CPU 0 instructions: 23000001 cycles: 8988001 heartbeat IPC: 2.94957 cumulative IPC: 2.55897 (Simulation time: 0 hr 11 min 0 sec) 
Heartbeat CPU 0 instructions: 24000000 cycles: 9338293 heartbeat IPC: 2.85476 cumulative IPC: 2.57006 (Simulation time: 0 hr 11 min 30 sec) 
Heartbeat CPU 0 instructions: 25000000 cycles: 9746452 heartbeat IPC: 2.45003 cumulative IPC: 2.56504 (Simulation time: 0 hr 11 min 58 sec) 
Heartbeat CPU 0 instructions: 26000003 cycles: 10149363 heartbeat IPC: 2.48195 cumulative IPC: 2.56174 (Simulation time: 0 hr 12 min 27 sec) 
Heartbeat CPU 0 instructions: 27000002 cycles: 10488301 heartbeat IPC: 2.95039 cumulative IPC: 2.5743 (Simulation time: 0 hr 12 min 56 sec) 
Heartbeat CPU 0 instructions: 28000000 cycles: 10865393 heartbeat IPC: 2.65187 cumulative IPC: 2.57699 (Simulation time: 0 hr 13 min 24 sec) 
Heartbeat CPU 0 instructions: 29000001 cycles: 11306048 heartbeat IPC: 2.26935 cumulative IPC: 2.565 (Simulation time: 0 hr 13 min 51 sec) 
Heartbeat CPU 0 instructions: 30000002 cycles: 11645064 heartbeat IPC: 2.94972 cumulative IPC: 2.5762 (Simulation time: 0 hr 14 min 19 sec) 
Heartbeat CPU 0 instructions: 31000003 cycles: 12015666 heartbeat IPC: 2.69832 cumulative IPC: 2.57997 (Simulation time: 0 hr 14 min 49 sec) 
Heartbeat CPU 0 instructions: 32000000 cycles: 12458398 heartbeat IPC: 2.2587 cumulative IPC: 2.56855 (Simulation time: 0 hr 15 min 20 sec) 
Heartbeat CPU 0 instructions: 33000000 cycles: 12797458 heartbeat IPC: 2.94933 cumulative IPC: 2.57864 (Simulation time: 0 hr 15 min 48 sec) 
Heartbeat CPU 0 instructions: 34000001 cycles: 13185042 heartbeat IPC: 2.58009 cumulative IPC: 2.57868 (Simulation time: 0 hr 16 min 22 sec) 
Heartbeat CPU 0 instructions: 35000003 cycles: 13646183 heartbeat IPC: 2.16854 cumulative IPC: 2.56482 (Simulation time: 0 hr 16 min 50 sec) 
Heartbeat CPU 0 instructions: 36000000 cycles: 13985062 heartbeat IPC: 2.9509 cumulative IPC: 2.57418 (Simulation time: 0 hr 17 min 19 sec) 
Heartbeat CPU 0 instructions: 37000003 cycles: 14341697 heartbeat IPC: 2.804 cumulative IPC: 2.57989 (Simulation time: 0 hr 17 min 46 sec) 
Heartbeat CPU 0 instructions: 38000000 cycles: 14729507 heartbeat IPC: 2.57857 cumulative IPC: 2.57986 (Simulation time: 0 hr 18 min 17 sec) 
Heartbeat CPU 0 instructions: 39000002 cycles: 15172769 heartbeat IPC: 2.25601 cumulative IPC: 2.57039 (Simulation time: 0 hr 18 min 46 sec) 
Heartbeat CPU 0 instructions: 40000000 cycles: 15511790 heartbeat IPC: 2.94966 cumulative IPC: 2.57868 (Simulation time: 0 hr 19 min 14 sec) 
Heartbeat CPU 0 instructions: 41000003 cycles: 15896362 heartbeat IPC: 2.6003 cumulative IPC: 2.57921 (Simulation time: 0 hr 19 min 43 sec) 
Heartbeat CPU 0 instructions: 42000002 cycles: 16351035 heartbeat IPC: 2.19938 cumulative IPC: 2.56864 (Simulation time: 0 hr 20 min 11 sec) 
Heartbeat CPU 0 instructions: 43000001 cycles: 16690012 heartbeat IPC: 2.95005 cumulative IPC: 2.57639 (Simulation time: 0 hr 20 min 38 sec) 
Heartbeat CPU 0 instructions: 44000000 cycles: 17054101 heartbeat IPC: 2.74658 cumulative IPC: 2.58002 (Simulation time: 0 hr 21 min 6 sec) 
Heartbeat CPU 0 instructions: 45000000 cycles: 17467227 heartbeat IPC: 2.42057 cumulative IPC: 2.57625 (Simulation time: 0 hr 21 min 33 sec) 
Heartbeat CPU 0 instructions: 46000002 cycles: 17866778 heartbeat IPC: 2.50281 cumulative IPC: 2.57461 (Simulation time: 0 hr 21 min 59 sec) 
Heartbeat CPU 0 instructions: 47000003 cycles: 18205760 heartbeat IPC: 2.95001 cumulative IPC: 2.5816 (Simulation time: 0 hr 22 min 30 sec) 
Heartbeat CPU 0 instructions: 48000000 cycles: 18582718 heartbeat IPC: 2.65281 cumulative IPC: 2.58305 (Simulation time: 0 hr 23 min 1 sec) 
Heartbeat CPU 0 instructions: 49000002 cycles: 19023817 heartbeat IPC: 2.26707 cumulative IPC: 2.57572 (Simulation time: 0 hr 23 min 31 sec) 
Heartbeat CPU 0 instructions: 50000002 cycles: 19362763 heartbeat IPC: 2.95032 cumulative IPC: 2.58228 (Simulation time: 0 hr 24 min 4 sec) 

Warmup complete CPU 0 instructions: 50000002 cycles: 19362763 (Simulation time: 0 hr 24 min 4 sec) 

Heartbeat CPU 0 instructions: 51000001 cycles: 20557702 heartbeat IPC: 0.836862 cumulative IPC: 0.836862 (Simulation time: 0 hr 24 min 41 sec) 
Heartbeat CPU 0 instructions: 52000000 cycles: 21403505 heartbeat IPC: 1.18231 cumulative IPC: 0.980035 (Simulation time: 0 hr 25 min 13 sec) 
Heartbeat CPU 0 instructions: 53000002 cycles: 22291747 heartbeat IPC: 1.12582 cumulative IPC: 1.02425 (Simulation time: 0 hr 25 min 44 sec) 
Heartbeat CPU 0 instructions: 54000003 cycles: 23424741 heartbeat IPC: 0.882618 cumulative IPC: 0.984742 (Simulation time: 0 hr 26 min 19 sec) 
Heartbeat CPU 0 instructions: 55000001 cycles: 24309060 heartbeat IPC: 1.13081 cumulative IPC: 1.01086 (Simulation time: 0 hr 26 min 50 sec) 
Heartbeat CPU 0 instructions: 56000000 cycles: 25200010 heartbeat IPC: 1.1224 cumulative IPC: 1.02788 (Simulation time: 0 hr 27 min 21 sec) 
Heartbeat CPU 0 instructions: 57000000 cycles: 26171105 heartbeat IPC: 1.02977 cumulative IPC: 1.02815 (Simulation time: 0 hr 27 min 54 sec) 
Heartbeat CPU 0 instructions: 58000000 cycles: 27215012 heartbeat IPC: 0.95794 cumulative IPC: 1.01882 (Simulation time: 0 hr 28 min 32 sec) 
Heartbeat CPU 0 instructions: 59000001 cycles: 28073114 heartbeat IPC: 1.16536 cumulative IPC: 1.03325 (Simulation time: 0 hr 29 min 2 sec) 
Heartbeat CPU 0 instructions: 60000000 cycles: 28933641 heartbeat IPC: 1.16208 cumulative IPC: 1.04484 (Simulation time: 0 hr 29 min 35 sec) 
Heartbeat CPU 0 instructions: 61000000 cycles: 30214326 heartbeat IPC: 0.780832 cumulative IPC: 1.01368 (Simulation time: 0 hr 30 min 11 sec) 
Heartbeat CPU 0 instructions: 62000002 cycles: 31355886 heartbeat IPC: 0.875996 cumulative IPC: 1.00057 (Simulation time: 0 hr 30 min 44 sec) 
Heartbeat CPU 0 instructions: 63000003 cycles: 32177889 heartbeat IPC: 1.21654 cumulative IPC: 1.01443 (Simulation time: 0 hr 31 min 21 sec) 
Heartbeat CPU 0 instructions: 64000000 cycles: 33050688 heartbeat IPC: 1.14574 cumulative IPC: 1.0228 (Simulation time: 0 hr 31 min 55 sec) 
Heartbeat CPU 0 instructions: 65000000 cycles: 34124223 heartbeat IPC: 0.931502 cumulative IPC: 1.01616 (Simulation time: 0 hr 32 min 28 sec) 
Heartbeat CPU 0 instructions: 66000001 cycles: 35081758 heartbeat IPC: 1.04435 cumulative IPC: 1.01788 (Simulation time: 0 hr 33 min 2 sec) 
Heartbeat CPU 0 instructions: 67000000 cycles: 35943500 heartbeat IPC: 1.16044 cumulative IPC: 1.02529 (Simulation time: 0 hr 33 min 36 sec) 
Heartbeat CPU 0 instructions: 68000000 cycles: 36847284 heartbeat IPC: 1.10646 cumulative IPC: 1.02948 (Simulation time: 0 hr 34 min 9 sec) 
Heartbeat CPU 0 instructions: 69000003 cycles: 37948288 heartbeat IPC: 0.908265 cumulative IPC: 1.0223 (Simulation time: 0 hr 34 min 41 sec) 
Heartbeat CPU 0 instructions: 70000001 cycles: 38824272 heartbeat IPC: 1.14157 cumulative IPC: 1.02767 (Simulation time: 0 hr 35 min 15 sec) 
Heartbeat CPU 0 instructions: 71000001 cycles: 39684488 heartbeat IPC: 1.1625 cumulative IPC: 1.03338 (Simulation time: 0 hr 35 min 45 sec) 
Heartbeat CPU 0 instructions: 72000000 cycles: 40911475 heartbeat IPC: 0.815004 cumulative IPC: 1.02094 (Simulation time: 0 hr 36 min 20 sec) 
Heartbeat CPU 0 instructions: 73000001 cycles: 41755119 heartbeat IPC: 1.18534 cumulative IPC: 1.02714 (Simulation time: 0 hr 36 min 50 sec) 
Heartbeat CPU 0 instructions: 74000001 cycles: 42565459 heartbeat IPC: 1.23405 cumulative IPC: 1.03436 (Simulation time: 0 hr 37 min 22 sec) 
Heartbeat CPU 0 instructions: 75000003 cycles: 43593682 heartbeat IPC: 0.972554 cumulative IPC: 1.03174 (Simulation time: 0 hr 38 min 0 sec) 
Heartbeat CPU 0 instructions: 76000000 cycles: 44514075 heartbeat IPC: 1.08649 cumulative IPC: 1.03374 (Simulation time: 0 hr 38 min 29 sec) 
Heartbeat CPU 0 instructions: 77000002 cycles: 45321658 heartbeat IPC: 1.23827 cumulative IPC: 1.04011 (Simulation time: 0 hr 38 min 58 sec) 
Heartbeat CPU 0 instructions: 78000002 cycles: 46186822 heartbeat IPC: 1.15585 cumulative IPC: 1.04384 (Simulation time: 0 hr 39 min 32 sec) 
Heartbeat CPU 0 instructions: 79000001 cycles: 47246433 heartbeat IPC: 0.943742 cumulative IPC: 1.04004 (Simulation time: 0 hr 40 min 3 sec) 
Heartbeat CPU 0 instructions: 80000000 cycles: 48097255 heartbeat IPC: 1.17533 cumulative IPC: 1.04404 (Simulation time: 0 hr 40 min 35 sec) 
Heartbeat CPU 0 instructions: 81000001 cycles: 48932781 heartbeat IPC: 1.19685 cumulative IPC: 1.04836 (Simulation time: 0 hr 41 min 11 sec) 
Heartbeat CPU 0 instructions: 82000003 cycles: 50099501 heartbeat IPC: 0.857105 cumulative IPC: 1.0411 (Simulation time: 0 hr 41 min 45 sec) 
Heartbeat CPU 0 instructions: 83000001 cycles: 50904127 heartbeat IPC: 1.24281 cumulative IPC: 1.04625 (Simulation time: 0 hr 42 min 17 sec) 
Heartbeat CPU 0 instructions: 84000000 cycles: 51648642 heartbeat IPC: 1.34315 cumulative IPC: 1.05309 (Simulation time: 0 hr 42 min 49 sec) 
Heartbeat CPU 0 instructions: 85000002 cycles: 52781921 heartbeat IPC: 0.882397 cumulative IPC: 1.0473 (Simulation time: 0 hr 43 min 19 sec) 
Heartbeat CPU 0 instructions: 86000003 cycles: 53651347 heartbeat IPC: 1.15019 cumulative IPC: 1.04991 (Simulation time: 0 hr 43 min 47 sec) 
Heartbeat CPU 0 instructions: 87000001 cycles: 54437927 heartbeat IPC: 1.27132 cumulative IPC: 1.05488 (Simulation time: 0 hr 44 min 17 sec) 
Heartbeat CPU 0 instructions: 88000000 cycles: 55444379 heartbeat IPC: 0.993588 cumulative IPC: 1.05317 (Simulation time: 0 hr 44 min 48 sec) 
Heartbeat CPU 0 instructions: 89000000 cycles: 56436733 heartbeat IPC: 1.0077 cumulative IPC: 1.05195 (Simulation time: 0 hr 45 min 25 sec) 
Heartbeat CPU 0 instructions: 90000003 cycles: 57264808 heartbeat IPC: 1.20762 cumulative IPC: 1.05535 (Simulation time: 0 hr 46 min 1 sec) 
Heartbeat CPU 0 instructions: 91000000 cycles: 58089077 heartbeat IPC: 1.21319 cumulative IPC: 1.05871 (Simulation time: 0 hr 46 min 31 sec) 
Heartbeat CPU 0 instructions: 92000000 cycles: 59289751 heartbeat IPC: 0.832866 cumulative IPC: 1.05192 (Simulation time: 0 hr 47 min 3 sec) 
Heartbeat CPU 0 instructions: 93000001 cycles: 60076798 heartbeat IPC: 1.27057 cumulative IPC: 1.05615 (Simulation time: 0 hr 47 min 32 sec) 
Heartbeat CPU 0 instructions: 94000001 cycles: 60854922 heartbeat IPC: 1.28514 cumulative IPC: 1.06044 (Simulation time: 0 hr 48 min 4 sec) 
Heartbeat CPU 0 instructions: 95000002 cycles: 62043495 heartbeat IPC: 0.841346 cumulative IPC: 1.05434 (Simulation time: 0 hr 48 min 36 sec) 
Heartbeat CPU 0 instructions: 96000000 cycles: 62884251 heartbeat IPC: 1.1894 cumulative IPC: 1.05695 (Simulation time: 0 hr 49 min 4 sec) 
Heartbeat CPU 0 instructions: 97000002 cycles: 63685452 heartbeat IPC: 1.24813 cumulative IPC: 1.06041 (Simulation time: 0 hr 49 min 37 sec) 
Heartbeat CPU 0 instructions: 98000000 cycles: 64842139 heartbeat IPC: 0.864536 cumulative IPC: 1.05542 (Simulation time: 0 hr 50 min 9 sec) 
Heartbeat CPU 0 instructions: 99000003 cycles: 66005649 heartbeat IPC: 0.859471 cumulative IPC: 1.05054 (Simulation time: 0 hr 50 min 46 sec) 
Heartbeat CPU 0 instructions: 100000000 cycles: 66815522 heartbeat IPC: 1.23476 cumulative IPC: 1.05368 (Simulation time: 0 hr 51 min 19 sec) 
Heartbeat CPU 0 instructions: 101000000 cycles: 67503814 heartbeat IPC: 1.45287 cumulative IPC: 1.05939 (Simulation time: 0 hr 51 min 49 sec) 
Heartbeat CPU 0 instructions: 102000001 cycles: 68977107 heartbeat IPC: 0.678752 cumulative IPC: 1.04808 (Simulation time: 0 hr 52 min 22 sec) 
Heartbeat CPU 0 instructions: 103000000 cycles: 70246952 heartbeat IPC: 0.787497 cumulative IPC: 1.04158 (Simulation time: 0 hr 52 min 59 sec) 
Heartbeat CPU 0 instructions: 104000000 cycles: 71183670 heartbeat IPC: 1.06756 cumulative IPC: 1.04205 (Simulation time: 0 hr 53 min 31 sec) 
Heartbeat CPU 0 instructions: 105000003 cycles: 71998167 heartbeat IPC: 1.22776 cumulative IPC: 1.04492 (Simulation time: 0 hr 54 min 3 sec) 
Heartbeat CPU 0 instructions: 106000000 cycles: 72797213 heartbeat IPC: 1.25149 cumulative IPC: 1.04801 (Simulation time: 0 hr 54 min 34 sec) 
Heartbeat CPU 0 instructions: 107000002 cycles: 74251862 heartbeat IPC: 0.687452 cumulative IPC: 1.03846 (Simulation time: 0 hr 55 min 7 sec) 
Heartbeat CPU 0 instructions: 108000000 cycles: 75146313 heartbeat IPC: 1.118 cumulative IPC: 1.03973 (Simulation time: 0 hr 55 min 35 sec) 
Heartbeat CPU 0 instructions: 109000000 cycles: 75984508 heartbeat IPC: 1.19304 cumulative IPC: 1.042 (Simulation time: 0 hr 56 min 6 sec) 
Heartbeat CPU 0 instructions: 110000003 cycles: 77104900 heartbeat IPC: 0.892547 cumulative IPC: 1.0391 (Simulation time: 0 hr 56 min 44 sec) 
Heartbeat CPU 0 instructions: 111000000 cycles: 78582251 heartbeat IPC: 0.676885 cumulative IPC: 1.03007 (Simulation time: 0 hr 57 min 18 sec) 
Heartbeat CPU 0 instructions: 112000000 cycles: 79523665 heartbeat IPC: 1.06223 cumulative IPC: 1.03057 (Simulation time: 0 hr 57 min 51 sec) 
Heartbeat CPU 0 instructions: 113000002 cycles: 80274866 heartbeat IPC: 1.3312 cumulative IPC: 1.03428 (Simulation time: 0 hr 58 min 20 sec) 
Heartbeat CPU 0 instructions: 114000000 cycles: 81455812 heartbeat IPC: 0.846777 cumulative IPC: 1.03071 (Simulation time: 0 hr 58 min 51 sec) 
Heartbeat CPU 0 instructions: 115000001 cycles: 82842279 heartbeat IPC: 0.721258 cumulative IPC: 1.02395 (Simulation time: 0 hr 59 min 25 sec) 
Heartbeat CPU 0 instructions: 116000000 cycles: 83712033 heartbeat IPC: 1.14975 cumulative IPC: 1.02565 (Simulation time: 0 hr 59 min 59 sec) 
Heartbeat CPU 0 instructions: 117000000 cycles: 84511113 heartbeat IPC: 1.25144 cumulative IPC: 1.02842 (Simulation time: 1 hr 0 min 32 sec) 
Heartbeat CPU 0 instructions: 118000003 cycles: 85776552 heartbeat IPC: 0.790242 cumulative IPC: 1.02388 (Simulation time: 1 hr 1 min 5 sec) 
Heartbeat CPU 0 instructions: 119000003 cycles: 86831414 heartbeat IPC: 0.947991 cumulative IPC: 1.0227 (Simulation time: 1 hr 1 min 41 sec) 
Heartbeat CPU 0 instructions: 120000000 cycles: 87660374 heartbeat IPC: 1.20633 cumulative IPC: 1.02493 (Simulation time: 1 hr 2 min 12 sec) 
Heartbeat CPU 0 instructions: 121000001 cycles: 88502266 heartbeat IPC: 1.1878 cumulative IPC: 1.02691 (Simulation time: 1 hr 2 min 43 sec) 
Heartbeat CPU 0 instructions: 122000002 cycles: 89781990 heartbeat IPC: 0.781419 cumulative IPC: 1.02245 (Simulation time: 1 hr 3 min 16 sec) 
Heartbeat CPU 0 instructions: 123000000 cycles: 90625882 heartbeat IPC: 1.18498 cumulative IPC: 1.02437 (Simulation time: 1 hr 3 min 48 sec) 
Heartbeat CPU 0 instructions: 124000000 cycles: 91462574 heartbeat IPC: 1.19518 cumulative IPC: 1.02635 (Simulation time: 1 hr 4 min 22 sec) 
Heartbeat CPU 0 instructions: 125000002 cycles: 92663992 heartbeat IPC: 0.832351 cumulative IPC: 1.02318 (Simulation time: 1 hr 4 min 56 sec) 
Heartbeat CPU 0 instructions: 126000000 cycles: 93525932 heartbeat IPC: 1.16017 cumulative IPC: 1.02477 (Simulation time: 1 hr 5 min 26 sec) 
Heartbeat CPU 0 instructions: 127000001 cycles: 94371316 heartbeat IPC: 1.1829 cumulative IPC: 1.02655 (Simulation time: 1 hr 5 min 59 sec) 
Heartbeat CPU 0 instructions: 128000000 cycles: 95266278 heartbeat IPC: 1.11736 cumulative IPC: 1.02762 (Simulation time: 1 hr 6 min 32 sec) 
Heartbeat CPU 0 instructions: 129000002 cycles: 96112094 heartbeat IPC: 1.18229 cumulative IPC: 1.02932 (Simulation time: 1 hr 7 min 2 sec) 
Heartbeat CPU 0 instructions: 130000000 cycles: 96939037 heartbeat IPC: 1.20927 cumulative IPC: 1.03124 (Simulation time: 1 hr 7 min 34 sec) 
Heartbeat CPU 0 instructions: 131000000 cycles: 97786179 heartbeat IPC: 1.18044 cumulative IPC: 1.03285 (Simulation time: 1 hr 8 min 9 sec) 
Heartbeat CPU 0 instructions: 132000000 cycles: 98671611 heartbeat IPC: 1.12939 cumulative IPC: 1.03393 (Simulation time: 1 hr 8 min 38 sec) 
Heartbeat CPU 0 instructions: 133000002 cycles: 99508082 heartbeat IPC: 1.1955 cumulative IPC: 1.03562 (Simulation time: 1 hr 9 min 6 sec) 
Heartbeat CPU 0 instructions: 134000000 cycles: 100426561 heartbeat IPC: 1.08875 cumulative IPC: 1.03622 (Simulation time: 1 hr 9 min 37 sec) 
Heartbeat CPU 0 instructions: 135000001 cycles: 101611057 heartbeat IPC: 0.844242 cumulative IPC: 1.03346 (Simulation time: 1 hr 10 min 11 sec) 
Heartbeat CPU 0 instructions: 136000000 cycles: 102496143 heartbeat IPC: 1.12983 cumulative IPC: 1.03448 (Simulation time: 1 hr 10 min 38 sec) 
Heartbeat CPU 0 instructions: 137000001 cycles: 103354140 heartbeat IPC: 1.16551 cumulative IPC: 1.03582 (Simulation time: 1 hr 11 min 6 sec) 
Heartbeat CPU 0 instructions: 138000001 cycles: 104621936 heartbeat IPC: 0.78877 cumulative IPC: 1.03215 (Simulation time: 1 hr 11 min 35 sec) 
Heartbeat CPU 0 instructions: 139000001 cycles: 105465210 heartbeat IPC: 1.18585 cumulative IPC: 1.03365 (Simulation time: 1 hr 12 min 0 sec) 
Heartbeat CPU 0 instructions: 140000000 cycles: 106298102 heartbeat IPC: 1.20063 cumulative IPC: 1.03525 (Simulation time: 1 hr 12 min 25 sec) 
Heartbeat CPU 0 instructions: 141000001 cycles: 107303602 heartbeat IPC: 0.994531 cumulative IPC: 1.03479 (Simulation time: 1 hr 12 min 51 sec) 
Heartbeat CPU 0 instructions: 142000000 cycles: 108256441 heartbeat IPC: 1.04949 cumulative IPC: 1.03494 (Simulation time: 1 hr 13 min 16 sec) 
Heartbeat CPU 0 instructions: 143000000 cycles: 109113537 heartbeat IPC: 1.16673 cumulative IPC: 1.0362 (Simulation time: 1 hr 13 min 43 sec) 
Heartbeat CPU 0 instructions: 144000000 cycles: 109960457 heartbeat IPC: 1.18075 cumulative IPC: 1.03755 (Simulation time: 1 hr 14 min 10 sec) 
Heartbeat CPU 0 instructions: 145000002 cycles: 111071786 heartbeat IPC: 0.899825 cumulative IPC: 1.03588 (Simulation time: 1 hr 14 min 40 sec) 
Heartbeat CPU 0 instructions: 146000000 cycles: 111929786 heartbeat IPC: 1.1655 cumulative IPC: 1.03709 (Simulation time: 1 hr 15 min 7 sec) 
Heartbeat CPU 0 instructions: 147000002 cycles: 112743073 heartbeat IPC: 1.22958 cumulative IPC: 1.03876 (Simulation time: 1 hr 15 min 31 sec) 
Heartbeat CPU 0 instructions: 148000000 cycles: 114019410 heartbeat IPC: 0.783491 cumulative IPC: 1.03532 (Simulation time: 1 hr 15 min 55 sec) 
Heartbeat CPU 0 instructions: 149000000 cycles: 115181575 heartbeat IPC: 0.860463 cumulative IPC: 1.0332 (Simulation time: 1 hr 16 min 18 sec) 
Heartbeat CPU 0 instructions: 150000001 cycles: 116021769 heartbeat IPC: 1.1902 cumulative IPC: 1.03456 (Simulation time: 1 hr 16 min 41 sec) 
Finished CPU 0 instructions: 100000003 cycles: 96659007 cummulative IPC: 1.03456 (Simulation time: 1 hr 16 min 41 sec) 

ChampSim completed all CPUs

Region of Interest Statistics

CPU 0 cummulative IPC: 1.03456 instructions: 100000003 cycles: 96659007
LLC TOTAL     ACCESS:    1600623  HIT:     831422  MISS:     769201
LLC LOAD      ACCESS:     216518  HIT:     172997  MISS:      43521
LLC RFO       ACCESS:     111324  HIT:     104669  MISS:       6655
LLC PREFETCH  ACCESS:    1135808  HIT:     417102  MISS:     718706
LLC WRITEBACK ACCESS:     136973  HIT:     136654  MISS:        319
OPTgen accesses: 7378
OPTgen hits: 7320
OPTgen hit rate: 99.2139


