
*** ChampSim Multicore Out-of-Order Simulator ***

Warmup Instructions: 50000000
Simulation Instructions: 100000000
Configuration: 2
Number of CPUs: 1
LLC sets: 2048
LLC ways: 16
Off-chip DRAM Channels: 1 Width: 64-bit Data Rate: 1600 MT/s

CPU 0 runs /datasets/cs240c-wi22-a00-public/data/Assignment2-gz/omnetpp_4B.trace.gz
CPU 0 L1D next line prefetcher
CPU 0 L2C IP-based stride prefetcher
Initialize Hawkeye state
Heartbeat CPU 0 instructions: 1000001 cycles: 566993 heartbeat IPC: 1.76369 cumulative IPC: 1.76369 (Simulation time: 0 hr 0 min 31 sec) 
Heartbeat CPU 0 instructions: 2000001 cycles: 1135709 heartbeat IPC: 1.75835 cumulative IPC: 1.76102 (Simulation time: 0 hr 0 min 57 sec) 
Heartbeat CPU 0 instructions: 3000001 cycles: 1722717 heartbeat IPC: 1.70355 cumulative IPC: 1.74144 (Simulation time: 0 hr 1 min 26 sec) 
Heartbeat CPU 0 instructions: 4000000 cycles: 2292028 heartbeat IPC: 1.75651 cumulative IPC: 1.74518 (Simulation time: 0 hr 1 min 53 sec) 
Heartbeat CPU 0 instructions: 5000000 cycles: 2866240 heartbeat IPC: 1.74152 cumulative IPC: 1.74445 (Simulation time: 0 hr 2 min 18 sec) 
Heartbeat CPU 0 instructions: 6000000 cycles: 3442474 heartbeat IPC: 1.73541 cumulative IPC: 1.74293 (Simulation time: 0 hr 2 min 41 sec) 
Heartbeat CPU 0 instructions: 7000000 cycles: 4011820 heartbeat IPC: 1.7564 cumulative IPC: 1.74484 (Simulation time: 0 hr 3 min 5 sec) 
Heartbeat CPU 0 instructions: 8000000 cycles: 4565385 heartbeat IPC: 1.80647 cumulative IPC: 1.75232 (Simulation time: 0 hr 3 min 32 sec) 
Heartbeat CPU 0 instructions: 9000001 cycles: 5147552 heartbeat IPC: 1.71772 cumulative IPC: 1.7484 (Simulation time: 0 hr 3 min 59 sec) 
Heartbeat CPU 0 instructions: 10000000 cycles: 5701606 heartbeat IPC: 1.80488 cumulative IPC: 1.75389 (Simulation time: 0 hr 4 min 26 sec) 
Heartbeat CPU 0 instructions: 11000000 cycles: 6288826 heartbeat IPC: 1.70294 cumulative IPC: 1.74913 (Simulation time: 0 hr 4 min 55 sec) 
Heartbeat CPU 0 instructions: 12000000 cycles: 6939909 heartbeat IPC: 1.5359 cumulative IPC: 1.72913 (Simulation time: 0 hr 5 min 22 sec) 
Heartbeat CPU 0 instructions: 13000002 cycles: 7587089 heartbeat IPC: 1.54517 cumulative IPC: 1.71344 (Simulation time: 0 hr 5 min 46 sec) 
Heartbeat CPU 0 instructions: 14000000 cycles: 8237590 heartbeat IPC: 1.53727 cumulative IPC: 1.69953 (Simulation time: 0 hr 6 min 9 sec) 
Heartbeat CPU 0 instructions: 15000000 cycles: 8891123 heartbeat IPC: 1.53014 cumulative IPC: 1.68708 (Simulation time: 0 hr 6 min 34 sec) 
Heartbeat CPU 0 instructions: 16000000 cycles: 9461599 heartbeat IPC: 1.75292 cumulative IPC: 1.69105 (Simulation time: 0 hr 7 min 0 sec) 
Heartbeat CPU 0 instructions: 17000000 cycles: 10043621 heartbeat IPC: 1.71815 cumulative IPC: 1.69262 (Simulation time: 0 hr 7 min 27 sec) 
Heartbeat CPU 0 instructions: 18000000 cycles: 10615139 heartbeat IPC: 1.74973 cumulative IPC: 1.69569 (Simulation time: 0 hr 7 min 54 sec) 
Heartbeat CPU 0 instructions: 19000002 cycles: 11183948 heartbeat IPC: 1.75806 cumulative IPC: 1.69886 (Simulation time: 0 hr 8 min 22 sec) 
Heartbeat CPU 0 instructions: 20000000 cycles: 11731670 heartbeat IPC: 1.82574 cumulative IPC: 1.70479 (Simulation time: 0 hr 8 min 48 sec) 
Heartbeat CPU 0 instructions: 21000000 cycles: 12279930 heartbeat IPC: 1.82395 cumulative IPC: 1.71011 (Simulation time: 0 hr 9 min 15 sec) 
Heartbeat CPU 0 instructions: 22000001 cycles: 12832903 heartbeat IPC: 1.80841 cumulative IPC: 1.71434 (Simulation time: 0 hr 9 min 42 sec) 
Heartbeat CPU 0 instructions: 23000000 cycles: 13414501 heartbeat IPC: 1.7194 cumulative IPC: 1.71456 (Simulation time: 0 hr 10 min 10 sec) 
Heartbeat CPU 0 instructions: 24000000 cycles: 13984295 heartbeat IPC: 1.75502 cumulative IPC: 1.71621 (Simulation time: 0 hr 10 min 36 sec) 
Heartbeat CPU 0 instructions: 25000000 cycles: 14547186 heartbeat IPC: 1.77654 cumulative IPC: 1.71855 (Simulation time: 0 hr 11 min 2 sec) 
Heartbeat CPU 0 instructions: 26000001 cycles: 15116759 heartbeat IPC: 1.7557 cumulative IPC: 1.71995 (Simulation time: 0 hr 11 min 27 sec) 
Heartbeat CPU 0 instructions: 27000001 cycles: 15683476 heartbeat IPC: 1.76455 cumulative IPC: 1.72156 (Simulation time: 0 hr 11 min 52 sec) 
Heartbeat CPU 0 instructions: 28000000 cycles: 16252718 heartbeat IPC: 1.75672 cumulative IPC: 1.72279 (Simulation time: 0 hr 12 min 17 sec) 
Heartbeat CPU 0 instructions: 29000000 cycles: 16839114 heartbeat IPC: 1.70533 cumulative IPC: 1.72218 (Simulation time: 0 hr 12 min 44 sec) 
Heartbeat CPU 0 instructions: 30000000 cycles: 17409883 heartbeat IPC: 1.75202 cumulative IPC: 1.72316 (Simulation time: 0 hr 13 min 10 sec) 
Heartbeat CPU 0 instructions: 31000000 cycles: 17985513 heartbeat IPC: 1.73723 cumulative IPC: 1.72361 (Simulation time: 0 hr 13 min 37 sec) 
Heartbeat CPU 0 instructions: 32000000 cycles: 18555353 heartbeat IPC: 1.75488 cumulative IPC: 1.72457 (Simulation time: 0 hr 14 min 3 sec) 
Heartbeat CPU 0 instructions: 33000000 cycles: 19114003 heartbeat IPC: 1.79003 cumulative IPC: 1.72648 (Simulation time: 0 hr 14 min 29 sec) 
Heartbeat CPU 0 instructions: 34000001 cycles: 19666664 heartbeat IPC: 1.80943 cumulative IPC: 1.72881 (Simulation time: 0 hr 14 min 55 sec) 
Heartbeat CPU 0 instructions: 35000001 cycles: 20247702 heartbeat IPC: 1.72106 cumulative IPC: 1.72859 (Simulation time: 0 hr 15 min 19 sec) 
Heartbeat CPU 0 instructions: 36000000 cycles: 20803362 heartbeat IPC: 1.79966 cumulative IPC: 1.73049 (Simulation time: 0 hr 15 min 45 sec) 
Heartbeat CPU 0 instructions: 37000001 cycles: 21375627 heartbeat IPC: 1.74744 cumulative IPC: 1.73094 (Simulation time: 0 hr 16 min 10 sec) 
Heartbeat CPU 0 instructions: 38000001 cycles: 21936180 heartbeat IPC: 1.78395 cumulative IPC: 1.7323 (Simulation time: 0 hr 16 min 34 sec) 
Heartbeat CPU 0 instructions: 39000001 cycles: 22549056 heartbeat IPC: 1.63165 cumulative IPC: 1.72956 (Simulation time: 0 hr 16 min 59 sec) 
Heartbeat CPU 0 instructions: 40000000 cycles: 23198062 heartbeat IPC: 1.54082 cumulative IPC: 1.72428 (Simulation time: 0 hr 17 min 22 sec) 
Heartbeat CPU 0 instructions: 41000001 cycles: 23847011 heartbeat IPC: 1.54095 cumulative IPC: 1.71929 (Simulation time: 0 hr 17 min 45 sec) 
Heartbeat CPU 0 instructions: 42000001 cycles: 24493930 heartbeat IPC: 1.54579 cumulative IPC: 1.71471 (Simulation time: 0 hr 18 min 7 sec) 
Heartbeat CPU 0 instructions: 43000000 cycles: 25162592 heartbeat IPC: 1.49552 cumulative IPC: 1.70889 (Simulation time: 0 hr 18 min 35 sec) 
Heartbeat CPU 0 instructions: 44000000 cycles: 25726427 heartbeat IPC: 1.77357 cumulative IPC: 1.7103 (Simulation time: 0 hr 19 min 1 sec) 
Heartbeat CPU 0 instructions: 45000000 cycles: 26290219 heartbeat IPC: 1.7737 cumulative IPC: 1.71166 (Simulation time: 0 hr 19 min 28 sec) 
Heartbeat CPU 0 instructions: 46000000 cycles: 26836433 heartbeat IPC: 1.83078 cumulative IPC: 1.71409 (Simulation time: 0 hr 19 min 53 sec) 
Heartbeat CPU 0 instructions: 47000000 cycles: 27382582 heartbeat IPC: 1.831 cumulative IPC: 1.71642 (Simulation time: 0 hr 20 min 18 sec) 
Heartbeat CPU 0 instructions: 48000000 cycles: 27934171 heartbeat IPC: 1.81294 cumulative IPC: 1.71833 (Simulation time: 0 hr 20 min 45 sec) 
Heartbeat CPU 0 instructions: 49000002 cycles: 28515123 heartbeat IPC: 1.72132 cumulative IPC: 1.71839 (Simulation time: 0 hr 21 min 12 sec) 
Heartbeat CPU 0 instructions: 50000000 cycles: 29085171 heartbeat IPC: 1.75423 cumulative IPC: 1.71909 (Simulation time: 0 hr 21 min 38 sec) 

Warmup complete CPU 0 instructions: 50000002 cycles: 29085172 (Simulation time: 0 hr 21 min 38 sec) 

Heartbeat CPU 0 instructions: 51000003 cycles: 31988681 heartbeat IPC: 0.344412 cumulative IPC: 0.344411 (Simulation time: 0 hr 22 min 7 sec) 
Heartbeat CPU 0 instructions: 52000000 cycles: 34876152 heartbeat IPC: 0.346323 cumulative IPC: 0.345364 (Simulation time: 0 hr 22 min 37 sec) 
Heartbeat CPU 0 instructions: 53000003 cycles: 37777628 heartbeat IPC: 0.344653 cumulative IPC: 0.345127 (Simulation time: 0 hr 23 min 6 sec) 
Heartbeat CPU 0 instructions: 54000001 cycles: 40649574 heartbeat IPC: 0.348195 cumulative IPC: 0.345889 (Simulation time: 0 hr 23 min 36 sec) 
Heartbeat CPU 0 instructions: 55000001 cycles: 43662833 heartbeat IPC: 0.331867 cumulative IPC: 0.34299 (Simulation time: 0 hr 24 min 10 sec) 
Heartbeat CPU 0 instructions: 56000000 cycles: 46531000 heartbeat IPC: 0.348654 cumulative IPC: 0.343922 (Simulation time: 0 hr 24 min 41 sec) 
Heartbeat CPU 0 instructions: 57000003 cycles: 49388128 heartbeat IPC: 0.350003 cumulative IPC: 0.344777 (Simulation time: 0 hr 25 min 13 sec) 
Heartbeat CPU 0 instructions: 58000001 cycles: 52477064 heartbeat IPC: 0.323735 cumulative IPC: 0.341999 (Simulation time: 0 hr 25 min 43 sec) 
Heartbeat CPU 0 instructions: 59000001 cycles: 55887841 heartbeat IPC: 0.293188 cumulative IPC: 0.335787 (Simulation time: 0 hr 26 min 13 sec) 
Heartbeat CPU 0 instructions: 60000000 cycles: 58975283 heartbeat IPC: 0.323892 cumulative IPC: 0.334559 (Simulation time: 0 hr 26 min 49 sec) 
Heartbeat CPU 0 instructions: 61000001 cycles: 62100883 heartbeat IPC: 0.319939 cumulative IPC: 0.333175 (Simulation time: 0 hr 27 min 19 sec) 
Heartbeat CPU 0 instructions: 62000000 cycles: 65538763 heartbeat IPC: 0.290877 cumulative IPC: 0.329186 (Simulation time: 0 hr 27 min 51 sec) 
Heartbeat CPU 0 instructions: 63000001 cycles: 68465002 heartbeat IPC: 0.341736 cumulative IPC: 0.330118 (Simulation time: 0 hr 28 min 21 sec) 
Heartbeat CPU 0 instructions: 64000000 cycles: 71372087 heartbeat IPC: 0.343987 cumulative IPC: 0.331072 (Simulation time: 0 hr 28 min 53 sec) 
Heartbeat CPU 0 instructions: 65000001 cycles: 74269310 heartbeat IPC: 0.345158 cumulative IPC: 0.331975 (Simulation time: 0 hr 29 min 22 sec) 
Heartbeat CPU 0 instructions: 66000002 cycles: 78574677 heartbeat IPC: 0.232268 cumulative IPC: 0.323301 (Simulation time: 0 hr 30 min 0 sec) 
Heartbeat CPU 0 instructions: 67000001 cycles: 80252260 heartbeat IPC: 0.596095 cumulative IPC: 0.332245 (Simulation time: 0 hr 30 min 27 sec) 
Heartbeat CPU 0 instructions: 68000000 cycles: 81375894 heartbeat IPC: 0.889969 cumulative IPC: 0.344229 (Simulation time: 0 hr 30 min 52 sec) 
Heartbeat CPU 0 instructions: 69000003 cycles: 82517904 heartbeat IPC: 0.875652 cumulative IPC: 0.355587 (Simulation time: 0 hr 31 min 18 sec) 
Heartbeat CPU 0 instructions: 70000000 cycles: 83638304 heartbeat IPC: 0.892536 cumulative IPC: 0.366615 (Simulation time: 0 hr 31 min 40 sec) 
Heartbeat CPU 0 instructions: 71000001 cycles: 84811558 heartbeat IPC: 0.852331 cumulative IPC: 0.376841 (Simulation time: 0 hr 32 min 2 sec) 
Heartbeat CPU 0 instructions: 72000000 cycles: 88233517 heartbeat IPC: 0.29223 cumulative IPC: 0.371946 (Simulation time: 0 hr 32 min 33 sec) 
Heartbeat CPU 0 instructions: 73000000 cycles: 91752547 heartbeat IPC: 0.284169 cumulative IPC: 0.367017 (Simulation time: 0 hr 33 min 4 sec) 
Heartbeat CPU 0 instructions: 74000001 cycles: 95218806 heartbeat IPC: 0.288496 cumulative IPC: 0.362902 (Simulation time: 0 hr 33 min 38 sec) 
Heartbeat CPU 0 instructions: 75000001 cycles: 98195381 heartbeat IPC: 0.335957 cumulative IPC: 0.361741 (Simulation time: 0 hr 34 min 10 sec) 
Heartbeat CPU 0 instructions: 76000000 cycles: 101071797 heartbeat IPC: 0.347655 cumulative IPC: 0.361178 (Simulation time: 0 hr 34 min 40 sec) 
Heartbeat CPU 0 instructions: 77000000 cycles: 103984127 heartbeat IPC: 0.343368 cumulative IPC: 0.360486 (Simulation time: 0 hr 35 min 11 sec) 
Heartbeat CPU 0 instructions: 78000001 cycles: 106896000 heartbeat IPC: 0.343422 cumulative IPC: 0.359847 (Simulation time: 0 hr 35 min 40 sec) 
Heartbeat CPU 0 instructions: 79000001 cycles: 109801513 heartbeat IPC: 0.344173 cumulative IPC: 0.359283 (Simulation time: 0 hr 36 min 9 sec) 
Heartbeat CPU 0 instructions: 80000000 cycles: 112682521 heartbeat IPC: 0.3471 cumulative IPC: 0.358863 (Simulation time: 0 hr 36 min 37 sec) 
Heartbeat CPU 0 instructions: 81000002 cycles: 115638436 heartbeat IPC: 0.338305 cumulative IPC: 0.358161 (Simulation time: 0 hr 37 min 11 sec) 
Heartbeat CPU 0 instructions: 82000001 cycles: 118503122 heartbeat IPC: 0.349078 cumulative IPC: 0.35787 (Simulation time: 0 hr 37 min 47 sec) 
Heartbeat CPU 0 instructions: 83000002 cycles: 121436312 heartbeat IPC: 0.340926 cumulative IPC: 0.357332 (Simulation time: 0 hr 38 min 19 sec) 
Heartbeat CPU 0 instructions: 84000000 cycles: 124400178 heartbeat IPC: 0.337397 cumulative IPC: 0.356712 (Simulation time: 0 hr 38 min 50 sec) 
Heartbeat CPU 0 instructions: 85000002 cycles: 127855947 heartbeat IPC: 0.289372 cumulative IPC: 0.354356 (Simulation time: 0 hr 39 min 26 sec) 
Heartbeat CPU 0 instructions: 86000002 cycles: 131304770 heartbeat IPC: 0.289954 cumulative IPC: 0.352183 (Simulation time: 0 hr 39 min 59 sec) 
Heartbeat CPU 0 instructions: 87000000 cycles: 134411228 heartbeat IPC: 0.321909 cumulative IPC: 0.35129 (Simulation time: 0 hr 40 min 31 sec) 
Heartbeat CPU 0 instructions: 88000000 cycles: 137517827 heartbeat IPC: 0.321895 cumulative IPC: 0.350448 (Simulation time: 0 hr 41 min 2 sec) 
Heartbeat CPU 0 instructions: 89000002 cycles: 140710111 heartbeat IPC: 0.313256 cumulative IPC: 0.349384 (Simulation time: 0 hr 41 min 33 sec) 
Heartbeat CPU 0 instructions: 90000001 cycles: 143572202 heartbeat IPC: 0.349395 cumulative IPC: 0.349385 (Simulation time: 0 hr 42 min 5 sec) 
Heartbeat CPU 0 instructions: 91000001 cycles: 146451810 heartbeat IPC: 0.347269 cumulative IPC: 0.349333 (Simulation time: 0 hr 42 min 39 sec) 
Heartbeat CPU 0 instructions: 92000000 cycles: 149416719 heartbeat IPC: 0.337278 cumulative IPC: 0.349036 (Simulation time: 0 hr 43 min 9 sec) 
Heartbeat CPU 0 instructions: 93000000 cycles: 152308410 heartbeat IPC: 0.345818 cumulative IPC: 0.34896 (Simulation time: 0 hr 43 min 42 sec) 
Heartbeat CPU 0 instructions: 94000000 cycles: 156993050 heartbeat IPC: 0.213464 cumulative IPC: 0.343998 (Simulation time: 0 hr 44 min 18 sec) 
Heartbeat CPU 0 instructions: 95000000 cycles: 158181528 heartbeat IPC: 0.841412 cumulative IPC: 0.348577 (Simulation time: 0 hr 44 min 41 sec) 
Heartbeat CPU 0 instructions: 96000000 cycles: 159324508 heartbeat IPC: 0.874906 cumulative IPC: 0.353196 (Simulation time: 0 hr 45 min 5 sec) 
Heartbeat CPU 0 instructions: 97000002 cycles: 160443211 heartbeat IPC: 0.893894 cumulative IPC: 0.357801 (Simulation time: 0 hr 45 min 30 sec) 
Heartbeat CPU 0 instructions: 98000001 cycles: 161585150 heartbeat IPC: 0.875703 cumulative IPC: 0.362264 (Simulation time: 0 hr 45 min 54 sec) 
Heartbeat CPU 0 instructions: 99000002 cycles: 163496381 heartbeat IPC: 0.523224 cumulative IPC: 0.364553 (Simulation time: 0 hr 46 min 22 sec) 
Heartbeat CPU 0 instructions: 100000000 cycles: 167018510 heartbeat IPC: 0.283919 cumulative IPC: 0.362494 (Simulation time: 0 hr 46 min 59 sec) 
Heartbeat CPU 0 instructions: 101000002 cycles: 170191435 heartbeat IPC: 0.315167 cumulative IPC: 0.36143 (Simulation time: 0 hr 47 min 29 sec) 
Heartbeat CPU 0 instructions: 102000001 cycles: 173285003 heartbeat IPC: 0.323251 cumulative IPC: 0.360611 (Simulation time: 0 hr 48 min 2 sec) 
Heartbeat CPU 0 instructions: 103000000 cycles: 176184190 heartbeat IPC: 0.344924 cumulative IPC: 0.360301 (Simulation time: 0 hr 48 min 32 sec) 
Heartbeat CPU 0 instructions: 104000000 cycles: 179076679 heartbeat IPC: 0.345723 cumulative IPC: 0.36002 (Simulation time: 0 hr 49 min 3 sec) 
Heartbeat CPU 0 instructions: 105000001 cycles: 181934664 heartbeat IPC: 0.349897 cumulative IPC: 0.359831 (Simulation time: 0 hr 49 min 32 sec) 
Heartbeat CPU 0 instructions: 106000000 cycles: 184907181 heartbeat IPC: 0.336415 cumulative IPC: 0.359384 (Simulation time: 0 hr 50 min 5 sec) 
Heartbeat CPU 0 instructions: 107000002 cycles: 187787238 heartbeat IPC: 0.347216 cumulative IPC: 0.359164 (Simulation time: 0 hr 50 min 36 sec) 
Heartbeat CPU 0 instructions: 108000000 cycles: 190684237 heartbeat IPC: 0.345184 cumulative IPC: 0.358913 (Simulation time: 0 hr 51 min 8 sec) 
Heartbeat CPU 0 instructions: 109000002 cycles: 193582326 heartbeat IPC: 0.345056 cumulative IPC: 0.358669 (Simulation time: 0 hr 51 min 41 sec) 
Heartbeat CPU 0 instructions: 110000001 cycles: 196497954 heartbeat IPC: 0.342979 cumulative IPC: 0.358396 (Simulation time: 0 hr 52 min 13 sec) 
Heartbeat CPU 0 instructions: 111000001 cycles: 199551380 heartbeat IPC: 0.327501 cumulative IPC: 0.357842 (Simulation time: 0 hr 52 min 44 sec) 
Heartbeat CPU 0 instructions: 112000000 cycles: 202961347 heartbeat IPC: 0.293258 cumulative IPC: 0.356576 (Simulation time: 0 hr 53 min 17 sec) 
Heartbeat CPU 0 instructions: 113000002 cycles: 206076551 heartbeat IPC: 0.321007 cumulative IPC: 0.35595 (Simulation time: 0 hr 53 min 50 sec) 
Heartbeat CPU 0 instructions: 114000001 cycles: 209495097 heartbeat IPC: 0.292522 cumulative IPC: 0.354748 (Simulation time: 0 hr 54 min 25 sec) 
Heartbeat CPU 0 instructions: 115000001 cycles: 212694988 heartbeat IPC: 0.312511 cumulative IPC: 0.354012 (Simulation time: 0 hr 54 min 58 sec) 
Heartbeat CPU 0 instructions: 116000000 cycles: 215658914 heartbeat IPC: 0.33739 cumulative IPC: 0.353748 (Simulation time: 0 hr 55 min 29 sec) 
Heartbeat CPU 0 instructions: 117000001 cycles: 218539228 heartbeat IPC: 0.347185 cumulative IPC: 0.353648 (Simulation time: 0 hr 55 min 59 sec) 
Heartbeat CPU 0 instructions: 118000000 cycles: 221515763 heartbeat IPC: 0.335961 cumulative IPC: 0.353374 (Simulation time: 0 hr 56 min 30 sec) 
Heartbeat CPU 0 instructions: 119000001 cycles: 224429381 heartbeat IPC: 0.343216 cumulative IPC: 0.353223 (Simulation time: 0 hr 57 min 2 sec) 
Heartbeat CPU 0 instructions: 120000000 cycles: 227345984 heartbeat IPC: 0.342864 cumulative IPC: 0.35307 (Simulation time: 0 hr 57 min 34 sec) 
Heartbeat CPU 0 instructions: 121000003 cycles: 230273429 heartbeat IPC: 0.341596 cumulative IPC: 0.352903 (Simulation time: 0 hr 58 min 3 sec) 
Heartbeat CPU 0 instructions: 122000000 cycles: 234967677 heartbeat IPC: 0.213026 cumulative IPC: 0.349714 (Simulation time: 0 hr 58 min 40 sec) 
Heartbeat CPU 0 instructions: 123000001 cycles: 236133535 heartbeat IPC: 0.857738 cumulative IPC: 0.352575 (Simulation time: 0 hr 59 min 4 sec) 
Heartbeat CPU 0 instructions: 124000000 cycles: 237255511 heartbeat IPC: 0.891284 cumulative IPC: 0.355478 (Simulation time: 0 hr 59 min 30 sec) 
Heartbeat CPU 0 instructions: 125000000 cycles: 238397263 heartbeat IPC: 0.875847 cumulative IPC: 0.358317 (Simulation time: 0 hr 59 min 59 sec) 
Heartbeat CPU 0 instructions: 126000001 cycles: 239625144 heartbeat IPC: 0.814412 cumulative IPC: 0.360977 (Simulation time: 1 hr 0 min 24 sec) 
Heartbeat CPU 0 instructions: 127000000 cycles: 241652565 heartbeat IPC: 0.493237 cumulative IPC: 0.362238 (Simulation time: 1 hr 0 min 53 sec) 
Heartbeat CPU 0 instructions: 128000000 cycles: 245151230 heartbeat IPC: 0.285823 cumulative IPC: 0.361001 (Simulation time: 1 hr 1 min 28 sec) 
Heartbeat CPU 0 instructions: 129000001 cycles: 248348756 heartbeat IPC: 0.312742 cumulative IPC: 0.360297 (Simulation time: 1 hr 2 min 3 sec) 
Heartbeat CPU 0 instructions: 130000000 cycles: 251220508 heartbeat IPC: 0.348219 cumulative IPC: 0.360141 (Simulation time: 1 hr 2 min 32 sec) 
Heartbeat CPU 0 instructions: 131000001 cycles: 254105260 heartbeat IPC: 0.346651 cumulative IPC: 0.359968 (Simulation time: 1 hr 3 min 7 sec) 
Heartbeat CPU 0 instructions: 132000000 cycles: 257051519 heartbeat IPC: 0.339413 cumulative IPC: 0.359702 (Simulation time: 1 hr 3 min 38 sec) 
Heartbeat CPU 0 instructions: 133000000 cycles: 260002390 heartbeat IPC: 0.338883 cumulative IPC: 0.359436 (Simulation time: 1 hr 4 min 10 sec) 
Heartbeat CPU 0 instructions: 134000000 cycles: 262929410 heartbeat IPC: 0.341644 cumulative IPC: 0.359213 (Simulation time: 1 hr 4 min 43 sec) 
Heartbeat CPU 0 instructions: 135000000 cycles: 265835818 heartbeat IPC: 0.344067 cumulative IPC: 0.359028 (Simulation time: 1 hr 5 min 12 sec) 
Heartbeat CPU 0 instructions: 136000000 cycles: 268745158 heartbeat IPC: 0.343721 cumulative IPC: 0.358842 (Simulation time: 1 hr 5 min 42 sec) 
Heartbeat CPU 0 instructions: 137000000 cycles: 271612032 heartbeat IPC: 0.348812 cumulative IPC: 0.358723 (Simulation time: 1 hr 6 min 15 sec) 
Heartbeat CPU 0 instructions: 138000001 cycles: 274934015 heartbeat IPC: 0.301025 cumulative IPC: 0.357944 (Simulation time: 1 hr 6 min 52 sec) 
Heartbeat CPU 0 instructions: 139000000 cycles: 277714498 heartbeat IPC: 0.359649 cumulative IPC: 0.357963 (Simulation time: 1 hr 7 min 23 sec) 
Heartbeat CPU 0 instructions: 140000000 cycles: 281180514 heartbeat IPC: 0.288516 cumulative IPC: 0.357008 (Simulation time: 1 hr 7 min 56 sec) 
Heartbeat CPU 0 instructions: 141000002 cycles: 284638695 heartbeat IPC: 0.28917 cumulative IPC: 0.35609 (Simulation time: 1 hr 8 min 29 sec) 
Heartbeat CPU 0 instructions: 142000001 cycles: 288018040 heartbeat IPC: 0.295915 cumulative IPC: 0.355304 (Simulation time: 1 hr 9 min 2 sec) 
Heartbeat CPU 0 instructions: 143000001 cycles: 290990248 heartbeat IPC: 0.33645 cumulative IPC: 0.35509 (Simulation time: 1 hr 9 min 32 sec) 
Heartbeat CPU 0 instructions: 144000000 cycles: 293979623 heartbeat IPC: 0.334518 cumulative IPC: 0.354858 (Simulation time: 1 hr 10 min 2 sec) 
Heartbeat CPU 0 instructions: 145000001 cycles: 296869560 heartbeat IPC: 0.346029 cumulative IPC: 0.354763 (Simulation time: 1 hr 10 min 32 sec) 
Heartbeat CPU 0 instructions: 146000000 cycles: 299809570 heartbeat IPC: 0.340135 cumulative IPC: 0.354604 (Simulation time: 1 hr 11 min 1 sec) 
Heartbeat CPU 0 instructions: 147000001 cycles: 302763841 heartbeat IPC: 0.338493 cumulative IPC: 0.35443 (Simulation time: 1 hr 11 min 29 sec) 
Heartbeat CPU 0 instructions: 148000000 cycles: 305686645 heartbeat IPC: 0.342137 cumulative IPC: 0.3543 (Simulation time: 1 hr 11 min 57 sec) 
Heartbeat CPU 0 instructions: 149000002 cycles: 308588072 heartbeat IPC: 0.344659 cumulative IPC: 0.3542 (Simulation time: 1 hr 12 min 24 sec) 
Heartbeat CPU 0 instructions: 150000001 cycles: 313257114 heartbeat IPC: 0.214176 cumulative IPC: 0.3519 (Simulation time: 1 hr 12 min 59 sec) 
Finished CPU 0 instructions: 100000000 cycles: 284171945 cummulative IPC: 0.3519 (Simulation time: 1 hr 12 min 59 sec) 

ChampSim completed all CPUs

Region of Interest Statistics

CPU 0 cummulative IPC: 0.3519 instructions: 100000000 cycles: 284171945
LLC TOTAL     ACCESS:    4942105  HIT:    2174044  MISS:    2768061
LLC LOAD      ACCESS:    2311637  HIT:    1803798  MISS:     507839
LLC RFO       ACCESS:      25015  HIT:       6985  MISS:      18030
LLC PREFETCH  ACCESS:    2524151  HIT:     292418  MISS:    2231733
LLC WRITEBACK ACCESS:      81302  HIT:      70843  MISS:      10459
OPTgen accesses: 53274
OPTgen hits: 51325
OPTgen hit rate: 96.3416


