
*** ChampSim Multicore Out-of-Order Simulator ***

Warmup Instructions: 50000000
Simulation Instructions: 100000000
Configuration: 2
Number of CPUs: 1
LLC sets: 2048
LLC ways: 16
Off-chip DRAM Channels: 1 Width: 64-bit Data Rate: 1600 MT/s

CPU 0 runs /datasets/cs240c-wi22-a00-public/data/Assignment2-gz/lbm_1004B.trace.gz
CPU 0 L1D next line prefetcher
CPU 0 L2C IP-based stride prefetcher
Initialize Hawkeye state
Heartbeat CPU 0 instructions: 1000002 cycles: 391414 heartbeat IPC: 2.55484 cumulative IPC: 2.55484 (Simulation time: 0 hr 0 min 35 sec) 
Heartbeat CPU 0 instructions: 2000001 cycles: 782838 heartbeat IPC: 2.55477 cumulative IPC: 2.55481 (Simulation time: 0 hr 1 min 9 sec) 
Heartbeat CPU 0 instructions: 3000001 cycles: 1174187 heartbeat IPC: 2.55526 cumulative IPC: 2.55496 (Simulation time: 0 hr 1 min 39 sec) 
Heartbeat CPU 0 instructions: 4000000 cycles: 1570368 heartbeat IPC: 2.5241 cumulative IPC: 2.54717 (Simulation time: 0 hr 2 min 8 sec) 
Heartbeat CPU 0 instructions: 5000002 cycles: 1961787 heartbeat IPC: 2.55481 cumulative IPC: 2.5487 (Simulation time: 0 hr 2 min 36 sec) 
Heartbeat CPU 0 instructions: 6000002 cycles: 2353155 heartbeat IPC: 2.55514 cumulative IPC: 2.54977 (Simulation time: 0 hr 3 min 4 sec) 
Heartbeat CPU 0 instructions: 7000003 cycles: 2749263 heartbeat IPC: 2.52457 cumulative IPC: 2.54614 (Simulation time: 0 hr 3 min 32 sec) 
Heartbeat CPU 0 instructions: 8000000 cycles: 3140612 heartbeat IPC: 2.55526 cumulative IPC: 2.54727 (Simulation time: 0 hr 3 min 58 sec) 
Heartbeat CPU 0 instructions: 9000003 cycles: 3532037 heartbeat IPC: 2.55478 cumulative IPC: 2.54811 (Simulation time: 0 hr 4 min 26 sec) 
Heartbeat CPU 0 instructions: 10000000 cycles: 3923408 heartbeat IPC: 2.55511 cumulative IPC: 2.5488 (Simulation time: 0 hr 4 min 54 sec) 
Heartbeat CPU 0 instructions: 11000000 cycles: 4319648 heartbeat IPC: 2.52372 cumulative IPC: 2.5465 (Simulation time: 0 hr 5 min 23 sec) 
Heartbeat CPU 0 instructions: 12000000 cycles: 4710969 heartbeat IPC: 2.55545 cumulative IPC: 2.54725 (Simulation time: 0 hr 5 min 51 sec) 
Heartbeat CPU 0 instructions: 13000002 cycles: 5102375 heartbeat IPC: 2.5549 cumulative IPC: 2.54783 (Simulation time: 0 hr 6 min 20 sec) 
Heartbeat CPU 0 instructions: 14000003 cycles: 5498550 heartbeat IPC: 2.52414 cumulative IPC: 2.54613 (Simulation time: 0 hr 6 min 47 sec) 
Heartbeat CPU 0 instructions: 15000003 cycles: 5889983 heartbeat IPC: 2.55472 cumulative IPC: 2.5467 (Simulation time: 0 hr 7 min 13 sec) 
Heartbeat CPU 0 instructions: 16000000 cycles: 6281384 heartbeat IPC: 2.55492 cumulative IPC: 2.54721 (Simulation time: 0 hr 7 min 39 sec) 
Heartbeat CPU 0 instructions: 17000000 cycles: 6677549 heartbeat IPC: 2.5242 cumulative IPC: 2.54584 (Simulation time: 0 hr 8 min 6 sec) 
Heartbeat CPU 0 instructions: 18000000 cycles: 7068932 heartbeat IPC: 2.55504 cumulative IPC: 2.54635 (Simulation time: 0 hr 8 min 37 sec) 
Heartbeat CPU 0 instructions: 19000003 cycles: 7460292 heartbeat IPC: 2.5552 cumulative IPC: 2.54682 (Simulation time: 0 hr 9 min 5 sec) 
Heartbeat CPU 0 instructions: 20000000 cycles: 7851699 heartbeat IPC: 2.55488 cumulative IPC: 2.54722 (Simulation time: 0 hr 9 min 34 sec) 
Heartbeat CPU 0 instructions: 21000003 cycles: 8247866 heartbeat IPC: 2.5242 cumulative IPC: 2.54611 (Simulation time: 0 hr 10 min 4 sec) 
Heartbeat CPU 0 instructions: 22000002 cycles: 8639328 heartbeat IPC: 2.55452 cumulative IPC: 2.54649 (Simulation time: 0 hr 10 min 33 sec) 
Heartbeat CPU 0 instructions: 23000001 cycles: 9030670 heartbeat IPC: 2.55531 cumulative IPC: 2.54688 (Simulation time: 0 hr 11 min 2 sec) 
Heartbeat CPU 0 instructions: 24000000 cycles: 9426888 heartbeat IPC: 2.52386 cumulative IPC: 2.54591 (Simulation time: 0 hr 11 min 30 sec) 
Heartbeat CPU 0 instructions: 25000003 cycles: 9818293 heartbeat IPC: 2.55491 cumulative IPC: 2.54627 (Simulation time: 0 hr 12 min 2 sec) 
Heartbeat CPU 0 instructions: 26000002 cycles: 10209667 heartbeat IPC: 2.5551 cumulative IPC: 2.54661 (Simulation time: 0 hr 12 min 30 sec) 
Heartbeat CPU 0 instructions: 27000001 cycles: 10601011 heartbeat IPC: 2.55529 cumulative IPC: 2.54693 (Simulation time: 0 hr 12 min 58 sec) 
Heartbeat CPU 0 instructions: 28000000 cycles: 10997181 heartbeat IPC: 2.52417 cumulative IPC: 2.54611 (Simulation time: 0 hr 13 min 28 sec) 
Heartbeat CPU 0 instructions: 29000002 cycles: 11388574 heartbeat IPC: 2.55498 cumulative IPC: 2.54641 (Simulation time: 0 hr 13 min 59 sec) 
Heartbeat CPU 0 instructions: 30000003 cycles: 11779966 heartbeat IPC: 2.55499 cumulative IPC: 2.5467 (Simulation time: 0 hr 14 min 28 sec) 
Heartbeat CPU 0 instructions: 31000003 cycles: 12176192 heartbeat IPC: 2.52381 cumulative IPC: 2.54595 (Simulation time: 0 hr 15 min 0 sec) 
Heartbeat CPU 0 instructions: 32000000 cycles: 12567575 heartbeat IPC: 2.55503 cumulative IPC: 2.54624 (Simulation time: 0 hr 15 min 29 sec) 
Heartbeat CPU 0 instructions: 33000003 cycles: 12959004 heartbeat IPC: 2.55475 cumulative IPC: 2.54649 (Simulation time: 0 hr 15 min 56 sec) 
Heartbeat CPU 0 instructions: 34000002 cycles: 13355118 heartbeat IPC: 2.52452 cumulative IPC: 2.54584 (Simulation time: 0 hr 16 min 25 sec) 
Heartbeat CPU 0 instructions: 35000003 cycles: 13746537 heartbeat IPC: 2.55481 cumulative IPC: 2.5461 (Simulation time: 0 hr 16 min 51 sec) 
Heartbeat CPU 0 instructions: 36000000 cycles: 14137943 heartbeat IPC: 2.55488 cumulative IPC: 2.54634 (Simulation time: 0 hr 17 min 21 sec) 
Heartbeat CPU 0 instructions: 37000002 cycles: 14529353 heartbeat IPC: 2.55487 cumulative IPC: 2.54657 (Simulation time: 0 hr 17 min 49 sec) 
Heartbeat CPU 0 instructions: 38000000 cycles: 14925546 heartbeat IPC: 2.52402 cumulative IPC: 2.54597 (Simulation time: 0 hr 18 min 17 sec) 
Heartbeat CPU 0 instructions: 39000003 cycles: 15316869 heartbeat IPC: 2.55544 cumulative IPC: 2.54621 (Simulation time: 0 hr 18 min 43 sec) 
Heartbeat CPU 0 instructions: 40000000 cycles: 15708265 heartbeat IPC: 2.55495 cumulative IPC: 2.54643 (Simulation time: 0 hr 19 min 8 sec) 
Heartbeat CPU 0 instructions: 41000002 cycles: 16104470 heartbeat IPC: 2.52395 cumulative IPC: 2.54588 (Simulation time: 0 hr 19 min 38 sec) 
Heartbeat CPU 0 instructions: 42000003 cycles: 16495906 heartbeat IPC: 2.5547 cumulative IPC: 2.54609 (Simulation time: 0 hr 20 min 6 sec) 
Heartbeat CPU 0 instructions: 43000000 cycles: 16887283 heartbeat IPC: 2.55507 cumulative IPC: 2.54629 (Simulation time: 0 hr 20 min 36 sec) 
Heartbeat CPU 0 instructions: 44000000 cycles: 17283453 heartbeat IPC: 2.52417 cumulative IPC: 2.54579 (Simulation time: 0 hr 21 min 2 sec) 
Heartbeat CPU 0 instructions: 45000003 cycles: 17674851 heartbeat IPC: 2.55495 cumulative IPC: 2.54599 (Simulation time: 0 hr 21 min 29 sec) 
Heartbeat CPU 0 instructions: 46000003 cycles: 18066205 heartbeat IPC: 2.55523 cumulative IPC: 2.54619 (Simulation time: 0 hr 21 min 55 sec) 
Heartbeat CPU 0 instructions: 47000002 cycles: 18457604 heartbeat IPC: 2.55493 cumulative IPC: 2.54638 (Simulation time: 0 hr 22 min 20 sec) 
Heartbeat CPU 0 instructions: 48000000 cycles: 18853777 heartbeat IPC: 2.52414 cumulative IPC: 2.54591 (Simulation time: 0 hr 22 min 47 sec) 
Heartbeat CPU 0 instructions: 49000000 cycles: 19245203 heartbeat IPC: 2.55476 cumulative IPC: 2.54609 (Simulation time: 0 hr 23 min 17 sec) 
Heartbeat CPU 0 instructions: 50000003 cycles: 19636537 heartbeat IPC: 2.55537 cumulative IPC: 2.54627 (Simulation time: 0 hr 23 min 45 sec) 

Warmup complete CPU 0 instructions: 50000003 cycles: 19636537 (Simulation time: 0 hr 23 min 45 sec) 

Heartbeat CPU 0 instructions: 51000001 cycles: 21056539 heartbeat IPC: 0.704223 cumulative IPC: 0.704223 (Simulation time: 0 hr 24 min 16 sec) 
Heartbeat CPU 0 instructions: 52000000 cycles: 22374440 heartbeat IPC: 0.758782 cumulative IPC: 0.730485 (Simulation time: 0 hr 24 min 47 sec) 
Heartbeat CPU 0 instructions: 53000002 cycles: 23831346 heartbeat IPC: 0.686387 cumulative IPC: 0.715169 (Simulation time: 0 hr 25 min 19 sec) 
Heartbeat CPU 0 instructions: 54000002 cycles: 25308430 heartbeat IPC: 0.67701 cumulative IPC: 0.705232 (Simulation time: 0 hr 25 min 55 sec) 
Heartbeat CPU 0 instructions: 55000001 cycles: 26777096 heartbeat IPC: 0.680889 cumulative IPC: 0.700225 (Simulation time: 0 hr 26 min 27 sec) 
Heartbeat CPU 0 instructions: 56000000 cycles: 28190659 heartbeat IPC: 0.707431 cumulative IPC: 0.701416 (Simulation time: 0 hr 26 min 59 sec) 
Heartbeat CPU 0 instructions: 57000003 cycles: 29557474 heartbeat IPC: 0.73163 cumulative IPC: 0.705579 (Simulation time: 0 hr 27 min 29 sec) 
Heartbeat CPU 0 instructions: 58000003 cycles: 31050903 heartbeat IPC: 0.6696 cumulative IPC: 0.700871 (Simulation time: 0 hr 28 min 0 sec) 
Heartbeat CPU 0 instructions: 59000002 cycles: 32523398 heartbeat IPC: 0.679119 cumulative IPC: 0.698386 (Simulation time: 0 hr 28 min 30 sec) 
Heartbeat CPU 0 instructions: 60000000 cycles: 33968798 heartbeat IPC: 0.691849 cumulative IPC: 0.697726 (Simulation time: 0 hr 29 min 5 sec) 
Heartbeat CPU 0 instructions: 61000003 cycles: 35410565 heartbeat IPC: 0.693595 cumulative IPC: 0.697349 (Simulation time: 0 hr 29 min 44 sec) 
Heartbeat CPU 0 instructions: 62000001 cycles: 36747057 heartbeat IPC: 0.748226 cumulative IPC: 0.701323 (Simulation time: 0 hr 30 min 18 sec) 
Heartbeat CPU 0 instructions: 63000001 cycles: 38099766 heartbeat IPC: 0.739257 cumulative IPC: 0.704102 (Simulation time: 0 hr 30 min 49 sec) 
Heartbeat CPU 0 instructions: 64000000 cycles: 39528467 heartbeat IPC: 0.699936 cumulative IPC: 0.703803 (Simulation time: 0 hr 31 min 27 sec) 
Heartbeat CPU 0 instructions: 65000000 cycles: 41019200 heartbeat IPC: 0.670811 cumulative IPC: 0.701503 (Simulation time: 0 hr 31 min 59 sec) 
Heartbeat CPU 0 instructions: 66000000 cycles: 42426134 heartbeat IPC: 0.710765 cumulative IPC: 0.702075 (Simulation time: 0 hr 32 min 31 sec) 
Heartbeat CPU 0 instructions: 67000000 cycles: 43821867 heartbeat IPC: 0.716469 cumulative IPC: 0.702905 (Simulation time: 0 hr 33 min 3 sec) 
Heartbeat CPU 0 instructions: 68000000 cycles: 45210098 heartbeat IPC: 0.720341 cumulative IPC: 0.703852 (Simulation time: 0 hr 33 min 35 sec) 
Heartbeat CPU 0 instructions: 69000000 cycles: 46550244 heartbeat IPC: 0.746187 cumulative IPC: 0.70596 (Simulation time: 0 hr 34 min 8 sec) 
Heartbeat CPU 0 instructions: 70000000 cycles: 47972019 heartbeat IPC: 0.703346 cumulative IPC: 0.705829 (Simulation time: 0 hr 34 min 40 sec) 
Heartbeat CPU 0 instructions: 71000002 cycles: 49453521 heartbeat IPC: 0.674992 cumulative IPC: 0.704297 (Simulation time: 0 hr 35 min 14 sec) 
Heartbeat CPU 0 instructions: 72000000 cycles: 51595148 heartbeat IPC: 0.466934 cumulative IPC: 0.68839 (Simulation time: 0 hr 36 min 1 sec) 
Heartbeat CPU 0 instructions: 73000001 cycles: 54655707 heartbeat IPC: 0.326738 cumulative IPC: 0.656783 (Simulation time: 0 hr 36 min 49 sec) 
Heartbeat CPU 0 instructions: 74000002 cycles: 61028283 heartbeat IPC: 0.156923 cumulative IPC: 0.579826 (Simulation time: 0 hr 38 min 6 sec) 
Heartbeat CPU 0 instructions: 75000003 cycles: 63433900 heartbeat IPC: 0.415694 cumulative IPC: 0.570811 (Simulation time: 0 hr 38 min 48 sec) 
Heartbeat CPU 0 instructions: 76000000 cycles: 65511857 heartbeat IPC: 0.48124 cumulative IPC: 0.566753 (Simulation time: 0 hr 39 min 26 sec) 
Heartbeat CPU 0 instructions: 77000000 cycles: 66954341 heartbeat IPC: 0.693249 cumulative IPC: 0.57061 (Simulation time: 0 hr 40 min 0 sec) 
Heartbeat CPU 0 instructions: 78000002 cycles: 68402845 heartbeat IPC: 0.690369 cumulative IPC: 0.574167 (Simulation time: 0 hr 40 min 32 sec) 
Heartbeat CPU 0 instructions: 79000000 cycles: 69904664 heartbeat IPC: 0.665858 cumulative IPC: 0.576906 (Simulation time: 0 hr 41 min 3 sec) 
Heartbeat CPU 0 instructions: 80000000 cycles: 71305381 heartbeat IPC: 0.71392 cumulative IPC: 0.580621 (Simulation time: 0 hr 41 min 33 sec) 
Heartbeat CPU 0 instructions: 81000001 cycles: 72577327 heartbeat IPC: 0.786198 cumulative IPC: 0.58556 (Simulation time: 0 hr 42 min 2 sec) 
Heartbeat CPU 0 instructions: 82000002 cycles: 73954781 heartbeat IPC: 0.725978 cumulative IPC: 0.589121 (Simulation time: 0 hr 42 min 35 sec) 
Heartbeat CPU 0 instructions: 83000003 cycles: 75496477 heartbeat IPC: 0.648637 cumulative IPC: 0.590763 (Simulation time: 0 hr 43 min 7 sec) 
Heartbeat CPU 0 instructions: 84000000 cycles: 76916997 heartbeat IPC: 0.703965 cumulative IPC: 0.593571 (Simulation time: 0 hr 43 min 38 sec) 
Heartbeat CPU 0 instructions: 85000000 cycles: 78268232 heartbeat IPC: 0.740064 cumulative IPC: 0.596947 (Simulation time: 0 hr 44 min 9 sec) 
Heartbeat CPU 0 instructions: 86000000 cycles: 79762298 heartbeat IPC: 0.669315 cumulative IPC: 0.598745 (Simulation time: 0 hr 44 min 40 sec) 
Heartbeat CPU 0 instructions: 87000002 cycles: 81197226 heartbeat IPC: 0.6969 cumulative IPC: 0.601033 (Simulation time: 0 hr 45 min 11 sec) 
Heartbeat CPU 0 instructions: 88000000 cycles: 82558711 heartbeat IPC: 0.734491 cumulative IPC: 0.603921 (Simulation time: 0 hr 45 min 44 sec) 
Heartbeat CPU 0 instructions: 89000003 cycles: 83895863 heartbeat IPC: 0.74786 cumulative IPC: 0.606916 (Simulation time: 0 hr 46 min 12 sec) 
Heartbeat CPU 0 instructions: 90000002 cycles: 85400219 heartbeat IPC: 0.664736 cumulative IPC: 0.608238 (Simulation time: 0 hr 46 min 45 sec) 
Heartbeat CPU 0 instructions: 91000001 cycles: 86833571 heartbeat IPC: 0.697665 cumulative IPC: 0.610146 (Simulation time: 0 hr 47 min 18 sec) 
Heartbeat CPU 0 instructions: 92000000 cycles: 88159652 heartbeat IPC: 0.754101 cumulative IPC: 0.612932 (Simulation time: 0 hr 47 min 49 sec) 
Heartbeat CPU 0 instructions: 93000003 cycles: 89587512 heartbeat IPC: 0.700351 cumulative IPC: 0.614716 (Simulation time: 0 hr 48 min 21 sec) 
Heartbeat CPU 0 instructions: 94000003 cycles: 91037340 heartbeat IPC: 0.689737 cumulative IPC: 0.61624 (Simulation time: 0 hr 48 min 53 sec) 
Heartbeat CPU 0 instructions: 95000000 cycles: 92412049 heartbeat IPC: 0.727425 cumulative IPC: 0.61834 (Simulation time: 0 hr 49 min 23 sec) 
Heartbeat CPU 0 instructions: 96000000 cycles: 93793044 heartbeat IPC: 0.724116 cumulative IPC: 0.62031 (Simulation time: 0 hr 49 min 56 sec) 
Heartbeat CPU 0 instructions: 97000002 cycles: 95261434 heartbeat IPC: 0.681019 cumulative IPC: 0.621488 (Simulation time: 0 hr 50 min 28 sec) 
Heartbeat CPU 0 instructions: 98000001 cycles: 96716128 heartbeat IPC: 0.687429 cumulative IPC: 0.622733 (Simulation time: 0 hr 51 min 0 sec) 
Heartbeat CPU 0 instructions: 99000000 cycles: 98079465 heartbeat IPC: 0.733494 cumulative IPC: 0.624658 (Simulation time: 0 hr 51 min 33 sec) 
Heartbeat CPU 0 instructions: 100000000 cycles: 99485927 heartbeat IPC: 0.711004 cumulative IPC: 0.626179 (Simulation time: 0 hr 52 min 5 sec) 
Heartbeat CPU 0 instructions: 101000000 cycles: 100920788 heartbeat IPC: 0.696932 cumulative IPC: 0.627428 (Simulation time: 0 hr 52 min 38 sec) 
Heartbeat CPU 0 instructions: 102000000 cycles: 102395146 heartbeat IPC: 0.678261 cumulative IPC: 0.628333 (Simulation time: 0 hr 53 min 13 sec) 
Heartbeat CPU 0 instructions: 103000001 cycles: 103877680 heartbeat IPC: 0.674521 cumulative IPC: 0.629146 (Simulation time: 0 hr 53 min 46 sec) 
Heartbeat CPU 0 instructions: 104000000 cycles: 105308890 heartbeat IPC: 0.698709 cumulative IPC: 0.630308 (Simulation time: 0 hr 54 min 18 sec) 
Heartbeat CPU 0 instructions: 105000001 cycles: 106756731 heartbeat IPC: 0.690684 cumulative IPC: 0.631312 (Simulation time: 0 hr 54 min 50 sec) 
Heartbeat CPU 0 instructions: 106000000 cycles: 108131581 heartbeat IPC: 0.727351 cumulative IPC: 0.632804 (Simulation time: 0 hr 55 min 20 sec) 
Heartbeat CPU 0 instructions: 107000000 cycles: 109551010 heartbeat IPC: 0.704509 cumulative IPC: 0.633936 (Simulation time: 0 hr 55 min 53 sec) 
Heartbeat CPU 0 instructions: 108000000 cycles: 110959869 heartbeat IPC: 0.709794 cumulative IPC: 0.635106 (Simulation time: 0 hr 56 min 28 sec) 
Heartbeat CPU 0 instructions: 109000003 cycles: 112389048 heartbeat IPC: 0.699705 cumulative IPC: 0.636101 (Simulation time: 0 hr 57 min 0 sec) 
Heartbeat CPU 0 instructions: 110000001 cycles: 113841149 heartbeat IPC: 0.688656 cumulative IPC: 0.636911 (Simulation time: 0 hr 57 min 34 sec) 
Heartbeat CPU 0 instructions: 111000003 cycles: 115276097 heartbeat IPC: 0.696891 cumulative IPC: 0.637811 (Simulation time: 0 hr 58 min 6 sec) 
Heartbeat CPU 0 instructions: 112000000 cycles: 116717522 heartbeat IPC: 0.693756 cumulative IPC: 0.638642 (Simulation time: 0 hr 58 min 38 sec) 
Heartbeat CPU 0 instructions: 113000001 cycles: 118117363 heartbeat IPC: 0.714368 cumulative IPC: 0.639718 (Simulation time: 0 hr 59 min 10 sec) 
Heartbeat CPU 0 instructions: 114000001 cycles: 119623455 heartbeat IPC: 0.66397 cumulative IPC: 0.640084 (Simulation time: 0 hr 59 min 45 sec) 
Heartbeat CPU 0 instructions: 115000000 cycles: 121045281 heartbeat IPC: 0.70332 cumulative IPC: 0.64097 (Simulation time: 1 hr 0 min 17 sec) 
Heartbeat CPU 0 instructions: 116000000 cycles: 122501942 heartbeat IPC: 0.686502 cumulative IPC: 0.641615 (Simulation time: 1 hr 0 min 49 sec) 
Heartbeat CPU 0 instructions: 117000000 cycles: 123995216 heartbeat IPC: 0.669669 cumulative IPC: 0.642017 (Simulation time: 1 hr 1 min 23 sec) 
Heartbeat CPU 0 instructions: 118000002 cycles: 125419571 heartbeat IPC: 0.702074 cumulative IPC: 0.642825 (Simulation time: 1 hr 1 min 55 sec) 
Heartbeat CPU 0 instructions: 119000002 cycles: 126795678 heartbeat IPC: 0.726688 cumulative IPC: 0.643902 (Simulation time: 1 hr 2 min 28 sec) 
Heartbeat CPU 0 instructions: 120000000 cycles: 128354706 heartbeat IPC: 0.641424 cumulative IPC: 0.643867 (Simulation time: 1 hr 3 min 2 sec) 
Heartbeat CPU 0 instructions: 121000002 cycles: 129889743 heartbeat IPC: 0.651451 cumulative IPC: 0.643972 (Simulation time: 1 hr 3 min 35 sec) 
Heartbeat CPU 0 instructions: 122000002 cycles: 131355938 heartbeat IPC: 0.682038 cumulative IPC: 0.644472 (Simulation time: 1 hr 4 min 8 sec) 
Heartbeat CPU 0 instructions: 123000002 cycles: 132822623 heartbeat IPC: 0.68181 cumulative IPC: 0.644956 (Simulation time: 1 hr 4 min 40 sec) 
Heartbeat CPU 0 instructions: 124000000 cycles: 134327473 heartbeat IPC: 0.664517 cumulative IPC: 0.645212 (Simulation time: 1 hr 5 min 13 sec) 
Heartbeat CPU 0 instructions: 125000000 cycles: 135761721 heartbeat IPC: 0.69723 cumulative IPC: 0.645855 (Simulation time: 1 hr 5 min 44 sec) 
Heartbeat CPU 0 instructions: 126000002 cycles: 137252910 heartbeat IPC: 0.670607 cumulative IPC: 0.646169 (Simulation time: 1 hr 6 min 16 sec) 
Heartbeat CPU 0 instructions: 127000000 cycles: 138895145 heartbeat IPC: 0.608925 cumulative IPC: 0.645656 (Simulation time: 1 hr 6 min 46 sec) 
Heartbeat CPU 0 instructions: 128000000 cycles: 140225098 heartbeat IPC: 0.751906 cumulative IPC: 0.646828 (Simulation time: 1 hr 7 min 14 sec) 
Heartbeat CPU 0 instructions: 129000000 cycles: 141629964 heartbeat IPC: 0.711812 cumulative IPC: 0.647576 (Simulation time: 1 hr 7 min 44 sec) 
Heartbeat CPU 0 instructions: 130000000 cycles: 143254677 heartbeat IPC: 0.615493 cumulative IPC: 0.647154 (Simulation time: 1 hr 8 min 14 sec) 
Heartbeat CPU 0 instructions: 131000000 cycles: 144701136 heartbeat IPC: 0.691343 cumulative IPC: 0.647665 (Simulation time: 1 hr 8 min 43 sec) 
Heartbeat CPU 0 instructions: 132000000 cycles: 146188967 heartbeat IPC: 0.672119 cumulative IPC: 0.647953 (Simulation time: 1 hr 9 min 11 sec) 
Heartbeat CPU 0 instructions: 133000001 cycles: 147862854 heartbeat IPC: 0.597412 cumulative IPC: 0.647293 (Simulation time: 1 hr 9 min 44 sec) 
Heartbeat CPU 0 instructions: 134000000 cycles: 149262824 heartbeat IPC: 0.7143 cumulative IPC: 0.648017 (Simulation time: 1 hr 10 min 13 sec) 
Heartbeat CPU 0 instructions: 135000003 cycles: 150743739 heartbeat IPC: 0.67526 cumulative IPC: 0.648324 (Simulation time: 1 hr 10 min 41 sec) 
Heartbeat CPU 0 instructions: 136000000 cycles: 152464141 heartbeat IPC: 0.581258 cumulative IPC: 0.647456 (Simulation time: 1 hr 11 min 10 sec) 
Heartbeat CPU 0 instructions: 137000000 cycles: 153859692 heartbeat IPC: 0.716563 cumulative IPC: 0.648174 (Simulation time: 1 hr 11 min 38 sec) 
Heartbeat CPU 0 instructions: 138000003 cycles: 155266553 heartbeat IPC: 0.710804 cumulative IPC: 0.648824 (Simulation time: 1 hr 12 min 7 sec) 
Heartbeat CPU 0 instructions: 139000000 cycles: 156935464 heartbeat IPC: 0.599191 cumulative IPC: 0.648221 (Simulation time: 1 hr 12 min 37 sec) 
Heartbeat CPU 0 instructions: 140000000 cycles: 158381154 heartbeat IPC: 0.691711 cumulative IPC: 0.648674 (Simulation time: 1 hr 13 min 6 sec) 
Heartbeat CPU 0 instructions: 141000001 cycles: 159874739 heartbeat IPC: 0.669531 cumulative IPC: 0.648896 (Simulation time: 1 hr 13 min 33 sec) 
Heartbeat CPU 0 instructions: 142000003 cycles: 161612948 heartbeat IPC: 0.575306 cumulative IPC: 0.647995 (Simulation time: 1 hr 14 min 7 sec) 
Heartbeat CPU 0 instructions: 143000000 cycles: 163047658 heartbeat IPC: 0.697003 cumulative IPC: 0.648485 (Simulation time: 1 hr 14 min 32 sec) 
Heartbeat CPU 0 instructions: 144000000 cycles: 164444880 heartbeat IPC: 0.715706 cumulative IPC: 0.649134 (Simulation time: 1 hr 14 min 59 sec) 
Heartbeat CPU 0 instructions: 145000000 cycles: 166140095 heartbeat IPC: 0.589896 cumulative IPC: 0.648448 (Simulation time: 1 hr 15 min 27 sec) 
Heartbeat CPU 0 instructions: 146000003 cycles: 167557833 heartbeat IPC: 0.705351 cumulative IPC: 0.648994 (Simulation time: 1 hr 15 min 52 sec) 
Heartbeat CPU 0 instructions: 147000000 cycles: 169003043 heartbeat IPC: 0.691939 cumulative IPC: 0.649409 (Simulation time: 1 hr 16 min 16 sec) 
Heartbeat CPU 0 instructions: 148000000 cycles: 170684083 heartbeat IPC: 0.59487 cumulative IPC: 0.648802 (Simulation time: 1 hr 16 min 43 sec) 
Heartbeat CPU 0 instructions: 149000001 cycles: 172110918 heartbeat IPC: 0.700853 cumulative IPC: 0.649289 (Simulation time: 1 hr 17 min 8 sec) 
Heartbeat CPU 0 instructions: 150000000 cycles: 173525303 heartbeat IPC: 0.70702 cumulative IPC: 0.64982 (Simulation time: 1 hr 17 min 34 sec) 
Finished CPU 0 instructions: 100000003 cycles: 153888806 cummulative IPC: 0.64982 (Simulation time: 1 hr 17 min 34 sec) 

ChampSim completed all CPUs

Region of Interest Statistics

CPU 0 cummulative IPC: 0.64982 instructions: 100000003 cycles: 153888806
LLC TOTAL     ACCESS:    5972196  HIT:    1900803  MISS:    4071393
LLC LOAD      ACCESS:     433056  HIT:      15653  MISS:     417403
LLC RFO       ACCESS:    2551814  HIT:     677375  MISS:    1874439
LLC PREFETCH  ACCESS:     435202  HIT:      20682  MISS:     414520
LLC WRITEBACK ACCESS:    2552124  HIT:    1187093  MISS:    1365031
OPTgen accesses: 66965
OPTgen hits: 21881
OPTgen hit rate: 32.6753


