
*** ChampSim Multicore Out-of-Order Simulator ***

Warmup Instructions: 50000000
Simulation Instructions: 100000000
Configuration: 2
Number of CPUs: 1
LLC sets: 2048
LLC ways: 16
Off-chip DRAM Channels: 1 Width: 64-bit Data Rate: 1600 MT/s

CPU 0 runs /datasets/cs240c-wi22-a00-public/data/Assignment2-gz/lbm_94B.trace.gz
CPU 0 L1D next line prefetcher
CPU 0 L2C IP-based stride prefetcher
Initialize Hawkeye state
Heartbeat CPU 0 instructions: 1000000 cycles: 422068 heartbeat IPC: 2.36929 cumulative IPC: 2.36929 (Simulation time: 0 hr 0 min 36 sec) 
Heartbeat CPU 0 instructions: 2000000 cycles: 812399 heartbeat IPC: 2.56193 cumulative IPC: 2.46184 (Simulation time: 0 hr 1 min 6 sec) 
Heartbeat CPU 0 instructions: 3000000 cycles: 1211540 heartbeat IPC: 2.50538 cumulative IPC: 2.47619 (Simulation time: 0 hr 1 min 37 sec) 
Heartbeat CPU 0 instructions: 4000000 cycles: 1631532 heartbeat IPC: 2.381 cumulative IPC: 2.45168 (Simulation time: 0 hr 2 min 8 sec) 
Heartbeat CPU 0 instructions: 5000001 cycles: 2021795 heartbeat IPC: 2.56238 cumulative IPC: 2.47305 (Simulation time: 0 hr 2 min 38 sec) 
Heartbeat CPU 0 instructions: 6000000 cycles: 2422482 heartbeat IPC: 2.49571 cumulative IPC: 2.4768 (Simulation time: 0 hr 3 min 8 sec) 
Heartbeat CPU 0 instructions: 7000001 cycles: 2840610 heartbeat IPC: 2.39161 cumulative IPC: 2.46426 (Simulation time: 0 hr 3 min 40 sec) 
Heartbeat CPU 0 instructions: 8000000 cycles: 3230818 heartbeat IPC: 2.56273 cumulative IPC: 2.47615 (Simulation time: 0 hr 4 min 8 sec) 
Heartbeat CPU 0 instructions: 9000003 cycles: 3631851 heartbeat IPC: 2.49357 cumulative IPC: 2.47808 (Simulation time: 0 hr 4 min 38 sec) 
Heartbeat CPU 0 instructions: 10000000 cycles: 4048422 heartbeat IPC: 2.40054 cumulative IPC: 2.4701 (Simulation time: 0 hr 5 min 9 sec) 
Heartbeat CPU 0 instructions: 11000003 cycles: 4438607 heartbeat IPC: 2.56289 cumulative IPC: 2.47826 (Simulation time: 0 hr 5 min 36 sec) 
Heartbeat CPU 0 instructions: 12000000 cycles: 4839161 heartbeat IPC: 2.49653 cumulative IPC: 2.47977 (Simulation time: 0 hr 6 min 3 sec) 
Heartbeat CPU 0 instructions: 13000000 cycles: 5254551 heartbeat IPC: 2.40738 cumulative IPC: 2.47405 (Simulation time: 0 hr 6 min 33 sec) 
Heartbeat CPU 0 instructions: 14000003 cycles: 5644806 heartbeat IPC: 2.56243 cumulative IPC: 2.48016 (Simulation time: 0 hr 7 min 2 sec) 
Heartbeat CPU 0 instructions: 15000001 cycles: 6045185 heartbeat IPC: 2.49763 cumulative IPC: 2.48131 (Simulation time: 0 hr 7 min 31 sec) 
Heartbeat CPU 0 instructions: 16000000 cycles: 6459572 heartbeat IPC: 2.4132 cumulative IPC: 2.47694 (Simulation time: 0 hr 8 min 1 sec) 
Heartbeat CPU 0 instructions: 17000001 cycles: 6849822 heartbeat IPC: 2.56246 cumulative IPC: 2.48182 (Simulation time: 0 hr 8 min 30 sec) 
Heartbeat CPU 0 instructions: 18000001 cycles: 7248681 heartbeat IPC: 2.50715 cumulative IPC: 2.48321 (Simulation time: 0 hr 9 min 0 sec) 
Heartbeat CPU 0 instructions: 19000000 cycles: 7663227 heartbeat IPC: 2.41228 cumulative IPC: 2.47937 (Simulation time: 0 hr 9 min 30 sec) 
Heartbeat CPU 0 instructions: 20000000 cycles: 8053503 heartbeat IPC: 2.56229 cumulative IPC: 2.48339 (Simulation time: 0 hr 10 min 0 sec) 
Heartbeat CPU 0 instructions: 21000003 cycles: 8451593 heartbeat IPC: 2.512 cumulative IPC: 2.48474 (Simulation time: 0 hr 10 min 28 sec) 
Heartbeat CPU 0 instructions: 22000000 cycles: 8865782 heartbeat IPC: 2.41435 cumulative IPC: 2.48145 (Simulation time: 0 hr 10 min 57 sec) 
Heartbeat CPU 0 instructions: 23000000 cycles: 9255960 heartbeat IPC: 2.56293 cumulative IPC: 2.48489 (Simulation time: 0 hr 11 min 26 sec) 
Heartbeat CPU 0 instructions: 24000000 cycles: 9652033 heartbeat IPC: 2.52479 cumulative IPC: 2.48652 (Simulation time: 0 hr 11 min 56 sec) 
Heartbeat CPU 0 instructions: 25000000 cycles: 10065703 heartbeat IPC: 2.41739 cumulative IPC: 2.48368 (Simulation time: 0 hr 12 min 27 sec) 
Heartbeat CPU 0 instructions: 26000003 cycles: 10455969 heartbeat IPC: 2.56236 cumulative IPC: 2.48662 (Simulation time: 0 hr 12 min 58 sec) 
Heartbeat CPU 0 instructions: 27000002 cycles: 10851028 heartbeat IPC: 2.53127 cumulative IPC: 2.48824 (Simulation time: 0 hr 13 min 28 sec) 
Heartbeat CPU 0 instructions: 28000000 cycles: 11264471 heartbeat IPC: 2.41871 cumulative IPC: 2.48569 (Simulation time: 0 hr 13 min 59 sec) 
Heartbeat CPU 0 instructions: 29000000 cycles: 11654651 heartbeat IPC: 2.56292 cumulative IPC: 2.48828 (Simulation time: 0 hr 14 min 32 sec) 
Heartbeat CPU 0 instructions: 30000000 cycles: 12049691 heartbeat IPC: 2.53139 cumulative IPC: 2.48969 (Simulation time: 0 hr 15 min 3 sec) 
Heartbeat CPU 0 instructions: 31000003 cycles: 12460619 heartbeat IPC: 2.43352 cumulative IPC: 2.48784 (Simulation time: 0 hr 15 min 34 sec) 
Heartbeat CPU 0 instructions: 32000000 cycles: 12850896 heartbeat IPC: 2.56227 cumulative IPC: 2.4901 (Simulation time: 0 hr 16 min 2 sec) 
Heartbeat CPU 0 instructions: 33000002 cycles: 13246016 heartbeat IPC: 2.53088 cumulative IPC: 2.49132 (Simulation time: 0 hr 16 min 31 sec) 
Heartbeat CPU 0 instructions: 34000003 cycles: 13653550 heartbeat IPC: 2.45379 cumulative IPC: 2.4902 (Simulation time: 0 hr 17 min 0 sec) 
Heartbeat CPU 0 instructions: 35000002 cycles: 14045192 heartbeat IPC: 2.55335 cumulative IPC: 2.49196 (Simulation time: 0 hr 17 min 30 sec) 
Heartbeat CPU 0 instructions: 36000000 cycles: 14440222 heartbeat IPC: 2.53145 cumulative IPC: 2.49304 (Simulation time: 0 hr 17 min 58 sec) 
Heartbeat CPU 0 instructions: 37000003 cycles: 14842446 heartbeat IPC: 2.48618 cumulative IPC: 2.49285 (Simulation time: 0 hr 18 min 27 sec) 
Heartbeat CPU 0 instructions: 38000002 cycles: 15236991 heartbeat IPC: 2.53456 cumulative IPC: 2.49393 (Simulation time: 0 hr 18 min 56 sec) 
Heartbeat CPU 0 instructions: 39000000 cycles: 15627218 heartbeat IPC: 2.56261 cumulative IPC: 2.49565 (Simulation time: 0 hr 19 min 27 sec) 
Heartbeat CPU 0 instructions: 40000000 cycles: 16027539 heartbeat IPC: 2.498 cumulative IPC: 2.4957 (Simulation time: 0 hr 19 min 57 sec) 
Heartbeat CPU 0 instructions: 41000003 cycles: 16426219 heartbeat IPC: 2.50828 cumulative IPC: 2.49601 (Simulation time: 0 hr 20 min 27 sec) 
Heartbeat CPU 0 instructions: 42000003 cycles: 16816465 heartbeat IPC: 2.56249 cumulative IPC: 2.49755 (Simulation time: 0 hr 20 min 56 sec) 
Heartbeat CPU 0 instructions: 43000003 cycles: 17211730 heartbeat IPC: 2.52995 cumulative IPC: 2.4983 (Simulation time: 0 hr 21 min 28 sec) 
Heartbeat CPU 0 instructions: 44000000 cycles: 17612690 heartbeat IPC: 2.49401 cumulative IPC: 2.4982 (Simulation time: 0 hr 21 min 57 sec) 
Heartbeat CPU 0 instructions: 45000002 cycles: 18002931 heartbeat IPC: 2.56252 cumulative IPC: 2.49959 (Simulation time: 0 hr 22 min 26 sec) 
Heartbeat CPU 0 instructions: 46000001 cycles: 18398071 heartbeat IPC: 2.53075 cumulative IPC: 2.50026 (Simulation time: 0 hr 22 min 56 sec) 
Heartbeat CPU 0 instructions: 47000003 cycles: 18796474 heartbeat IPC: 2.51003 cumulative IPC: 2.50047 (Simulation time: 0 hr 23 min 27 sec) 
Heartbeat CPU 0 instructions: 48000000 cycles: 19186620 heartbeat IPC: 2.56314 cumulative IPC: 2.50174 (Simulation time: 0 hr 23 min 57 sec) 
Heartbeat CPU 0 instructions: 49000000 cycles: 19581702 heartbeat IPC: 2.53112 cumulative IPC: 2.50234 (Simulation time: 0 hr 24 min 26 sec) 
Heartbeat CPU 0 instructions: 50000003 cycles: 19976010 heartbeat IPC: 2.5361 cumulative IPC: 2.503 (Simulation time: 0 hr 24 min 58 sec) 

Warmup complete CPU 0 instructions: 50000003 cycles: 19976010 (Simulation time: 0 hr 24 min 58 sec) 

Heartbeat CPU 0 instructions: 51000003 cycles: 21366321 heartbeat IPC: 0.719264 cumulative IPC: 0.719264 (Simulation time: 0 hr 25 min 31 sec) 
Heartbeat CPU 0 instructions: 52000000 cycles: 22825264 heartbeat IPC: 0.685426 cumulative IPC: 0.701937 (Simulation time: 0 hr 26 min 5 sec) 
Heartbeat CPU 0 instructions: 53000001 cycles: 24357937 heartbeat IPC: 0.652456 cumulative IPC: 0.68463 (Simulation time: 0 hr 26 min 40 sec) 
Heartbeat CPU 0 instructions: 54000000 cycles: 25796925 heartbeat IPC: 0.694932 cumulative IPC: 0.687177 (Simulation time: 0 hr 27 min 13 sec) 
Heartbeat CPU 0 instructions: 55000003 cycles: 27155843 heartbeat IPC: 0.735882 cumulative IPC: 0.696395 (Simulation time: 0 hr 27 min 47 sec) 
Heartbeat CPU 0 instructions: 56000000 cycles: 28543275 heartbeat IPC: 0.720754 cumulative IPC: 0.70034 (Simulation time: 0 hr 28 min 24 sec) 
Heartbeat CPU 0 instructions: 57000003 cycles: 30012327 heartbeat IPC: 0.680713 cumulative IPC: 0.697467 (Simulation time: 0 hr 29 min 1 sec) 
Heartbeat CPU 0 instructions: 58000003 cycles: 31509069 heartbeat IPC: 0.668118 cumulative IPC: 0.693658 (Simulation time: 0 hr 29 min 39 sec) 
Heartbeat CPU 0 instructions: 59000002 cycles: 32989608 heartbeat IPC: 0.675429 cumulative IPC: 0.691584 (Simulation time: 0 hr 30 min 14 sec) 
Heartbeat CPU 0 instructions: 60000000 cycles: 34368425 heartbeat IPC: 0.725258 cumulative IPC: 0.69481 (Simulation time: 0 hr 30 min 47 sec) 
Heartbeat CPU 0 instructions: 61000000 cycles: 35740052 heartbeat IPC: 0.729061 cumulative IPC: 0.69779 (Simulation time: 0 hr 31 min 25 sec) 
Heartbeat CPU 0 instructions: 62000000 cycles: 37145760 heartbeat IPC: 0.711385 cumulative IPC: 0.698903 (Simulation time: 0 hr 32 min 0 sec) 
Heartbeat CPU 0 instructions: 63000003 cycles: 38606916 heartbeat IPC: 0.684392 cumulative IPC: 0.697765 (Simulation time: 0 hr 32 min 37 sec) 
Heartbeat CPU 0 instructions: 64000000 cycles: 40041983 heartbeat IPC: 0.696829 cumulative IPC: 0.697698 (Simulation time: 0 hr 33 min 14 sec) 
Heartbeat CPU 0 instructions: 65000003 cycles: 41509126 heartbeat IPC: 0.681599 cumulative IPC: 0.696601 (Simulation time: 0 hr 33 min 52 sec) 
Heartbeat CPU 0 instructions: 66000002 cycles: 42976293 heartbeat IPC: 0.681585 cumulative IPC: 0.695644 (Simulation time: 0 hr 34 min 29 sec) 
Heartbeat CPU 0 instructions: 67000002 cycles: 44419835 heartbeat IPC: 0.69274 cumulative IPC: 0.695472 (Simulation time: 0 hr 35 min 3 sec) 
Heartbeat CPU 0 instructions: 68000000 cycles: 45815714 heartbeat IPC: 0.716393 cumulative IPC: 0.696602 (Simulation time: 0 hr 35 min 36 sec) 
Heartbeat CPU 0 instructions: 69000000 cycles: 47225814 heartbeat IPC: 0.70917 cumulative IPC: 0.697253 (Simulation time: 0 hr 36 min 14 sec) 
Heartbeat CPU 0 instructions: 70000001 cycles: 48604246 heartbeat IPC: 0.725463 cumulative IPC: 0.698611 (Simulation time: 0 hr 36 min 50 sec) 
Heartbeat CPU 0 instructions: 71000001 cycles: 50020987 heartbeat IPC: 0.705845 cumulative IPC: 0.698952 (Simulation time: 0 hr 37 min 23 sec) 
Heartbeat CPU 0 instructions: 72000000 cycles: 51460014 heartbeat IPC: 0.694913 cumulative IPC: 0.698767 (Simulation time: 0 hr 37 min 55 sec) 
Heartbeat CPU 0 instructions: 73000001 cycles: 52876997 heartbeat IPC: 0.705725 cumulative IPC: 0.699067 (Simulation time: 0 hr 38 min 29 sec) 
Heartbeat CPU 0 instructions: 74000001 cycles: 54274055 heartbeat IPC: 0.71579 cumulative IPC: 0.699748 (Simulation time: 0 hr 39 min 8 sec) 
Heartbeat CPU 0 instructions: 75000000 cycles: 55706972 heartbeat IPC: 0.697876 cumulative IPC: 0.699673 (Simulation time: 0 hr 39 min 43 sec) 
Heartbeat CPU 0 instructions: 76000000 cycles: 57200500 heartbeat IPC: 0.669556 cumulative IPC: 0.698465 (Simulation time: 0 hr 40 min 18 sec) 
Heartbeat CPU 0 instructions: 77000002 cycles: 58619716 heartbeat IPC: 0.704616 cumulative IPC: 0.698691 (Simulation time: 0 hr 40 min 56 sec) 
Heartbeat CPU 0 instructions: 78000003 cycles: 60024034 heartbeat IPC: 0.71209 cumulative IPC: 0.699161 (Simulation time: 0 hr 41 min 27 sec) 
Heartbeat CPU 0 instructions: 79000000 cycles: 61468397 heartbeat IPC: 0.692345 cumulative IPC: 0.698923 (Simulation time: 0 hr 42 min 1 sec) 
Heartbeat CPU 0 instructions: 80000000 cycles: 62939145 heartbeat IPC: 0.679926 cumulative IPC: 0.698273 (Simulation time: 0 hr 42 min 35 sec) 
Heartbeat CPU 0 instructions: 81000000 cycles: 64373103 heartbeat IPC: 0.69737 cumulative IPC: 0.698244 (Simulation time: 0 hr 43 min 8 sec) 
Heartbeat CPU 0 instructions: 82000000 cycles: 65813431 heartbeat IPC: 0.694286 cumulative IPC: 0.698119 (Simulation time: 0 hr 43 min 45 sec) 
Heartbeat CPU 0 instructions: 83000003 cycles: 67285253 heartbeat IPC: 0.679432 cumulative IPC: 0.697538 (Simulation time: 0 hr 44 min 22 sec) 
Heartbeat CPU 0 instructions: 84000000 cycles: 68690911 heartbeat IPC: 0.711408 cumulative IPC: 0.697938 (Simulation time: 0 hr 45 min 1 sec) 
Heartbeat CPU 0 instructions: 85000001 cycles: 70070453 heartbeat IPC: 0.724879 cumulative IPC: 0.69868 (Simulation time: 0 hr 45 min 41 sec) 
Heartbeat CPU 0 instructions: 86000003 cycles: 71524067 heartbeat IPC: 0.687942 cumulative IPC: 0.698377 (Simulation time: 0 hr 46 min 15 sec) 
Heartbeat CPU 0 instructions: 87000000 cycles: 72941029 heartbeat IPC: 0.705733 cumulative IPC: 0.698574 (Simulation time: 0 hr 46 min 49 sec) 
Heartbeat CPU 0 instructions: 88000000 cycles: 74387663 heartbeat IPC: 0.69126 cumulative IPC: 0.69838 (Simulation time: 0 hr 47 min 22 sec) 
Heartbeat CPU 0 instructions: 89000003 cycles: 75816319 heartbeat IPC: 0.699961 cumulative IPC: 0.69842 (Simulation time: 0 hr 48 min 1 sec) 
Heartbeat CPU 0 instructions: 90000003 cycles: 77281162 heartbeat IPC: 0.682667 cumulative IPC: 0.698018 (Simulation time: 0 hr 48 min 36 sec) 
Heartbeat CPU 0 instructions: 91000002 cycles: 78716729 heartbeat IPC: 0.696588 cumulative IPC: 0.697983 (Simulation time: 0 hr 49 min 10 sec) 
Heartbeat CPU 0 instructions: 92000000 cycles: 80125651 heartbeat IPC: 0.709761 cumulative IPC: 0.698258 (Simulation time: 0 hr 49 min 44 sec) 
Heartbeat CPU 0 instructions: 93000003 cycles: 81585610 heartbeat IPC: 0.684953 cumulative IPC: 0.697943 (Simulation time: 0 hr 50 min 19 sec) 
Heartbeat CPU 0 instructions: 94000001 cycles: 82984048 heartbeat IPC: 0.715082 cumulative IPC: 0.698324 (Simulation time: 0 hr 50 min 54 sec) 
Heartbeat CPU 0 instructions: 95000001 cycles: 84396236 heartbeat IPC: 0.708121 cumulative IPC: 0.698538 (Simulation time: 0 hr 51 min 30 sec) 
Heartbeat CPU 0 instructions: 96000000 cycles: 85804437 heartbeat IPC: 0.710125 cumulative IPC: 0.698786 (Simulation time: 0 hr 52 min 2 sec) 
Heartbeat CPU 0 instructions: 97000000 cycles: 87268542 heartbeat IPC: 0.683011 cumulative IPC: 0.698443 (Simulation time: 0 hr 52 min 38 sec) 
Heartbeat CPU 0 instructions: 98000002 cycles: 88650697 heartbeat IPC: 0.723509 cumulative IPC: 0.698947 (Simulation time: 0 hr 53 min 11 sec) 
Heartbeat CPU 0 instructions: 99000001 cycles: 90010765 heartbeat IPC: 0.735257 cumulative IPC: 0.699653 (Simulation time: 0 hr 53 min 47 sec) 
Heartbeat CPU 0 instructions: 100000000 cycles: 91419576 heartbeat IPC: 0.709818 cumulative IPC: 0.699853 (Simulation time: 0 hr 54 min 21 sec) 
Heartbeat CPU 0 instructions: 101000003 cycles: 92807474 heartbeat IPC: 0.720516 cumulative IPC: 0.700247 (Simulation time: 0 hr 54 min 58 sec) 
Heartbeat CPU 0 instructions: 102000002 cycles: 94213799 heartbeat IPC: 0.711073 cumulative IPC: 0.700452 (Simulation time: 0 hr 55 min 37 sec) 
Heartbeat CPU 0 instructions: 103000000 cycles: 95665462 heartbeat IPC: 0.688864 cumulative IPC: 0.70023 (Simulation time: 0 hr 56 min 12 sec) 
Heartbeat CPU 0 instructions: 104000000 cycles: 97090070 heartbeat IPC: 0.701948 cumulative IPC: 0.700261 (Simulation time: 0 hr 56 min 49 sec) 
Heartbeat CPU 0 instructions: 105000002 cycles: 98501065 heartbeat IPC: 0.708721 cumulative IPC: 0.700413 (Simulation time: 0 hr 57 min 25 sec) 
Heartbeat CPU 0 instructions: 106000001 cycles: 99863422 heartbeat IPC: 0.734021 cumulative IPC: 0.700987 (Simulation time: 0 hr 58 min 1 sec) 
Heartbeat CPU 0 instructions: 107000000 cycles: 101346977 heartbeat IPC: 0.674056 cumulative IPC: 0.700495 (Simulation time: 0 hr 58 min 36 sec) 
Heartbeat CPU 0 instructions: 108000000 cycles: 102809297 heartbeat IPC: 0.683845 cumulative IPC: 0.700202 (Simulation time: 0 hr 59 min 12 sec) 
Heartbeat CPU 0 instructions: 109000002 cycles: 104262909 heartbeat IPC: 0.687943 cumulative IPC: 0.69999 (Simulation time: 0 hr 59 min 45 sec) 
Heartbeat CPU 0 instructions: 110000000 cycles: 105728481 heartbeat IPC: 0.682326 cumulative IPC: 0.699688 (Simulation time: 1 hr 0 min 20 sec) 
Heartbeat CPU 0 instructions: 111000003 cycles: 107105310 heartbeat IPC: 0.726309 cumulative IPC: 0.700109 (Simulation time: 1 hr 0 min 55 sec) 
Heartbeat CPU 0 instructions: 112000000 cycles: 108497355 heartbeat IPC: 0.718365 cumulative IPC: 0.700396 (Simulation time: 1 hr 1 min 35 sec) 
Heartbeat CPU 0 instructions: 113000001 cycles: 109965289 heartbeat IPC: 0.68123 cumulative IPC: 0.700083 (Simulation time: 1 hr 2 min 8 sec) 
Heartbeat CPU 0 instructions: 114000003 cycles: 111401468 heartbeat IPC: 0.696293 cumulative IPC: 0.700024 (Simulation time: 1 hr 2 min 41 sec) 
Heartbeat CPU 0 instructions: 115000003 cycles: 112861123 heartbeat IPC: 0.685093 cumulative IPC: 0.699789 (Simulation time: 1 hr 3 min 17 sec) 
Heartbeat CPU 0 instructions: 116000000 cycles: 114263571 heartbeat IPC: 0.713037 cumulative IPC: 0.699986 (Simulation time: 1 hr 3 min 51 sec) 
Heartbeat CPU 0 instructions: 117000003 cycles: 115730904 heartbeat IPC: 0.681511 cumulative IPC: 0.699703 (Simulation time: 1 hr 4 min 26 sec) 
Heartbeat CPU 0 instructions: 118000003 cycles: 117104768 heartbeat IPC: 0.727874 cumulative IPC: 0.700102 (Simulation time: 1 hr 5 min 0 sec) 
Heartbeat CPU 0 instructions: 119000000 cycles: 118484891 heartbeat IPC: 0.724571 cumulative IPC: 0.700444 (Simulation time: 1 hr 5 min 33 sec) 
Heartbeat CPU 0 instructions: 120000000 cycles: 119933205 heartbeat IPC: 0.690458 cumulative IPC: 0.7003 (Simulation time: 1 hr 6 min 7 sec) 
Heartbeat CPU 0 instructions: 121000002 cycles: 121292579 heartbeat IPC: 0.735634 cumulative IPC: 0.700774 (Simulation time: 1 hr 6 min 43 sec) 
Heartbeat CPU 0 instructions: 122000003 cycles: 122690996 heartbeat IPC: 0.715095 cumulative IPC: 0.700969 (Simulation time: 1 hr 7 min 17 sec) 
Heartbeat CPU 0 instructions: 123000002 cycles: 124108933 heartbeat IPC: 0.705249 cumulative IPC: 0.701027 (Simulation time: 1 hr 7 min 50 sec) 
Heartbeat CPU 0 instructions: 124000000 cycles: 125575394 heartbeat IPC: 0.681912 cumulative IPC: 0.700762 (Simulation time: 1 hr 8 min 22 sec) 
Heartbeat CPU 0 instructions: 125000001 cycles: 127010029 heartbeat IPC: 0.697042 cumulative IPC: 0.700712 (Simulation time: 1 hr 8 min 59 sec) 
Heartbeat CPU 0 instructions: 126000003 cycles: 128445416 heartbeat IPC: 0.696678 cumulative IPC: 0.700658 (Simulation time: 1 hr 9 min 32 sec) 
Heartbeat CPU 0 instructions: 127000002 cycles: 129935095 heartbeat IPC: 0.671285 cumulative IPC: 0.70026 (Simulation time: 1 hr 10 min 7 sec) 
Heartbeat CPU 0 instructions: 128000000 cycles: 131340704 heartbeat IPC: 0.711434 cumulative IPC: 0.700401 (Simulation time: 1 hr 10 min 38 sec) 
Heartbeat CPU 0 instructions: 129000003 cycles: 132730991 heartbeat IPC: 0.719278 cumulative IPC: 0.700634 (Simulation time: 1 hr 11 min 10 sec) 
Heartbeat CPU 0 instructions: 130000000 cycles: 134134528 heartbeat IPC: 0.712484 cumulative IPC: 0.70078 (Simulation time: 1 hr 11 min 39 sec) 
Heartbeat CPU 0 instructions: 131000001 cycles: 135527875 heartbeat IPC: 0.717697 cumulative IPC: 0.700984 (Simulation time: 1 hr 12 min 8 sec) 
Heartbeat CPU 0 instructions: 132000000 cycles: 136944783 heartbeat IPC: 0.705761 cumulative IPC: 0.701042 (Simulation time: 1 hr 12 min 36 sec) 
Heartbeat CPU 0 instructions: 133000003 cycles: 138335908 heartbeat IPC: 0.718845 cumulative IPC: 0.701251 (Simulation time: 1 hr 13 min 4 sec) 
Heartbeat CPU 0 instructions: 134000001 cycles: 139799216 heartbeat IPC: 0.683382 cumulative IPC: 0.701033 (Simulation time: 1 hr 13 min 34 sec) 
Heartbeat CPU 0 instructions: 135000000 cycles: 141195302 heartbeat IPC: 0.716288 cumulative IPC: 0.701208 (Simulation time: 1 hr 14 min 4 sec) 
Heartbeat CPU 0 instructions: 136000000 cycles: 142629019 heartbeat IPC: 0.697488 cumulative IPC: 0.701165 (Simulation time: 1 hr 14 min 33 sec) 
Heartbeat CPU 0 instructions: 137000002 cycles: 144081751 heartbeat IPC: 0.68836 cumulative IPC: 0.701015 (Simulation time: 1 hr 15 min 1 sec) 
Heartbeat CPU 0 instructions: 138000001 cycles: 145472954 heartbeat IPC: 0.718802 cumulative IPC: 0.701212 (Simulation time: 1 hr 15 min 28 sec) 
Heartbeat CPU 0 instructions: 139000000 cycles: 146828171 heartbeat IPC: 0.737888 cumulative IPC: 0.701604 (Simulation time: 1 hr 15 min 54 sec) 
Heartbeat CPU 0 instructions: 140000000 cycles: 148238411 heartbeat IPC: 0.709099 cumulative IPC: 0.701687 (Simulation time: 1 hr 16 min 21 sec) 
Heartbeat CPU 0 instructions: 141000001 cycles: 149742364 heartbeat IPC: 0.664915 cumulative IPC: 0.70126 (Simulation time: 1 hr 16 min 46 sec) 
Heartbeat CPU 0 instructions: 142000003 cycles: 151159393 heartbeat IPC: 0.705703 cumulative IPC: 0.701308 (Simulation time: 1 hr 17 min 9 sec) 
Heartbeat CPU 0 instructions: 143000003 cycles: 152567824 heartbeat IPC: 0.71001 cumulative IPC: 0.701401 (Simulation time: 1 hr 17 min 34 sec) 
Heartbeat CPU 0 instructions: 144000000 cycles: 154003694 heartbeat IPC: 0.69644 cumulative IPC: 0.701348 (Simulation time: 1 hr 17 min 57 sec) 
Heartbeat CPU 0 instructions: 145000002 cycles: 155381529 heartbeat IPC: 0.725778 cumulative IPC: 0.701596 (Simulation time: 1 hr 18 min 21 sec) 
Heartbeat CPU 0 instructions: 146000000 cycles: 156753117 heartbeat IPC: 0.72908 cumulative IPC: 0.701872 (Simulation time: 1 hr 18 min 43 sec) 
Heartbeat CPU 0 instructions: 147000000 cycles: 158155370 heartbeat IPC: 0.713138 cumulative IPC: 0.701986 (Simulation time: 1 hr 19 min 5 sec) 
Heartbeat CPU 0 instructions: 148000000 cycles: 159570281 heartbeat IPC: 0.706758 cumulative IPC: 0.702035 (Simulation time: 1 hr 19 min 26 sec) 
Heartbeat CPU 0 instructions: 149000001 cycles: 161018636 heartbeat IPC: 0.690439 cumulative IPC: 0.701915 (Simulation time: 1 hr 19 min 46 sec) 
Heartbeat CPU 0 instructions: 150000003 cycles: 162434272 heartbeat IPC: 0.706398 cumulative IPC: 0.70196 (Simulation time: 1 hr 20 min 7 sec) 
Finished CPU 0 instructions: 100000000 cycles: 142458262 cummulative IPC: 0.70196 (Simulation time: 1 hr 20 min 7 sec) 

ChampSim completed all CPUs

Region of Interest Statistics

CPU 0 cummulative IPC: 0.70196 instructions: 100000000 cycles: 142458262
LLC TOTAL     ACCESS:    5315750  HIT:    1732250  MISS:    3583500
LLC LOAD      ACCESS:     373573  HIT:      15145  MISS:     358428
LLC RFO       ACCESS:    2270808  HIT:     618348  MISS:    1652460
LLC PREFETCH  ACCESS:     400617  HIT:      19270  MISS:     381347
LLC WRITEBACK ACCESS:    2270752  HIT:    1079487  MISS:    1191265
OPTgen accesses: 63527
OPTgen hits: 21213
OPTgen hit rate: 33.3921


