
*** ChampSim Multicore Out-of-Order Simulator ***

Warmup Instructions: 50000000
Simulation Instructions: 100000000
Configuration: 2
Number of CPUs: 1
LLC sets: 2048
LLC ways: 16
Off-chip DRAM Channels: 1 Width: 64-bit Data Rate: 1600 MT/s

CPU 0 runs /datasets/cs240c-wi22-a00-public/data/Assignment2-gz/sphinx3_883B.trace.gz
CPU 0 L1D next line prefetcher
CPU 0 L2C IP-based stride prefetcher
Initialize Hawkeye state
Heartbeat CPU 0 instructions: 1000003 cycles: 414365 heartbeat IPC: 2.41334 cumulative IPC: 2.41334 (Simulation time: 0 hr 0 min 37 sec) 
Heartbeat CPU 0 instructions: 2000000 cycles: 823889 heartbeat IPC: 2.44185 cumulative IPC: 2.42751 (Simulation time: 0 hr 1 min 10 sec) 
Heartbeat CPU 0 instructions: 3000003 cycles: 1298673 heartbeat IPC: 2.10623 cumulative IPC: 2.31005 (Simulation time: 0 hr 1 min 41 sec) 
Heartbeat CPU 0 instructions: 4000000 cycles: 1637563 heartbeat IPC: 2.9508 cumulative IPC: 2.44265 (Simulation time: 0 hr 2 min 12 sec) 
Heartbeat CPU 0 instructions: 5000000 cycles: 1992235 heartbeat IPC: 2.81951 cumulative IPC: 2.50974 (Simulation time: 0 hr 2 min 45 sec) 
Heartbeat CPU 0 instructions: 6000003 cycles: 2406681 heartbeat IPC: 2.41287 cumulative IPC: 2.49306 (Simulation time: 0 hr 3 min 19 sec) 
Heartbeat CPU 0 instructions: 7000002 cycles: 2815454 heartbeat IPC: 2.44634 cumulative IPC: 2.48628 (Simulation time: 0 hr 3 min 51 sec) 
Heartbeat CPU 0 instructions: 8000000 cycles: 3291289 heartbeat IPC: 2.10156 cumulative IPC: 2.43066 (Simulation time: 0 hr 4 min 19 sec) 
Heartbeat CPU 0 instructions: 9000001 cycles: 3630286 heartbeat IPC: 2.94988 cumulative IPC: 2.47914 (Simulation time: 0 hr 4 min 49 sec) 
Heartbeat CPU 0 instructions: 10000000 cycles: 3984379 heartbeat IPC: 2.82411 cumulative IPC: 2.5098 (Simulation time: 0 hr 5 min 20 sec) 
Heartbeat CPU 0 instructions: 11000000 cycles: 4398814 heartbeat IPC: 2.41292 cumulative IPC: 2.50067 (Simulation time: 0 hr 5 min 53 sec) 
Heartbeat CPU 0 instructions: 12000000 cycles: 4811686 heartbeat IPC: 2.42206 cumulative IPC: 2.49393 (Simulation time: 0 hr 6 min 22 sec) 
Heartbeat CPU 0 instructions: 13000001 cycles: 5277021 heartbeat IPC: 2.14899 cumulative IPC: 2.46351 (Simulation time: 0 hr 6 min 53 sec) 
Heartbeat CPU 0 instructions: 14000001 cycles: 5630837 heartbeat IPC: 2.82633 cumulative IPC: 2.48631 (Simulation time: 0 hr 7 min 18 sec) 
Heartbeat CPU 0 instructions: 15000000 cycles: 5977463 heartbeat IPC: 2.88495 cumulative IPC: 2.50943 (Simulation time: 0 hr 7 min 51 sec) 
Heartbeat CPU 0 instructions: 16000000 cycles: 6390956 heartbeat IPC: 2.41842 cumulative IPC: 2.50354 (Simulation time: 0 hr 8 min 23 sec) 
Heartbeat CPU 0 instructions: 17000000 cycles: 6803025 heartbeat IPC: 2.42678 cumulative IPC: 2.49889 (Simulation time: 0 hr 8 min 54 sec) 
Heartbeat CPU 0 instructions: 18000000 cycles: 7219332 heartbeat IPC: 2.40207 cumulative IPC: 2.49331 (Simulation time: 0 hr 9 min 23 sec) 
Heartbeat CPU 0 instructions: 19000003 cycles: 7633880 heartbeat IPC: 2.41227 cumulative IPC: 2.48891 (Simulation time: 0 hr 9 min 56 sec) 
Heartbeat CPU 0 instructions: 20000000 cycles: 7972829 heartbeat IPC: 2.95029 cumulative IPC: 2.50852 (Simulation time: 0 hr 10 min 23 sec) 
Heartbeat CPU 0 instructions: 21000000 cycles: 8382461 heartbeat IPC: 2.44122 cumulative IPC: 2.50523 (Simulation time: 0 hr 10 min 53 sec) 
Heartbeat CPU 0 instructions: 22000003 cycles: 8795972 heartbeat IPC: 2.41832 cumulative IPC: 2.50115 (Simulation time: 0 hr 11 min 28 sec) 
Heartbeat CPU 0 instructions: 23000003 cycles: 9206131 heartbeat IPC: 2.43808 cumulative IPC: 2.49834 (Simulation time: 0 hr 11 min 59 sec) 
Heartbeat CPU 0 instructions: 24000000 cycles: 9656831 heartbeat IPC: 2.21876 cumulative IPC: 2.48529 (Simulation time: 0 hr 12 min 28 sec) 
Heartbeat CPU 0 instructions: 25000000 cycles: 9995870 heartbeat IPC: 2.94951 cumulative IPC: 2.50103 (Simulation time: 0 hr 12 min 54 sec) 
Heartbeat CPU 0 instructions: 26000001 cycles: 10373023 heartbeat IPC: 2.65145 cumulative IPC: 2.5065 (Simulation time: 0 hr 13 min 30 sec) 
Heartbeat CPU 0 instructions: 27000001 cycles: 10788048 heartbeat IPC: 2.40949 cumulative IPC: 2.50277 (Simulation time: 0 hr 14 min 1 sec) 
Heartbeat CPU 0 instructions: 28000000 cycles: 11202913 heartbeat IPC: 2.41042 cumulative IPC: 2.49935 (Simulation time: 0 hr 14 min 37 sec) 
Heartbeat CPU 0 instructions: 29000003 cycles: 11666248 heartbeat IPC: 2.15827 cumulative IPC: 2.4858 (Simulation time: 0 hr 15 min 7 sec) 
Heartbeat CPU 0 instructions: 30000000 cycles: 12005169 heartbeat IPC: 2.95053 cumulative IPC: 2.49892 (Simulation time: 0 hr 15 min 39 sec) 
Heartbeat CPU 0 instructions: 31000003 cycles: 12368485 heartbeat IPC: 2.75243 cumulative IPC: 2.50637 (Simulation time: 0 hr 16 min 11 sec) 
Heartbeat CPU 0 instructions: 32000000 cycles: 12783544 heartbeat IPC: 2.40929 cumulative IPC: 2.50322 (Simulation time: 0 hr 16 min 47 sec) 
Heartbeat CPU 0 instructions: 33000001 cycles: 13193139 heartbeat IPC: 2.44144 cumulative IPC: 2.5013 (Simulation time: 0 hr 17 min 26 sec) 
Heartbeat CPU 0 instructions: 34000000 cycles: 13667336 heartbeat IPC: 2.10883 cumulative IPC: 2.48768 (Simulation time: 0 hr 17 min 53 sec) 
Heartbeat CPU 0 instructions: 35000000 cycles: 14006298 heartbeat IPC: 2.95018 cumulative IPC: 2.49888 (Simulation time: 0 hr 18 min 20 sec) 
Heartbeat CPU 0 instructions: 36000000 cycles: 14364588 heartbeat IPC: 2.79104 cumulative IPC: 2.50616 (Simulation time: 0 hr 18 min 51 sec) 
Heartbeat CPU 0 instructions: 37000001 cycles: 14780642 heartbeat IPC: 2.40354 cumulative IPC: 2.50327 (Simulation time: 0 hr 19 min 23 sec) 
Heartbeat CPU 0 instructions: 38000000 cycles: 15190252 heartbeat IPC: 2.44134 cumulative IPC: 2.5016 (Simulation time: 0 hr 19 min 55 sec) 
Heartbeat CPU 0 instructions: 39000002 cycles: 15665342 heartbeat IPC: 2.10487 cumulative IPC: 2.48957 (Simulation time: 0 hr 20 min 25 sec) 
Heartbeat CPU 0 instructions: 40000000 cycles: 16004320 heartbeat IPC: 2.95004 cumulative IPC: 2.49933 (Simulation time: 0 hr 20 min 52 sec) 
Heartbeat CPU 0 instructions: 41000003 cycles: 16361648 heartbeat IPC: 2.79856 cumulative IPC: 2.50586 (Simulation time: 0 hr 21 min 21 sec) 
Heartbeat CPU 0 instructions: 42000000 cycles: 16777760 heartbeat IPC: 2.40319 cumulative IPC: 2.50331 (Simulation time: 0 hr 21 min 52 sec) 
Heartbeat CPU 0 instructions: 43000001 cycles: 17189179 heartbeat IPC: 2.43061 cumulative IPC: 2.50157 (Simulation time: 0 hr 22 min 26 sec) 
Heartbeat CPU 0 instructions: 44000000 cycles: 17659939 heartbeat IPC: 2.12422 cumulative IPC: 2.49151 (Simulation time: 0 hr 23 min 1 sec) 
Heartbeat CPU 0 instructions: 45000001 cycles: 17998930 heartbeat IPC: 2.94993 cumulative IPC: 2.50015 (Simulation time: 0 hr 23 min 29 sec) 
Heartbeat CPU 0 instructions: 46000001 cycles: 18359281 heartbeat IPC: 2.77507 cumulative IPC: 2.50554 (Simulation time: 0 hr 23 min 57 sec) 
Heartbeat CPU 0 instructions: 47000003 cycles: 18773858 heartbeat IPC: 2.4121 cumulative IPC: 2.50348 (Simulation time: 0 hr 24 min 29 sec) 
Heartbeat CPU 0 instructions: 48000000 cycles: 19189639 heartbeat IPC: 2.40511 cumulative IPC: 2.50135 (Simulation time: 0 hr 25 min 5 sec) 
Heartbeat CPU 0 instructions: 49000001 cycles: 19647737 heartbeat IPC: 2.18294 cumulative IPC: 2.49393 (Simulation time: 0 hr 25 min 34 sec) 
Heartbeat CPU 0 instructions: 50000003 cycles: 19986690 heartbeat IPC: 2.95027 cumulative IPC: 2.50167 (Simulation time: 0 hr 26 min 5 sec) 

Warmup complete CPU 0 instructions: 50000003 cycles: 19986690 (Simulation time: 0 hr 26 min 5 sec) 

Heartbeat CPU 0 instructions: 51000003 cycles: 21109911 heartbeat IPC: 0.890297 cumulative IPC: 0.890297 (Simulation time: 0 hr 26 min 40 sec) 
Heartbeat CPU 0 instructions: 52000000 cycles: 22686627 heartbeat IPC: 0.634228 cumulative IPC: 0.740757 (Simulation time: 0 hr 27 min 14 sec) 
Heartbeat CPU 0 instructions: 53000000 cycles: 24488811 heartbeat IPC: 0.554882 cumulative IPC: 0.666352 (Simulation time: 0 hr 27 min 54 sec) 
Heartbeat CPU 0 instructions: 54000003 cycles: 25768440 heartbeat IPC: 0.781479 cumulative IPC: 0.691832 (Simulation time: 0 hr 28 min 26 sec) 
Heartbeat CPU 0 instructions: 55000003 cycles: 26704143 heartbeat IPC: 1.06872 cumulative IPC: 0.74433 (Simulation time: 0 hr 29 min 1 sec) 
Heartbeat CPU 0 instructions: 56000000 cycles: 27611420 heartbeat IPC: 1.1022 cumulative IPC: 0.786913 (Simulation time: 0 hr 29 min 33 sec) 
Heartbeat CPU 0 instructions: 57000002 cycles: 28810815 heartbeat IPC: 0.833755 cumulative IPC: 0.79328 (Simulation time: 0 hr 30 min 7 sec) 
Heartbeat CPU 0 instructions: 58000001 cycles: 29835075 heartbeat IPC: 0.976314 cumulative IPC: 0.812316 (Simulation time: 0 hr 30 min 46 sec) 
Heartbeat CPU 0 instructions: 59000003 cycles: 30736215 heartbeat IPC: 1.10971 cumulative IPC: 0.837246 (Simulation time: 0 hr 31 min 22 sec) 
Heartbeat CPU 0 instructions: 60000000 cycles: 31638227 heartbeat IPC: 1.10863 cumulative IPC: 0.858256 (Simulation time: 0 hr 31 min 56 sec) 
Heartbeat CPU 0 instructions: 61000001 cycles: 32819717 heartbeat IPC: 0.84639 cumulative IPC: 0.857163 (Simulation time: 0 hr 32 min 28 sec) 
Heartbeat CPU 0 instructions: 62000001 cycles: 33695137 heartbeat IPC: 1.14231 cumulative IPC: 0.875373 (Simulation time: 0 hr 33 min 6 sec) 
Heartbeat CPU 0 instructions: 63000003 cycles: 34551947 heartbeat IPC: 1.16712 cumulative IPC: 0.892535 (Simulation time: 0 hr 33 min 39 sec) 
Heartbeat CPU 0 instructions: 64000000 cycles: 35806370 heartbeat IPC: 0.797177 cumulative IPC: 0.884973 (Simulation time: 0 hr 34 min 12 sec) 
Heartbeat CPU 0 instructions: 65000003 cycles: 36684595 heartbeat IPC: 1.13866 cumulative IPC: 0.898316 (Simulation time: 0 hr 34 min 49 sec) 
Heartbeat CPU 0 instructions: 66000002 cycles: 37565435 heartbeat IPC: 1.13528 cumulative IPC: 0.91019 (Simulation time: 0 hr 35 min 23 sec) 
Heartbeat CPU 0 instructions: 67000000 cycles: 38832738 heartbeat IPC: 0.789076 cumulative IPC: 0.902046 (Simulation time: 0 hr 36 min 1 sec) 
Heartbeat CPU 0 instructions: 68000000 cycles: 40460545 heartbeat IPC: 0.614323 cumulative IPC: 0.87917 (Simulation time: 0 hr 36 min 37 sec) 
Heartbeat CPU 0 instructions: 69000003 cycles: 41327391 heartbeat IPC: 1.15361 cumulative IPC: 0.890317 (Simulation time: 0 hr 37 min 6 sec) 
Heartbeat CPU 0 instructions: 70000000 cycles: 42214219 heartbeat IPC: 1.12761 cumulative IPC: 0.899785 (Simulation time: 0 hr 37 min 41 sec) 
Heartbeat CPU 0 instructions: 71000000 cycles: 43352275 heartbeat IPC: 0.878691 cumulative IPC: 0.898758 (Simulation time: 0 hr 38 min 15 sec) 
Heartbeat CPU 0 instructions: 72000000 cycles: 44831351 heartbeat IPC: 0.676098 cumulative IPC: 0.885502 (Simulation time: 0 hr 38 min 52 sec) 
Heartbeat CPU 0 instructions: 73000000 cycles: 45700352 heartbeat IPC: 1.15075 cumulative IPC: 0.894466 (Simulation time: 0 hr 39 min 23 sec) 
Heartbeat CPU 0 instructions: 74000000 cycles: 46585360 heartbeat IPC: 1.12993 cumulative IPC: 0.902301 (Simulation time: 0 hr 39 min 54 sec) 
Heartbeat CPU 0 instructions: 75000000 cycles: 47795864 heartbeat IPC: 0.826102 cumulative IPC: 0.898984 (Simulation time: 0 hr 40 min 26 sec) 
Heartbeat CPU 0 instructions: 76000000 cycles: 49059207 heartbeat IPC: 0.791551 cumulative IPC: 0.894315 (Simulation time: 0 hr 40 min 58 sec) 
Heartbeat CPU 0 instructions: 77000003 cycles: 49962307 heartbeat IPC: 1.1073 cumulative IPC: 0.900732 (Simulation time: 0 hr 41 min 31 sec) 
Heartbeat CPU 0 instructions: 78000000 cycles: 50853350 heartbeat IPC: 1.12228 cumulative IPC: 0.907127 (Simulation time: 0 hr 42 min 4 sec) 
Heartbeat CPU 0 instructions: 79000001 cycles: 52198055 heartbeat IPC: 0.743658 cumulative IPC: 0.900303 (Simulation time: 0 hr 42 min 39 sec) 
Heartbeat CPU 0 instructions: 80000000 cycles: 53350570 heartbeat IPC: 0.867667 cumulative IPC: 0.899176 (Simulation time: 0 hr 43 min 10 sec) 
Heartbeat CPU 0 instructions: 81000000 cycles: 54282081 heartbeat IPC: 1.07352 cumulative IPC: 0.903911 (Simulation time: 0 hr 43 min 43 sec) 
Heartbeat CPU 0 instructions: 82000000 cycles: 55102707 heartbeat IPC: 1.21858 cumulative IPC: 0.911265 (Simulation time: 0 hr 44 min 14 sec) 
Heartbeat CPU 0 instructions: 83000000 cycles: 56494242 heartbeat IPC: 0.718631 cumulative IPC: 0.903922 (Simulation time: 0 hr 44 min 51 sec) 
Heartbeat CPU 0 instructions: 84000000 cycles: 57397956 heartbeat IPC: 1.10654 cumulative IPC: 0.908817 (Simulation time: 0 hr 45 min 24 sec) 
Heartbeat CPU 0 instructions: 85000001 cycles: 58206016 heartbeat IPC: 1.23753 cumulative IPC: 0.915767 (Simulation time: 0 hr 46 min 1 sec) 
Heartbeat CPU 0 instructions: 86000001 cycles: 59217186 heartbeat IPC: 0.988953 cumulative IPC: 0.917653 (Simulation time: 0 hr 46 min 37 sec) 
Heartbeat CPU 0 instructions: 87000000 cycles: 60365444 heartbeat IPC: 0.870884 cumulative IPC: 0.916323 (Simulation time: 0 hr 47 min 13 sec) 
Heartbeat CPU 0 instructions: 88000000 cycles: 61223405 heartbeat IPC: 1.16555 cumulative IPC: 0.921509 (Simulation time: 0 hr 47 min 45 sec) 
Heartbeat CPU 0 instructions: 89000000 cycles: 62102255 heartbeat IPC: 1.13785 cumulative IPC: 0.926023 (Simulation time: 0 hr 48 min 15 sec) 
Heartbeat CPU 0 instructions: 90000000 cycles: 63387871 heartbeat IPC: 0.777837 cumulative IPC: 0.921634 (Simulation time: 0 hr 48 min 48 sec) 
Heartbeat CPU 0 instructions: 91000003 cycles: 64638103 heartbeat IPC: 0.799854 cumulative IPC: 0.918224 (Simulation time: 0 hr 49 min 23 sec) 
Heartbeat CPU 0 instructions: 92000000 cycles: 65604481 heartbeat IPC: 1.03479 cumulative IPC: 0.920693 (Simulation time: 0 hr 49 min 58 sec) 
Heartbeat CPU 0 instructions: 93000000 cycles: 66429356 heartbeat IPC: 1.2123 cumulative IPC: 0.925873 (Simulation time: 0 hr 50 min 31 sec) 
Heartbeat CPU 0 instructions: 94000002 cycles: 67170899 heartbeat IPC: 1.34854 cumulative IPC: 0.932515 (Simulation time: 0 hr 51 min 5 sec) 
Heartbeat CPU 0 instructions: 95000001 cycles: 68511610 heartbeat IPC: 0.745872 cumulative IPC: 0.927359 (Simulation time: 0 hr 51 min 42 sec) 
Heartbeat CPU 0 instructions: 96000000 cycles: 69378090 heartbeat IPC: 1.15409 cumulative IPC: 0.931336 (Simulation time: 0 hr 52 min 14 sec) 
Heartbeat CPU 0 instructions: 97000000 cycles: 70168543 heartbeat IPC: 1.2651 cumulative IPC: 0.936593 (Simulation time: 0 hr 52 min 47 sec) 
Heartbeat CPU 0 instructions: 98000003 cycles: 71287582 heartbeat IPC: 0.893627 cumulative IPC: 0.935656 (Simulation time: 0 hr 53 min 21 sec) 
Heartbeat CPU 0 instructions: 99000000 cycles: 72341789 heartbeat IPC: 0.948577 cumulative IPC: 0.935916 (Simulation time: 0 hr 53 min 56 sec) 
Heartbeat CPU 0 instructions: 100000000 cycles: 73184962 heartbeat IPC: 1.186 cumulative IPC: 0.93988 (Simulation time: 0 hr 54 min 33 sec) 
Heartbeat CPU 0 instructions: 101000000 cycles: 73975951 heartbeat IPC: 1.26424 cumulative IPC: 0.944632 (Simulation time: 0 hr 55 min 9 sec) 
Heartbeat CPU 0 instructions: 102000003 cycles: 75402394 heartbeat IPC: 0.701047 cumulative IPC: 0.938362 (Simulation time: 0 hr 55 min 49 sec) 
Heartbeat CPU 0 instructions: 103000001 cycles: 76351702 heartbeat IPC: 1.0534 cumulative IPC: 0.9403 (Simulation time: 0 hr 56 min 19 sec) 
Heartbeat CPU 0 instructions: 104000000 cycles: 77178934 heartbeat IPC: 1.20885 cumulative IPC: 0.944184 (Simulation time: 0 hr 56 min 53 sec) 
Heartbeat CPU 0 instructions: 105000002 cycles: 78214382 heartbeat IPC: 0.965768 cumulative IPC: 0.944568 (Simulation time: 0 hr 57 min 29 sec) 
Heartbeat CPU 0 instructions: 106000003 cycles: 79660903 heartbeat IPC: 0.691315 cumulative IPC: 0.938429 (Simulation time: 0 hr 58 min 5 sec) 
Heartbeat CPU 0 instructions: 107000001 cycles: 80535661 heartbeat IPC: 1.14317 cumulative IPC: 0.941387 (Simulation time: 0 hr 58 min 36 sec) 
Heartbeat CPU 0 instructions: 108000000 cycles: 81370747 heartbeat IPC: 1.19748 cumulative IPC: 0.944871 (Simulation time: 0 hr 59 min 8 sec) 
Heartbeat CPU 0 instructions: 109000001 cycles: 82476795 heartbeat IPC: 0.904121 cumulative IPC: 0.944149 (Simulation time: 0 hr 59 min 47 sec) 
Heartbeat CPU 0 instructions: 110000000 cycles: 83815985 heartbeat IPC: 0.746719 cumulative IPC: 0.940007 (Simulation time: 1 hr 0 min 19 sec) 
Heartbeat CPU 0 instructions: 111000003 cycles: 84680325 heartbeat IPC: 1.15696 cumulative IPC: 0.942906 (Simulation time: 1 hr 0 min 52 sec) 
Heartbeat CPU 0 instructions: 112000000 cycles: 85515037 heartbeat IPC: 1.19801 cumulative IPC: 0.946155 (Simulation time: 1 hr 1 min 26 sec) 
Heartbeat CPU 0 instructions: 113000002 cycles: 86699758 heartbeat IPC: 0.844082 cumulative IPC: 0.944343 (Simulation time: 1 hr 2 min 1 sec) 
Heartbeat CPU 0 instructions: 114000001 cycles: 87888000 heartbeat IPC: 0.841579 cumulative IPC: 0.942544 (Simulation time: 1 hr 2 min 38 sec) 
Heartbeat CPU 0 instructions: 115000002 cycles: 88763948 heartbeat IPC: 1.14162 cumulative IPC: 0.94508 (Simulation time: 1 hr 3 min 8 sec) 
Heartbeat CPU 0 instructions: 116000000 cycles: 89585555 heartbeat IPC: 1.21712 cumulative IPC: 0.948291 (Simulation time: 1 hr 3 min 36 sec) 
Heartbeat CPU 0 instructions: 117000002 cycles: 90981066 heartbeat IPC: 0.716585 cumulative IPC: 0.943737 (Simulation time: 1 hr 4 min 11 sec) 
Heartbeat CPU 0 instructions: 118000002 cycles: 91974422 heartbeat IPC: 1.00669 cumulative IPC: 0.944605 (Simulation time: 1 hr 4 min 40 sec) 
Heartbeat CPU 0 instructions: 119000001 cycles: 92845734 heartbeat IPC: 1.14769 cumulative IPC: 0.947034 (Simulation time: 1 hr 5 min 12 sec) 
Heartbeat CPU 0 instructions: 120000000 cycles: 93728272 heartbeat IPC: 1.13309 cumulative IPC: 0.949261 (Simulation time: 1 hr 5 min 46 sec) 
Heartbeat CPU 0 instructions: 121000000 cycles: 95163457 heartbeat IPC: 0.696774 cumulative IPC: 0.944441 (Simulation time: 1 hr 6 min 18 sec) 
Heartbeat CPU 0 instructions: 122000003 cycles: 96046381 heartbeat IPC: 1.1326 cumulative IPC: 0.946625 (Simulation time: 1 hr 6 min 50 sec) 
Heartbeat CPU 0 instructions: 123000001 cycles: 96901356 heartbeat IPC: 1.16962 cumulative IPC: 0.949104 (Simulation time: 1 hr 7 min 19 sec) 
Heartbeat CPU 0 instructions: 124000000 cycles: 98006760 heartbeat IPC: 0.904646 cumulative IPC: 0.948474 (Simulation time: 1 hr 7 min 49 sec) 
Heartbeat CPU 0 instructions: 125000003 cycles: 99309363 heartbeat IPC: 0.767696 cumulative IPC: 0.945505 (Simulation time: 1 hr 8 min 20 sec) 
Heartbeat CPU 0 instructions: 126000001 cycles: 100189390 heartbeat IPC: 1.13633 cumulative IPC: 0.947599 (Simulation time: 1 hr 8 min 48 sec) 
Heartbeat CPU 0 instructions: 127000000 cycles: 101037391 heartbeat IPC: 1.17924 cumulative IPC: 0.950023 (Simulation time: 1 hr 9 min 18 sec) 
Heartbeat CPU 0 instructions: 128000000 cycles: 102304328 heartbeat IPC: 0.789305 cumulative IPC: 0.947549 (Simulation time: 1 hr 9 min 50 sec) 
Heartbeat CPU 0 instructions: 129000002 cycles: 103599987 heartbeat IPC: 0.77181 cumulative IPC: 0.944826 (Simulation time: 1 hr 10 min 18 sec) 
Heartbeat CPU 0 instructions: 130000002 cycles: 104486845 heartbeat IPC: 1.12758 cumulative IPC: 0.946744 (Simulation time: 1 hr 10 min 45 sec) 
Heartbeat CPU 0 instructions: 131000000 cycles: 105339413 heartbeat IPC: 1.17292 cumulative IPC: 0.949003 (Simulation time: 1 hr 11 min 11 sec) 
Heartbeat CPU 0 instructions: 132000000 cycles: 106660063 heartbeat IPC: 0.757203 cumulative IPC: 0.946081 (Simulation time: 1 hr 11 min 41 sec) 
Heartbeat CPU 0 instructions: 133000001 cycles: 108113298 heartbeat IPC: 0.688121 cumulative IPC: 0.941827 (Simulation time: 1 hr 12 min 8 sec) 
Heartbeat CPU 0 instructions: 134000002 cycles: 109009277 heartbeat IPC: 1.1161 cumulative IPC: 0.943581 (Simulation time: 1 hr 12 min 37 sec) 
Heartbeat CPU 0 instructions: 135000001 cycles: 109861111 heartbeat IPC: 1.17394 cumulative IPC: 0.945764 (Simulation time: 1 hr 13 min 4 sec) 
Heartbeat CPU 0 instructions: 136000000 cycles: 111052092 heartbeat IPC: 0.839643 cumulative IPC: 0.944376 (Simulation time: 1 hr 13 min 30 sec) 
Heartbeat CPU 0 instructions: 137000001 cycles: 112370783 heartbeat IPC: 0.758328 cumulative IPC: 0.941721 (Simulation time: 1 hr 14 min 0 sec) 
Heartbeat CPU 0 instructions: 138000002 cycles: 113268754 heartbeat IPC: 1.11362 cumulative IPC: 0.943375 (Simulation time: 1 hr 14 min 25 sec) 
Heartbeat CPU 0 instructions: 139000001 cycles: 114127606 heartbeat IPC: 1.16434 cumulative IPC: 0.945391 (Simulation time: 1 hr 14 min 50 sec) 
Heartbeat CPU 0 instructions: 140000000 cycles: 115397952 heartbeat IPC: 0.787186 cumulative IPC: 0.943285 (Simulation time: 1 hr 15 min 17 sec) 
Heartbeat CPU 0 instructions: 141000000 cycles: 116862079 heartbeat IPC: 0.683001 cumulative IPC: 0.939351 (Simulation time: 1 hr 15 min 45 sec) 
Heartbeat CPU 0 instructions: 142000002 cycles: 117994794 heartbeat IPC: 0.882836 cumulative IPC: 0.938698 (Simulation time: 1 hr 16 min 12 sec) 
Heartbeat CPU 0 instructions: 143000003 cycles: 118849998 heartbeat IPC: 1.16931 cumulative IPC: 0.940693 (Simulation time: 1 hr 16 min 35 sec) 
Heartbeat CPU 0 instructions: 144000000 cycles: 119713866 heartbeat IPC: 1.15758 cumulative IPC: 0.942572 (Simulation time: 1 hr 16 min 58 sec) 
Heartbeat CPU 0 instructions: 145000000 cycles: 120836653 heartbeat IPC: 0.890641 cumulative IPC: 0.941993 (Simulation time: 1 hr 17 min 20 sec) 
Heartbeat CPU 0 instructions: 146000001 cycles: 122271966 heartbeat IPC: 0.696713 cumulative IPC: 0.938551 (Simulation time: 1 hr 17 min 45 sec) 
Heartbeat CPU 0 instructions: 147000002 cycles: 123140928 heartbeat IPC: 1.1508 cumulative IPC: 0.940339 (Simulation time: 1 hr 18 min 7 sec) 
Heartbeat CPU 0 instructions: 148000000 cycles: 124003560 heartbeat IPC: 1.15924 cumulative IPC: 0.942155 (Simulation time: 1 hr 18 min 27 sec) 
Heartbeat CPU 0 instructions: 149000001 cycles: 125195617 heartbeat IPC: 0.838887 cumulative IPC: 0.940985 (Simulation time: 1 hr 18 min 49 sec) 
Heartbeat CPU 0 instructions: 150000000 cycles: 126568461 heartbeat IPC: 0.728414 cumulative IPC: 0.938247 (Simulation time: 1 hr 19 min 8 sec) 
Finished CPU 0 instructions: 100000001 cycles: 106581772 cummulative IPC: 0.938247 (Simulation time: 1 hr 19 min 8 sec) 

ChampSim completed all CPUs

Region of Interest Statistics

CPU 0 cummulative IPC: 0.938247 instructions: 100000001 cycles: 106581772
LLC TOTAL     ACCESS:    1706390  HIT:     719435  MISS:     986955
LLC LOAD      ACCESS:     272371  HIT:     217308  MISS:      55063
LLC RFO       ACCESS:     107603  HIT:      91700  MISS:      15903
LLC PREFETCH  ACCESS:    1186834  HIT:     272333  MISS:     914501
LLC WRITEBACK ACCESS:     139582  HIT:     138094  MISS:       1488
OPTgen accesses: 9264
OPTgen hits: 8417
OPTgen hit rate: 90.8571


