
*** ChampSim Multicore Out-of-Order Simulator ***

Warmup Instructions: 50000000
Simulation Instructions: 100000000
Configuration: 2
Number of CPUs: 1
LLC sets: 2048
LLC ways: 16
Off-chip DRAM Channels: 1 Width: 64-bit Data Rate: 1600 MT/s

CPU 0 runs /datasets/cs240c-wi22-a00-public/data/Assignment2-gz/GemsFDTD_109B.trace.gz
CPU 0 L1D next line prefetcher
CPU 0 L2C IP-based stride prefetcher
Initialize Hawkeye state
Heartbeat CPU 0 instructions: 1000002 cycles: 579772 heartbeat IPC: 1.72482 cumulative IPC: 1.72482 (Simulation time: 0 hr 0 min 46 sec) 
Heartbeat CPU 0 instructions: 2000001 cycles: 1159543 heartbeat IPC: 1.72482 cumulative IPC: 1.72482 (Simulation time: 0 hr 1 min 29 sec) 
Heartbeat CPU 0 instructions: 3000000 cycles: 1738735 heartbeat IPC: 1.72654 cumulative IPC: 1.72539 (Simulation time: 0 hr 2 min 7 sec) 
Heartbeat CPU 0 instructions: 4000000 cycles: 2317737 heartbeat IPC: 1.72711 cumulative IPC: 1.72582 (Simulation time: 0 hr 2 min 54 sec) 
Heartbeat CPU 0 instructions: 5000000 cycles: 2897553 heartbeat IPC: 1.72469 cumulative IPC: 1.72559 (Simulation time: 0 hr 3 min 40 sec) 
Heartbeat CPU 0 instructions: 6000002 cycles: 3478272 heartbeat IPC: 1.72201 cumulative IPC: 1.725 (Simulation time: 0 hr 4 min 24 sec) 
Heartbeat CPU 0 instructions: 7000001 cycles: 4058935 heartbeat IPC: 1.72217 cumulative IPC: 1.72459 (Simulation time: 0 hr 5 min 3 sec) 
Heartbeat CPU 0 instructions: 8000000 cycles: 4639128 heartbeat IPC: 1.72356 cumulative IPC: 1.72446 (Simulation time: 0 hr 5 min 48 sec) 
Heartbeat CPU 0 instructions: 9000002 cycles: 5219300 heartbeat IPC: 1.72363 cumulative IPC: 1.72437 (Simulation time: 0 hr 6 min 31 sec) 
Heartbeat CPU 0 instructions: 10000001 cycles: 5799483 heartbeat IPC: 1.72359 cumulative IPC: 1.72429 (Simulation time: 0 hr 7 min 11 sec) 
Heartbeat CPU 0 instructions: 11000000 cycles: 6379304 heartbeat IPC: 1.72467 cumulative IPC: 1.72433 (Simulation time: 0 hr 7 min 52 sec) 
Heartbeat CPU 0 instructions: 12000000 cycles: 6959187 heartbeat IPC: 1.72449 cumulative IPC: 1.72434 (Simulation time: 0 hr 8 min 37 sec) 
Heartbeat CPU 0 instructions: 13000001 cycles: 7539245 heartbeat IPC: 1.72397 cumulative IPC: 1.72431 (Simulation time: 0 hr 9 min 22 sec) 
Heartbeat CPU 0 instructions: 14000003 cycles: 8119140 heartbeat IPC: 1.72445 cumulative IPC: 1.72432 (Simulation time: 0 hr 10 min 2 sec) 
Heartbeat CPU 0 instructions: 15000000 cycles: 8699240 heartbeat IPC: 1.72384 cumulative IPC: 1.72429 (Simulation time: 0 hr 10 min 44 sec) 
Heartbeat CPU 0 instructions: 16000000 cycles: 9279413 heartbeat IPC: 1.72362 cumulative IPC: 1.72425 (Simulation time: 0 hr 11 min 25 sec) 
Heartbeat CPU 0 instructions: 17000002 cycles: 9859635 heartbeat IPC: 1.72348 cumulative IPC: 1.7242 (Simulation time: 0 hr 12 min 5 sec) 
Heartbeat CPU 0 instructions: 18000003 cycles: 10439485 heartbeat IPC: 1.72459 cumulative IPC: 1.72422 (Simulation time: 0 hr 12 min 43 sec) 
Heartbeat CPU 0 instructions: 19000000 cycles: 11019328 heartbeat IPC: 1.7246 cumulative IPC: 1.72424 (Simulation time: 0 hr 13 min 33 sec) 
Heartbeat CPU 0 instructions: 20000000 cycles: 11596246 heartbeat IPC: 1.73335 cumulative IPC: 1.7247 (Simulation time: 0 hr 14 min 6 sec) 
Heartbeat CPU 0 instructions: 21000000 cycles: 12041379 heartbeat IPC: 2.24652 cumulative IPC: 1.74399 (Simulation time: 0 hr 14 min 38 sec) 
Heartbeat CPU 0 instructions: 22000000 cycles: 12573589 heartbeat IPC: 1.87896 cumulative IPC: 1.7497 (Simulation time: 0 hr 15 min 14 sec) 
Heartbeat CPU 0 instructions: 23000000 cycles: 13023032 heartbeat IPC: 2.22498 cumulative IPC: 1.7661 (Simulation time: 0 hr 15 min 46 sec) 
Heartbeat CPU 0 instructions: 24000000 cycles: 13564862 heartbeat IPC: 1.8456 cumulative IPC: 1.76928 (Simulation time: 0 hr 16 min 21 sec) 
Heartbeat CPU 0 instructions: 25000001 cycles: 14023946 heartbeat IPC: 2.17825 cumulative IPC: 1.78267 (Simulation time: 0 hr 16 min 50 sec) 
Heartbeat CPU 0 instructions: 26000000 cycles: 14554177 heartbeat IPC: 1.88597 cumulative IPC: 1.78643 (Simulation time: 0 hr 17 min 26 sec) 
Heartbeat CPU 0 instructions: 27000000 cycles: 15030149 heartbeat IPC: 2.10096 cumulative IPC: 1.79639 (Simulation time: 0 hr 17 min 57 sec) 
Heartbeat CPU 0 instructions: 28000000 cycles: 15533134 heartbeat IPC: 1.98813 cumulative IPC: 1.8026 (Simulation time: 0 hr 18 min 29 sec) 
Heartbeat CPU 0 instructions: 29000000 cycles: 16006104 heartbeat IPC: 2.1143 cumulative IPC: 1.81181 (Simulation time: 0 hr 19 min 0 sec) 
Heartbeat CPU 0 instructions: 30000001 cycles: 16526042 heartbeat IPC: 1.92331 cumulative IPC: 1.81532 (Simulation time: 0 hr 19 min 33 sec) 
Heartbeat CPU 0 instructions: 31000001 cycles: 17026771 heartbeat IPC: 1.99709 cumulative IPC: 1.82066 (Simulation time: 0 hr 20 min 4 sec) 
Heartbeat CPU 0 instructions: 32000000 cycles: 17508978 heartbeat IPC: 2.0738 cumulative IPC: 1.82763 (Simulation time: 0 hr 20 min 35 sec) 
Heartbeat CPU 0 instructions: 33000003 cycles: 18011981 heartbeat IPC: 1.98807 cumulative IPC: 1.83211 (Simulation time: 0 hr 21 min 8 sec) 
Heartbeat CPU 0 instructions: 34000002 cycles: 18491869 heartbeat IPC: 2.08382 cumulative IPC: 1.83865 (Simulation time: 0 hr 21 min 41 sec) 
Heartbeat CPU 0 instructions: 35000002 cycles: 18994582 heartbeat IPC: 1.98921 cumulative IPC: 1.84263 (Simulation time: 0 hr 22 min 12 sec) 
Heartbeat CPU 0 instructions: 36000000 cycles: 19486732 heartbeat IPC: 2.0319 cumulative IPC: 1.84741 (Simulation time: 0 hr 22 min 47 sec) 
Heartbeat CPU 0 instructions: 37000000 cycles: 19901779 heartbeat IPC: 2.40937 cumulative IPC: 1.85913 (Simulation time: 0 hr 23 min 24 sec) 
Heartbeat CPU 0 instructions: 38000001 cycles: 20316824 heartbeat IPC: 2.40938 cumulative IPC: 1.87037 (Simulation time: 0 hr 23 min 58 sec) 
Heartbeat CPU 0 instructions: 39000000 cycles: 20731810 heartbeat IPC: 2.40972 cumulative IPC: 1.88117 (Simulation time: 0 hr 24 min 30 sec) 
Heartbeat CPU 0 instructions: 40000000 cycles: 21146819 heartbeat IPC: 2.40959 cumulative IPC: 1.89154 (Simulation time: 0 hr 25 min 3 sec) 
Heartbeat CPU 0 instructions: 41000000 cycles: 21657551 heartbeat IPC: 1.95797 cumulative IPC: 1.8931 (Simulation time: 0 hr 25 min 33 sec) 
Heartbeat CPU 0 instructions: 42000000 cycles: 22072568 heartbeat IPC: 2.40954 cumulative IPC: 1.90281 (Simulation time: 0 hr 26 min 5 sec) 
Heartbeat CPU 0 instructions: 43000000 cycles: 22487621 heartbeat IPC: 2.40933 cumulative IPC: 1.91216 (Simulation time: 0 hr 26 min 42 sec) 
Heartbeat CPU 0 instructions: 44000000 cycles: 22902573 heartbeat IPC: 2.40992 cumulative IPC: 1.92118 (Simulation time: 0 hr 27 min 18 sec) 
Heartbeat CPU 0 instructions: 45000000 cycles: 23317582 heartbeat IPC: 2.40959 cumulative IPC: 1.92987 (Simulation time: 0 hr 27 min 53 sec) 
Heartbeat CPU 0 instructions: 46000003 cycles: 23728045 heartbeat IPC: 2.43628 cumulative IPC: 1.93863 (Simulation time: 0 hr 28 min 31 sec) 
Heartbeat CPU 0 instructions: 47000001 cycles: 24361925 heartbeat IPC: 1.57758 cumulative IPC: 1.92924 (Simulation time: 0 hr 29 min 3 sec) 
Heartbeat CPU 0 instructions: 48000000 cycles: 24962771 heartbeat IPC: 1.66432 cumulative IPC: 1.92286 (Simulation time: 0 hr 29 min 35 sec) 
Heartbeat CPU 0 instructions: 49000003 cycles: 25556614 heartbeat IPC: 1.68395 cumulative IPC: 1.91731 (Simulation time: 0 hr 30 min 30 sec) 
Heartbeat CPU 0 instructions: 50000001 cycles: 26222835 heartbeat IPC: 1.501 cumulative IPC: 1.90674 (Simulation time: 0 hr 31 min 17 sec) 

Warmup complete CPU 0 instructions: 50000001 cycles: 26222835 (Simulation time: 0 hr 31 min 17 sec) 

Heartbeat CPU 0 instructions: 51000001 cycles: 27739070 heartbeat IPC: 0.659528 cumulative IPC: 0.659528 (Simulation time: 0 hr 32 min 3 sec) 
Heartbeat CPU 0 instructions: 52000000 cycles: 29287674 heartbeat IPC: 0.645742 cumulative IPC: 0.652562 (Simulation time: 0 hr 32 min 54 sec) 
Heartbeat CPU 0 instructions: 53000000 cycles: 30896483 heartbeat IPC: 0.621578 cumulative IPC: 0.641897 (Simulation time: 0 hr 33 min 45 sec) 
Heartbeat CPU 0 instructions: 54000000 cycles: 32512322 heartbeat IPC: 0.618874 cumulative IPC: 0.635982 (Simulation time: 0 hr 34 min 33 sec) 
Heartbeat CPU 0 instructions: 55000000 cycles: 34109700 heartbeat IPC: 0.626026 cumulative IPC: 0.633965 (Simulation time: 0 hr 35 min 20 sec) 
Heartbeat CPU 0 instructions: 56000000 cycles: 35714478 heartbeat IPC: 0.623139 cumulative IPC: 0.632135 (Simulation time: 0 hr 36 min 12 sec) 
Heartbeat CPU 0 instructions: 57000002 cycles: 37352070 heartbeat IPC: 0.610654 cumulative IPC: 0.628974 (Simulation time: 0 hr 37 min 7 sec) 
Heartbeat CPU 0 instructions: 58000002 cycles: 38962789 heartbeat IPC: 0.620841 cumulative IPC: 0.627946 (Simulation time: 0 hr 37 min 59 sec) 
Heartbeat CPU 0 instructions: 59000001 cycles: 40586151 heartbeat IPC: 0.616005 cumulative IPC: 0.626596 (Simulation time: 0 hr 38 min 41 sec) 
Heartbeat CPU 0 instructions: 60000000 cycles: 42201644 heartbeat IPC: 0.619005 cumulative IPC: 0.625829 (Simulation time: 0 hr 39 min 24 sec) 
Heartbeat CPU 0 instructions: 61000000 cycles: 43787572 heartbeat IPC: 0.630546 cumulative IPC: 0.626255 (Simulation time: 0 hr 40 min 6 sec) 
Heartbeat CPU 0 instructions: 62000003 cycles: 45367737 heartbeat IPC: 0.632847 cumulative IPC: 0.626799 (Simulation time: 0 hr 40 min 49 sec) 
Heartbeat CPU 0 instructions: 63000002 cycles: 46965373 heartbeat IPC: 0.625924 cumulative IPC: 0.626731 (Simulation time: 0 hr 41 min 31 sec) 
Heartbeat CPU 0 instructions: 64000000 cycles: 48583232 heartbeat IPC: 0.6181 cumulative IPC: 0.626107 (Simulation time: 0 hr 42 min 14 sec) 
Heartbeat CPU 0 instructions: 65000003 cycles: 50214746 heartbeat IPC: 0.612929 cumulative IPC: 0.625211 (Simulation time: 0 hr 42 min 54 sec) 
Heartbeat CPU 0 instructions: 66000001 cycles: 51852230 heartbeat IPC: 0.610692 cumulative IPC: 0.624283 (Simulation time: 0 hr 43 min 39 sec) 
Heartbeat CPU 0 instructions: 67000000 cycles: 53459167 heartbeat IPC: 0.622301 cumulative IPC: 0.624166 (Simulation time: 0 hr 44 min 20 sec) 
Heartbeat CPU 0 instructions: 68000000 cycles: 55080224 heartbeat IPC: 0.616881 cumulative IPC: 0.623757 (Simulation time: 0 hr 45 min 5 sec) 
Heartbeat CPU 0 instructions: 69000000 cycles: 56703464 heartbeat IPC: 0.616052 cumulative IPC: 0.623347 (Simulation time: 0 hr 45 min 51 sec) 
Heartbeat CPU 0 instructions: 70000003 cycles: 58285796 heartbeat IPC: 0.631981 cumulative IPC: 0.623773 (Simulation time: 0 hr 46 min 35 sec) 
Heartbeat CPU 0 instructions: 71000003 cycles: 59900296 heartbeat IPC: 0.619387 cumulative IPC: 0.623563 (Simulation time: 0 hr 47 min 18 sec) 
Heartbeat CPU 0 instructions: 72000000 cycles: 61493875 heartbeat IPC: 0.627516 cumulative IPC: 0.623741 (Simulation time: 0 hr 48 min 0 sec) 
Heartbeat CPU 0 instructions: 73000002 cycles: 63118912 heartbeat IPC: 0.615372 cumulative IPC: 0.623373 (Simulation time: 0 hr 48 min 45 sec) 
Heartbeat CPU 0 instructions: 74000000 cycles: 64745827 heartbeat IPC: 0.614659 cumulative IPC: 0.623005 (Simulation time: 0 hr 49 min 32 sec) 
Heartbeat CPU 0 instructions: 75000000 cycles: 66378629 heartbeat IPC: 0.612444 cumulative IPC: 0.622575 (Simulation time: 0 hr 50 min 15 sec) 
Heartbeat CPU 0 instructions: 76000000 cycles: 67965834 heartbeat IPC: 0.630038 cumulative IPC: 0.622859 (Simulation time: 0 hr 50 min 56 sec) 
Heartbeat CPU 0 instructions: 77000003 cycles: 69600588 heartbeat IPC: 0.611715 cumulative IPC: 0.622439 (Simulation time: 0 hr 51 min 40 sec) 
Heartbeat CPU 0 instructions: 78000001 cycles: 71210408 heartbeat IPC: 0.621186 cumulative IPC: 0.622394 (Simulation time: 0 hr 52 min 24 sec) 
Heartbeat CPU 0 instructions: 79000001 cycles: 72799678 heartbeat IPC: 0.62922 cumulative IPC: 0.622627 (Simulation time: 0 hr 53 min 6 sec) 
Heartbeat CPU 0 instructions: 80000000 cycles: 74403902 heartbeat IPC: 0.623354 cumulative IPC: 0.622651 (Simulation time: 0 hr 53 min 49 sec) 
Heartbeat CPU 0 instructions: 81000001 cycles: 76010947 heartbeat IPC: 0.622261 cumulative IPC: 0.622639 (Simulation time: 0 hr 54 min 30 sec) 
Heartbeat CPU 0 instructions: 82000000 cycles: 77613961 heartbeat IPC: 0.623824 cumulative IPC: 0.622676 (Simulation time: 0 hr 55 min 15 sec) 
Heartbeat CPU 0 instructions: 83000001 cycles: 79209370 heartbeat IPC: 0.626799 cumulative IPC: 0.6228 (Simulation time: 0 hr 55 min 56 sec) 
Heartbeat CPU 0 instructions: 84000000 cycles: 80807355 heartbeat IPC: 0.625787 cumulative IPC: 0.622887 (Simulation time: 0 hr 56 min 36 sec) 
Heartbeat CPU 0 instructions: 85000001 cycles: 82424384 heartbeat IPC: 0.618419 cumulative IPC: 0.622759 (Simulation time: 0 hr 57 min 17 sec) 
Heartbeat CPU 0 instructions: 86000000 cycles: 84038287 heartbeat IPC: 0.619615 cumulative IPC: 0.622671 (Simulation time: 0 hr 57 min 59 sec) 
Heartbeat CPU 0 instructions: 87000002 cycles: 85647642 heartbeat IPC: 0.621368 cumulative IPC: 0.622636 (Simulation time: 0 hr 58 min 40 sec) 
Heartbeat CPU 0 instructions: 88000000 cycles: 87270527 heartbeat IPC: 0.616185 cumulative IPC: 0.622464 (Simulation time: 0 hr 59 min 23 sec) 
Heartbeat CPU 0 instructions: 89000003 cycles: 88913144 heartbeat IPC: 0.608786 cumulative IPC: 0.622106 (Simulation time: 1 hr 0 min 7 sec) 
Heartbeat CPU 0 instructions: 90000000 cycles: 90559595 heartbeat IPC: 0.607365 cumulative IPC: 0.621729 (Simulation time: 1 hr 0 min 49 sec) 
Heartbeat CPU 0 instructions: 91000000 cycles: 92193900 heartbeat IPC: 0.611881 cumulative IPC: 0.621485 (Simulation time: 1 hr 1 min 33 sec) 
Heartbeat CPU 0 instructions: 92000000 cycles: 93806550 heartbeat IPC: 0.620097 cumulative IPC: 0.621451 (Simulation time: 1 hr 2 min 15 sec) 
Heartbeat CPU 0 instructions: 93000001 cycles: 95430305 heartbeat IPC: 0.615857 cumulative IPC: 0.62132 (Simulation time: 1 hr 2 min 55 sec) 
Heartbeat CPU 0 instructions: 94000000 cycles: 97039470 heartbeat IPC: 0.62144 cumulative IPC: 0.621323 (Simulation time: 1 hr 3 min 37 sec) 
Heartbeat CPU 0 instructions: 95000000 cycles: 98631803 heartbeat IPC: 0.628009 cumulative IPC: 0.62147 (Simulation time: 1 hr 4 min 21 sec) 
Heartbeat CPU 0 instructions: 96000000 cycles: 100243819 heartbeat IPC: 0.620341 cumulative IPC: 0.621445 (Simulation time: 1 hr 5 min 3 sec) 
Heartbeat CPU 0 instructions: 97000002 cycles: 101852188 heartbeat IPC: 0.621749 cumulative IPC: 0.621452 (Simulation time: 1 hr 5 min 43 sec) 
Heartbeat CPU 0 instructions: 98000000 cycles: 103479912 heartbeat IPC: 0.614354 cumulative IPC: 0.621302 (Simulation time: 1 hr 6 min 27 sec) 
Heartbeat CPU 0 instructions: 99000001 cycles: 105058997 heartbeat IPC: 0.633279 cumulative IPC: 0.621542 (Simulation time: 1 hr 7 min 8 sec) 
Heartbeat CPU 0 instructions: 100000000 cycles: 106685508 heartbeat IPC: 0.614812 cumulative IPC: 0.621406 (Simulation time: 1 hr 7 min 47 sec) 
Heartbeat CPU 0 instructions: 101000001 cycles: 108305173 heartbeat IPC: 0.617412 cumulative IPC: 0.621327 (Simulation time: 1 hr 8 min 27 sec) 
Heartbeat CPU 0 instructions: 102000000 cycles: 109924842 heartbeat IPC: 0.617409 cumulative IPC: 0.621252 (Simulation time: 1 hr 9 min 6 sec) 
Heartbeat CPU 0 instructions: 103000000 cycles: 111529731 heartbeat IPC: 0.623096 cumulative IPC: 0.621286 (Simulation time: 1 hr 9 min 44 sec) 
Heartbeat CPU 0 instructions: 104000000 cycles: 113148242 heartbeat IPC: 0.617852 cumulative IPC: 0.621222 (Simulation time: 1 hr 10 min 24 sec) 
Heartbeat CPU 0 instructions: 105000000 cycles: 114779332 heartbeat IPC: 0.613087 cumulative IPC: 0.621072 (Simulation time: 1 hr 11 min 5 sec) 
Heartbeat CPU 0 instructions: 106000001 cycles: 116396486 heartbeat IPC: 0.618371 cumulative IPC: 0.621024 (Simulation time: 1 hr 11 min 41 sec) 
Heartbeat CPU 0 instructions: 107000001 cycles: 118015147 heartbeat IPC: 0.617795 cumulative IPC: 0.620967 (Simulation time: 1 hr 12 min 19 sec) 
Heartbeat CPU 0 instructions: 108000000 cycles: 119636554 heartbeat IPC: 0.616748 cumulative IPC: 0.620894 (Simulation time: 1 hr 12 min 57 sec) 
Heartbeat CPU 0 instructions: 109000003 cycles: 121226121 heartbeat IPC: 0.629104 cumulative IPC: 0.621031 (Simulation time: 1 hr 13 min 32 sec) 
Heartbeat CPU 0 instructions: 110000002 cycles: 122835916 heartbeat IPC: 0.621197 cumulative IPC: 0.621034 (Simulation time: 1 hr 14 min 10 sec) 
Heartbeat CPU 0 instructions: 111000000 cycles: 124424207 heartbeat IPC: 0.629606 cumulative IPC: 0.621173 (Simulation time: 1 hr 14 min 44 sec) 
Heartbeat CPU 0 instructions: 112000000 cycles: 126029136 heartbeat IPC: 0.623081 cumulative IPC: 0.621203 (Simulation time: 1 hr 15 min 19 sec) 
Heartbeat CPU 0 instructions: 113000000 cycles: 127616204 heartbeat IPC: 0.630093 cumulative IPC: 0.621342 (Simulation time: 1 hr 15 min 53 sec) 
Heartbeat CPU 0 instructions: 114000000 cycles: 129212309 heartbeat IPC: 0.626525 cumulative IPC: 0.621423 (Simulation time: 1 hr 16 min 26 sec) 
Heartbeat CPU 0 instructions: 115000001 cycles: 130831043 heartbeat IPC: 0.617767 cumulative IPC: 0.621366 (Simulation time: 1 hr 16 min 57 sec) 
Heartbeat CPU 0 instructions: 116000000 cycles: 132417847 heartbeat IPC: 0.630197 cumulative IPC: 0.621498 (Simulation time: 1 hr 17 min 28 sec) 
Heartbeat CPU 0 instructions: 117000002 cycles: 134016507 heartbeat IPC: 0.625525 cumulative IPC: 0.621558 (Simulation time: 1 hr 17 min 58 sec) 
Heartbeat CPU 0 instructions: 118000003 cycles: 135621376 heartbeat IPC: 0.623104 cumulative IPC: 0.621581 (Simulation time: 1 hr 18 min 27 sec) 
Heartbeat CPU 0 instructions: 119000001 cycles: 137234172 heartbeat IPC: 0.62004 cumulative IPC: 0.621558 (Simulation time: 1 hr 18 min 53 sec) 
Heartbeat CPU 0 instructions: 120000000 cycles: 138875604 heartbeat IPC: 0.609224 cumulative IPC: 0.621378 (Simulation time: 1 hr 19 min 20 sec) 
Heartbeat CPU 0 instructions: 121000003 cycles: 140469953 heartbeat IPC: 0.627217 cumulative IPC: 0.62146 (Simulation time: 1 hr 19 min 46 sec) 
Heartbeat CPU 0 instructions: 122000002 cycles: 142092230 heartbeat IPC: 0.616417 cumulative IPC: 0.621389 (Simulation time: 1 hr 20 min 13 sec) 
Heartbeat CPU 0 instructions: 123000000 cycles: 143728343 heartbeat IPC: 0.611203 cumulative IPC: 0.621247 (Simulation time: 1 hr 20 min 38 sec) 
Heartbeat CPU 0 instructions: 124000000 cycles: 145337734 heartbeat IPC: 0.621353 cumulative IPC: 0.621249 (Simulation time: 1 hr 21 min 3 sec) 
Heartbeat CPU 0 instructions: 125000000 cycles: 146928854 heartbeat IPC: 0.628488 cumulative IPC: 0.621344 (Simulation time: 1 hr 21 min 27 sec) 
Heartbeat CPU 0 instructions: 126000000 cycles: 148517377 heartbeat IPC: 0.629516 cumulative IPC: 0.62145 (Simulation time: 1 hr 21 min 50 sec) 
Heartbeat CPU 0 instructions: 127000003 cycles: 150140756 heartbeat IPC: 0.616001 cumulative IPC: 0.621379 (Simulation time: 1 hr 22 min 13 sec) 
Heartbeat CPU 0 instructions: 128000000 cycles: 151768221 heartbeat IPC: 0.614451 cumulative IPC: 0.621289 (Simulation time: 1 hr 22 min 34 sec) 
Heartbeat CPU 0 instructions: 129000002 cycles: 153341239 heartbeat IPC: 0.635722 cumulative IPC: 0.621468 (Simulation time: 1 hr 22 min 54 sec) 
Heartbeat CPU 0 instructions: 130000000 cycles: 154954447 heartbeat IPC: 0.619882 cumulative IPC: 0.621448 (Simulation time: 1 hr 23 min 17 sec) 
Heartbeat CPU 0 instructions: 131000001 cycles: 156533692 heartbeat IPC: 0.633215 cumulative IPC: 0.621591 (Simulation time: 1 hr 23 min 39 sec) 
Heartbeat CPU 0 instructions: 132000000 cycles: 158152258 heartbeat IPC: 0.61783 cumulative IPC: 0.621544 (Simulation time: 1 hr 23 min 59 sec) 
Heartbeat CPU 0 instructions: 133000001 cycles: 159772476 heartbeat IPC: 0.617202 cumulative IPC: 0.621492 (Simulation time: 1 hr 24 min 20 sec) 
Heartbeat CPU 0 instructions: 134000003 cycles: 161403683 heartbeat IPC: 0.613044 cumulative IPC: 0.62139 (Simulation time: 1 hr 24 min 40 sec) 
Heartbeat CPU 0 instructions: 135000000 cycles: 163018397 heartbeat IPC: 0.619303 cumulative IPC: 0.621365 (Simulation time: 1 hr 24 min 58 sec) 
Heartbeat CPU 0 instructions: 136000000 cycles: 164624868 heartbeat IPC: 0.622482 cumulative IPC: 0.621378 (Simulation time: 1 hr 25 min 16 sec) 
Heartbeat CPU 0 instructions: 137000001 cycles: 166249881 heartbeat IPC: 0.61538 cumulative IPC: 0.621309 (Simulation time: 1 hr 25 min 35 sec) 
Heartbeat CPU 0 instructions: 138000002 cycles: 167843369 heartbeat IPC: 0.627555 cumulative IPC: 0.621379 (Simulation time: 1 hr 25 min 51 sec) 
Heartbeat CPU 0 instructions: 139000000 cycles: 169444884 heartbeat IPC: 0.624408 cumulative IPC: 0.621413 (Simulation time: 1 hr 26 min 7 sec) 
Heartbeat CPU 0 instructions: 140000000 cycles: 171060764 heartbeat IPC: 0.618858 cumulative IPC: 0.621384 (Simulation time: 1 hr 26 min 22 sec) 
Heartbeat CPU 0 instructions: 141000003 cycles: 172650591 heartbeat IPC: 0.629001 cumulative IPC: 0.621467 (Simulation time: 1 hr 26 min 35 sec) 
Heartbeat CPU 0 instructions: 142000001 cycles: 174260599 heartbeat IPC: 0.621114 cumulative IPC: 0.621463 (Simulation time: 1 hr 26 min 49 sec) 
Heartbeat CPU 0 instructions: 143000001 cycles: 175855101 heartbeat IPC: 0.627155 cumulative IPC: 0.621524 (Simulation time: 1 hr 27 min 3 sec) 
Heartbeat CPU 0 instructions: 144000000 cycles: 177441799 heartbeat IPC: 0.630239 cumulative IPC: 0.621615 (Simulation time: 1 hr 27 min 16 sec) 
Heartbeat CPU 0 instructions: 145000003 cycles: 179041752 heartbeat IPC: 0.62502 cumulative IPC: 0.621651 (Simulation time: 1 hr 27 min 28 sec) 
Heartbeat CPU 0 instructions: 146000000 cycles: 180637225 heartbeat IPC: 0.626772 cumulative IPC: 0.621704 (Simulation time: 1 hr 27 min 41 sec) 
Heartbeat CPU 0 instructions: 147000002 cycles: 182278266 heartbeat IPC: 0.609371 cumulative IPC: 0.621574 (Simulation time: 1 hr 27 min 53 sec) 
Heartbeat CPU 0 instructions: 148000000 cycles: 183879019 heartbeat IPC: 0.624705 cumulative IPC: 0.621606 (Simulation time: 1 hr 28 min 5 sec) 
Heartbeat CPU 0 instructions: 149000002 cycles: 185490259 heartbeat IPC: 0.620641 cumulative IPC: 0.621596 (Simulation time: 1 hr 28 min 16 sec) 
Heartbeat CPU 0 instructions: 150000003 cycles: 187123872 heartbeat IPC: 0.612141 cumulative IPC: 0.6215 (Simulation time: 1 hr 28 min 28 sec) 
Finished CPU 0 instructions: 100000002 cycles: 160901037 cummulative IPC: 0.6215 (Simulation time: 1 hr 28 min 28 sec) 

ChampSim completed all CPUs

Region of Interest Statistics

CPU 0 cummulative IPC: 0.6215 instructions: 100000002 cycles: 160901037
LLC TOTAL     ACCESS:    5406452  HIT:     229480  MISS:    5176972
LLC LOAD      ACCESS:     223254  HIT:      58127  MISS:     165127
LLC RFO       ACCESS:          0  HIT:          0  MISS:          0
LLC PREFETCH  ACCESS:    3748160  HIT:      31033  MISS:    3717127
LLC WRITEBACK ACCESS:    1435038  HIT:     140320  MISS:    1294718
OPTgen accesses: 11254
OPTgen hits: 3619
OPTgen hit rate: 32.1575


