
*** ChampSim Multicore Out-of-Order Simulator ***

Warmup Instructions: 50000000
Simulation Instructions: 100000000
Configuration: 2
Number of CPUs: 1
LLC sets: 2048
LLC ways: 16
Off-chip DRAM Channels: 1 Width: 64-bit Data Rate: 1600 MT/s

CPU 0 runs /datasets/cs240c-wi22-a00-public/data/Assignment2-gz/zeusmp_300B.trace.gz
CPU 0 L1D next line prefetcher
CPU 0 L2C IP-based stride prefetcher
Initialize Hawkeye state
Heartbeat CPU 0 instructions: 1000003 cycles: 509580 heartbeat IPC: 1.96241 cumulative IPC: 1.96241 (Simulation time: 0 hr 0 min 33 sec) 
Heartbeat CPU 0 instructions: 2000003 cycles: 1062148 heartbeat IPC: 1.80973 cumulative IPC: 1.88298 (Simulation time: 0 hr 1 min 4 sec) 
Heartbeat CPU 0 instructions: 3000002 cycles: 1606419 heartbeat IPC: 1.83732 cumulative IPC: 1.86751 (Simulation time: 0 hr 1 min 34 sec) 
Heartbeat CPU 0 instructions: 4000000 cycles: 2093208 heartbeat IPC: 2.05427 cumulative IPC: 1.91094 (Simulation time: 0 hr 2 min 3 sec) 
Heartbeat CPU 0 instructions: 5000001 cycles: 2575890 heartbeat IPC: 2.07176 cumulative IPC: 1.94108 (Simulation time: 0 hr 2 min 34 sec) 
Heartbeat CPU 0 instructions: 6000000 cycles: 3062578 heartbeat IPC: 2.0547 cumulative IPC: 1.95913 (Simulation time: 0 hr 3 min 9 sec) 
Heartbeat CPU 0 instructions: 7000001 cycles: 3590722 heartbeat IPC: 1.89342 cumulative IPC: 1.94947 (Simulation time: 0 hr 3 min 40 sec) 
Heartbeat CPU 0 instructions: 8000000 cycles: 4144748 heartbeat IPC: 1.80497 cumulative IPC: 1.93015 (Simulation time: 0 hr 4 min 7 sec) 
Heartbeat CPU 0 instructions: 9000000 cycles: 4672634 heartbeat IPC: 1.89435 cumulative IPC: 1.92611 (Simulation time: 0 hr 4 min 38 sec) 
Heartbeat CPU 0 instructions: 10000002 cycles: 5158923 heartbeat IPC: 2.05639 cumulative IPC: 1.93839 (Simulation time: 0 hr 5 min 12 sec) 
Heartbeat CPU 0 instructions: 11000003 cycles: 5643379 heartbeat IPC: 2.06417 cumulative IPC: 1.94919 (Simulation time: 0 hr 5 min 39 sec) 
Heartbeat CPU 0 instructions: 12000000 cycles: 6129754 heartbeat IPC: 2.05602 cumulative IPC: 1.95766 (Simulation time: 0 hr 6 min 9 sec) 
Heartbeat CPU 0 instructions: 13000001 cycles: 6673156 heartbeat IPC: 1.84026 cumulative IPC: 1.9481 (Simulation time: 0 hr 6 min 36 sec) 
Heartbeat CPU 0 instructions: 14000002 cycles: 7228998 heartbeat IPC: 1.79907 cumulative IPC: 1.93664 (Simulation time: 0 hr 7 min 4 sec) 
Heartbeat CPU 0 instructions: 15000002 cycles: 7738479 heartbeat IPC: 1.96278 cumulative IPC: 1.93837 (Simulation time: 0 hr 7 min 33 sec) 
Heartbeat CPU 0 instructions: 16000000 cycles: 8224652 heartbeat IPC: 2.05688 cumulative IPC: 1.94537 (Simulation time: 0 hr 8 min 3 sec) 
Heartbeat CPU 0 instructions: 17000003 cycles: 8709904 heartbeat IPC: 2.06079 cumulative IPC: 1.9518 (Simulation time: 0 hr 8 min 33 sec) 
Heartbeat CPU 0 instructions: 18000003 cycles: 9197015 heartbeat IPC: 2.05292 cumulative IPC: 1.95716 (Simulation time: 0 hr 8 min 59 sec) 
Heartbeat CPU 0 instructions: 19000003 cycles: 9756255 heartbeat IPC: 1.78814 cumulative IPC: 1.94747 (Simulation time: 0 hr 9 min 31 sec) 
Heartbeat CPU 0 instructions: 20000000 cycles: 10314648 heartbeat IPC: 1.79085 cumulative IPC: 1.93899 (Simulation time: 0 hr 10 min 0 sec) 
Heartbeat CPU 0 instructions: 21000003 cycles: 10806446 heartbeat IPC: 2.03336 cumulative IPC: 1.94328 (Simulation time: 0 hr 10 min 29 sec) 
Heartbeat CPU 0 instructions: 22000002 cycles: 11292584 heartbeat IPC: 2.05703 cumulative IPC: 1.94818 (Simulation time: 0 hr 10 min 56 sec) 
Heartbeat CPU 0 instructions: 23000001 cycles: 11778511 heartbeat IPC: 2.05792 cumulative IPC: 1.95271 (Simulation time: 0 hr 11 min 26 sec) 
Heartbeat CPU 0 instructions: 24000000 cycles: 12282985 heartbeat IPC: 1.98226 cumulative IPC: 1.95392 (Simulation time: 0 hr 11 min 56 sec) 
Heartbeat CPU 0 instructions: 25000000 cycles: 12841462 heartbeat IPC: 1.79058 cumulative IPC: 1.94682 (Simulation time: 0 hr 12 min 25 sec) 
Heartbeat CPU 0 instructions: 26000000 cycles: 13389587 heartbeat IPC: 1.8244 cumulative IPC: 1.94181 (Simulation time: 0 hr 12 min 56 sec) 
Heartbeat CPU 0 instructions: 27000002 cycles: 13876420 heartbeat IPC: 2.0541 cumulative IPC: 1.94575 (Simulation time: 0 hr 13 min 26 sec) 
Heartbeat CPU 0 instructions: 28000000 cycles: 14362450 heartbeat IPC: 2.05748 cumulative IPC: 1.94953 (Simulation time: 0 hr 13 min 54 sec) 
Heartbeat CPU 0 instructions: 29000003 cycles: 14849314 heartbeat IPC: 2.05397 cumulative IPC: 1.95295 (Simulation time: 0 hr 14 min 25 sec) 
Heartbeat CPU 0 instructions: 30000001 cycles: 15371496 heartbeat IPC: 1.91504 cumulative IPC: 1.95166 (Simulation time: 0 hr 14 min 51 sec) 
Heartbeat CPU 0 instructions: 31000000 cycles: 15930996 heartbeat IPC: 1.78731 cumulative IPC: 1.94589 (Simulation time: 0 hr 15 min 20 sec) 
Heartbeat CPU 0 instructions: 32000000 cycles: 16464234 heartbeat IPC: 1.87534 cumulative IPC: 1.94361 (Simulation time: 0 hr 15 min 47 sec) 
Heartbeat CPU 0 instructions: 33000000 cycles: 16950405 heartbeat IPC: 2.05689 cumulative IPC: 1.94686 (Simulation time: 0 hr 16 min 18 sec) 
Heartbeat CPU 0 instructions: 34000000 cycles: 17436981 heartbeat IPC: 2.05518 cumulative IPC: 1.94988 (Simulation time: 0 hr 16 min 48 sec) 
Heartbeat CPU 0 instructions: 35000000 cycles: 17923463 heartbeat IPC: 2.05557 cumulative IPC: 1.95275 (Simulation time: 0 hr 17 min 14 sec) 
Heartbeat CPU 0 instructions: 36000000 cycles: 18462474 heartbeat IPC: 1.85525 cumulative IPC: 1.9499 (Simulation time: 0 hr 17 min 42 sec) 
Heartbeat CPU 0 instructions: 37000003 cycles: 19022919 heartbeat IPC: 1.7843 cumulative IPC: 1.94502 (Simulation time: 0 hr 18 min 9 sec) 
Heartbeat CPU 0 instructions: 38000000 cycles: 19539026 heartbeat IPC: 1.93758 cumulative IPC: 1.94483 (Simulation time: 0 hr 18 min 40 sec) 
Heartbeat CPU 0 instructions: 39000003 cycles: 20025901 heartbeat IPC: 2.05392 cumulative IPC: 1.94748 (Simulation time: 0 hr 19 min 10 sec) 
Heartbeat CPU 0 instructions: 40000000 cycles: 20512498 heartbeat IPC: 2.05508 cumulative IPC: 1.95003 (Simulation time: 0 hr 19 min 42 sec) 
Heartbeat CPU 0 instructions: 41000000 cycles: 20998743 heartbeat IPC: 2.05658 cumulative IPC: 1.9525 (Simulation time: 0 hr 20 min 9 sec) 
Heartbeat CPU 0 instructions: 42000002 cycles: 21555829 heartbeat IPC: 1.79506 cumulative IPC: 1.94843 (Simulation time: 0 hr 20 min 40 sec) 
Heartbeat CPU 0 instructions: 43000002 cycles: 22116857 heartbeat IPC: 1.78244 cumulative IPC: 1.94422 (Simulation time: 0 hr 21 min 9 sec) 
Heartbeat CPU 0 instructions: 44000000 cycles: 22615141 heartbeat IPC: 2.00688 cumulative IPC: 1.9456 (Simulation time: 0 hr 21 min 37 sec) 
Heartbeat CPU 0 instructions: 45000003 cycles: 23101744 heartbeat IPC: 2.05507 cumulative IPC: 1.94791 (Simulation time: 0 hr 22 min 10 sec) 
Heartbeat CPU 0 instructions: 46000001 cycles: 23588153 heartbeat IPC: 2.05588 cumulative IPC: 1.95013 (Simulation time: 0 hr 22 min 41 sec) 
Heartbeat CPU 0 instructions: 47000000 cycles: 24086525 heartbeat IPC: 2.00653 cumulative IPC: 1.9513 (Simulation time: 0 hr 23 min 10 sec) 
Heartbeat CPU 0 instructions: 48000000 cycles: 24649791 heartbeat IPC: 1.77536 cumulative IPC: 1.94728 (Simulation time: 0 hr 23 min 41 sec) 
Heartbeat CPU 0 instructions: 49000002 cycles: 25206048 heartbeat IPC: 1.79773 cumulative IPC: 1.94398 (Simulation time: 0 hr 24 min 9 sec) 
Heartbeat CPU 0 instructions: 50000000 cycles: 25692611 heartbeat IPC: 2.05523 cumulative IPC: 1.94608 (Simulation time: 0 hr 24 min 36 sec) 

Warmup complete CPU 0 instructions: 50000004 cycles: 25692612 (Simulation time: 0 hr 24 min 36 sec) 

Heartbeat CPU 0 instructions: 51000002 cycles: 26375969 heartbeat IPC: 1.46336 cumulative IPC: 1.46336 (Simulation time: 0 hr 25 min 6 sec) 
Heartbeat CPU 0 instructions: 52000000 cycles: 27063681 heartbeat IPC: 1.45409 cumulative IPC: 1.45871 (Simulation time: 0 hr 25 min 37 sec) 
Heartbeat CPU 0 instructions: 53000000 cycles: 27813528 heartbeat IPC: 1.33361 cumulative IPC: 1.41448 (Simulation time: 0 hr 26 min 8 sec) 
Heartbeat CPU 0 instructions: 54000002 cycles: 28625908 heartbeat IPC: 1.23095 cumulative IPC: 1.36365 (Simulation time: 0 hr 26 min 43 sec) 
Heartbeat CPU 0 instructions: 55000001 cycles: 29401959 heartbeat IPC: 1.28857 cumulative IPC: 1.34795 (Simulation time: 0 hr 27 min 13 sec) 
Heartbeat CPU 0 instructions: 56000000 cycles: 30083987 heartbeat IPC: 1.46621 cumulative IPC: 1.36631 (Simulation time: 0 hr 27 min 43 sec) 
Heartbeat CPU 0 instructions: 57000000 cycles: 30770566 heartbeat IPC: 1.4565 cumulative IPC: 1.37851 (Simulation time: 0 hr 28 min 13 sec) 
Heartbeat CPU 0 instructions: 58000000 cycles: 31459272 heartbeat IPC: 1.452 cumulative IPC: 1.38728 (Simulation time: 0 hr 28 min 43 sec) 
Heartbeat CPU 0 instructions: 59000003 cycles: 32236111 heartbeat IPC: 1.28727 cumulative IPC: 1.37541 (Simulation time: 0 hr 29 min 21 sec) 
Heartbeat CPU 0 instructions: 60000000 cycles: 33048870 heartbeat IPC: 1.23037 cumulative IPC: 1.35939 (Simulation time: 0 hr 29 min 54 sec) 
Heartbeat CPU 0 instructions: 61000000 cycles: 33796233 heartbeat IPC: 1.33804 cumulative IPC: 1.35742 (Simulation time: 0 hr 30 min 24 sec) 
Heartbeat CPU 0 instructions: 62000002 cycles: 34478226 heartbeat IPC: 1.46629 cumulative IPC: 1.36587 (Simulation time: 0 hr 30 min 58 sec) 
Heartbeat CPU 0 instructions: 63000003 cycles: 35163630 heartbeat IPC: 1.45899 cumulative IPC: 1.37261 (Simulation time: 0 hr 31 min 30 sec) 
Heartbeat CPU 0 instructions: 64000000 cycles: 35845370 heartbeat IPC: 1.46683 cumulative IPC: 1.37894 (Simulation time: 0 hr 32 min 0 sec) 
Heartbeat CPU 0 instructions: 65000003 cycles: 36657500 heartbeat IPC: 1.23133 cumulative IPC: 1.368 (Simulation time: 0 hr 32 min 32 sec) 
Heartbeat CPU 0 instructions: 66000003 cycles: 37470091 heartbeat IPC: 1.23063 cumulative IPC: 1.35852 (Simulation time: 0 hr 33 min 3 sec) 
Heartbeat CPU 0 instructions: 67000002 cycles: 38186555 heartbeat IPC: 1.39574 cumulative IPC: 1.36066 (Simulation time: 0 hr 33 min 34 sec) 
Heartbeat CPU 0 instructions: 68000000 cycles: 38864477 heartbeat IPC: 1.47509 cumulative IPC: 1.36655 (Simulation time: 0 hr 34 min 6 sec) 
Heartbeat CPU 0 instructions: 69000000 cycles: 39549236 heartbeat IPC: 1.46037 cumulative IPC: 1.37119 (Simulation time: 0 hr 34 min 38 sec) 
Heartbeat CPU 0 instructions: 70000001 cycles: 40259106 heartbeat IPC: 1.40871 cumulative IPC: 1.37301 (Simulation time: 0 hr 35 min 10 sec) 
Heartbeat CPU 0 instructions: 71000001 cycles: 41068372 heartbeat IPC: 1.23569 cumulative IPC: 1.36579 (Simulation time: 0 hr 35 min 45 sec) 
Heartbeat CPU 0 instructions: 72000000 cycles: 41880255 heartbeat IPC: 1.2317 cumulative IPC: 1.35906 (Simulation time: 0 hr 36 min 15 sec) 
Heartbeat CPU 0 instructions: 73000003 cycles: 42567739 heartbeat IPC: 1.45458 cumulative IPC: 1.36295 (Simulation time: 0 hr 36 min 49 sec) 
Heartbeat CPU 0 instructions: 74000001 cycles: 43248575 heartbeat IPC: 1.46878 cumulative IPC: 1.36706 (Simulation time: 0 hr 37 min 23 sec) 
Heartbeat CPU 0 instructions: 75000003 cycles: 43932289 heartbeat IPC: 1.4626 cumulative IPC: 1.37064 (Simulation time: 0 hr 37 min 53 sec) 
Heartbeat CPU 0 instructions: 76000000 cycles: 44673993 heartbeat IPC: 1.34824 cumulative IPC: 1.36976 (Simulation time: 0 hr 38 min 24 sec) 
Heartbeat CPU 0 instructions: 77000001 cycles: 45486008 heartbeat IPC: 1.23151 cumulative IPC: 1.36409 (Simulation time: 0 hr 38 min 55 sec) 
Heartbeat CPU 0 instructions: 78000003 cycles: 46270877 heartbeat IPC: 1.2741 cumulative IPC: 1.36066 (Simulation time: 0 hr 39 min 30 sec) 
Heartbeat CPU 0 instructions: 79000001 cycles: 46949954 heartbeat IPC: 1.47258 cumulative IPC: 1.36423 (Simulation time: 0 hr 40 min 1 sec) 
Heartbeat CPU 0 instructions: 80000000 cycles: 47631126 heartbeat IPC: 1.46806 cumulative IPC: 1.36746 (Simulation time: 0 hr 40 min 30 sec) 
Heartbeat CPU 0 instructions: 81000000 cycles: 48313849 heartbeat IPC: 1.46472 cumulative IPC: 1.37039 (Simulation time: 0 hr 40 min 58 sec) 
Heartbeat CPU 0 instructions: 82000002 cycles: 49083807 heartbeat IPC: 1.29877 cumulative IPC: 1.36804 (Simulation time: 0 hr 41 min 29 sec) 
Heartbeat CPU 0 instructions: 83000001 cycles: 49895034 heartbeat IPC: 1.2327 cumulative IPC: 1.3635 (Simulation time: 0 hr 41 min 59 sec) 
Heartbeat CPU 0 instructions: 84000000 cycles: 50649751 heartbeat IPC: 1.325 cumulative IPC: 1.36234 (Simulation time: 0 hr 42 min 33 sec) 
Heartbeat CPU 0 instructions: 85000001 cycles: 51329770 heartbeat IPC: 1.47055 cumulative IPC: 1.36521 (Simulation time: 0 hr 43 min 3 sec) 
Heartbeat CPU 0 instructions: 86000002 cycles: 52013479 heartbeat IPC: 1.46261 cumulative IPC: 1.36774 (Simulation time: 0 hr 43 min 34 sec) 
Heartbeat CPU 0 instructions: 87000000 cycles: 52695593 heartbeat IPC: 1.46603 cumulative IPC: 1.37022 (Simulation time: 0 hr 44 min 6 sec) 
Heartbeat CPU 0 instructions: 88000000 cycles: 53493663 heartbeat IPC: 1.25302 cumulative IPC: 1.36685 (Simulation time: 0 hr 44 min 40 sec) 
Heartbeat CPU 0 instructions: 89000000 cycles: 54306591 heartbeat IPC: 1.23012 cumulative IPC: 1.36297 (Simulation time: 0 hr 45 min 15 sec) 
Heartbeat CPU 0 instructions: 90000002 cycles: 55033280 heartbeat IPC: 1.37611 cumulative IPC: 1.3633 (Simulation time: 0 hr 45 min 47 sec) 
Heartbeat CPU 0 instructions: 91000002 cycles: 55715295 heartbeat IPC: 1.46624 cumulative IPC: 1.36563 (Simulation time: 0 hr 46 min 19 sec) 
Heartbeat CPU 0 instructions: 92000000 cycles: 56397319 heartbeat IPC: 1.46622 cumulative IPC: 1.36787 (Simulation time: 0 hr 46 min 48 sec) 
Heartbeat CPU 0 instructions: 93000001 cycles: 57083600 heartbeat IPC: 1.45713 cumulative IPC: 1.36982 (Simulation time: 0 hr 47 min 17 sec) 
Heartbeat CPU 0 instructions: 94000000 cycles: 57907257 heartbeat IPC: 1.2141 cumulative IPC: 1.36584 (Simulation time: 0 hr 47 min 50 sec) 
Heartbeat CPU 0 instructions: 95000003 cycles: 58719788 heartbeat IPC: 1.23073 cumulative IPC: 1.36251 (Simulation time: 0 hr 48 min 23 sec) 
Heartbeat CPU 0 instructions: 96000000 cycles: 59417398 heartbeat IPC: 1.43346 cumulative IPC: 1.36398 (Simulation time: 0 hr 48 min 56 sec) 
Heartbeat CPU 0 instructions: 97000001 cycles: 60099205 heartbeat IPC: 1.46669 cumulative IPC: 1.36602 (Simulation time: 0 hr 49 min 27 sec) 
Heartbeat CPU 0 instructions: 98000000 cycles: 60785889 heartbeat IPC: 1.45627 cumulative IPC: 1.36778 (Simulation time: 0 hr 49 min 57 sec) 
Heartbeat CPU 0 instructions: 99000001 cycles: 61510918 heartbeat IPC: 1.37926 cumulative IPC: 1.36802 (Simulation time: 0 hr 50 min 27 sec) 
Heartbeat CPU 0 instructions: 100000000 cycles: 62323684 heartbeat IPC: 1.23037 cumulative IPC: 1.36496 (Simulation time: 0 hr 50 min 58 sec) 
Heartbeat CPU 0 instructions: 101000001 cycles: 63125070 heartbeat IPC: 1.24784 cumulative IPC: 1.36245 (Simulation time: 0 hr 51 min 29 sec) 
Heartbeat CPU 0 instructions: 102000003 cycles: 63804596 heartbeat IPC: 1.47162 cumulative IPC: 1.3644 (Simulation time: 0 hr 51 min 59 sec) 
Heartbeat CPU 0 instructions: 103000003 cycles: 64486537 heartbeat IPC: 1.4664 cumulative IPC: 1.36619 (Simulation time: 0 hr 52 min 28 sec) 
Heartbeat CPU 0 instructions: 104000000 cycles: 65166733 heartbeat IPC: 1.47016 cumulative IPC: 1.36798 (Simulation time: 0 hr 52 min 58 sec) 
Heartbeat CPU 0 instructions: 105000002 cycles: 65926925 heartbeat IPC: 1.31546 cumulative IPC: 1.36699 (Simulation time: 0 hr 53 min 29 sec) 
Heartbeat CPU 0 instructions: 106000002 cycles: 66734586 heartbeat IPC: 1.23814 cumulative IPC: 1.36446 (Simulation time: 0 hr 54 min 0 sec) 
Heartbeat CPU 0 instructions: 107000003 cycles: 67504053 heartbeat IPC: 1.2996 cumulative IPC: 1.36326 (Simulation time: 0 hr 54 min 31 sec) 
Heartbeat CPU 0 instructions: 108000000 cycles: 68183514 heartbeat IPC: 1.47175 cumulative IPC: 1.365 (Simulation time: 0 hr 55 min 1 sec) 
Heartbeat CPU 0 instructions: 109000001 cycles: 68866180 heartbeat IPC: 1.46485 cumulative IPC: 1.36658 (Simulation time: 0 hr 55 min 33 sec) 
Heartbeat CPU 0 instructions: 110000000 cycles: 69549258 heartbeat IPC: 1.46396 cumulative IPC: 1.36809 (Simulation time: 0 hr 56 min 2 sec) 
Heartbeat CPU 0 instructions: 111000002 cycles: 70340428 heartbeat IPC: 1.26395 cumulative IPC: 1.36625 (Simulation time: 0 hr 56 min 36 sec) 
Heartbeat CPU 0 instructions: 112000000 cycles: 71152349 heartbeat IPC: 1.23164 cumulative IPC: 1.36384 (Simulation time: 0 hr 57 min 7 sec) 
Heartbeat CPU 0 instructions: 113000001 cycles: 71888696 heartbeat IPC: 1.35806 cumulative IPC: 1.36375 (Simulation time: 0 hr 57 min 37 sec) 
Heartbeat CPU 0 instructions: 114000002 cycles: 72569782 heartbeat IPC: 1.46824 cumulative IPC: 1.36527 (Simulation time: 0 hr 58 min 9 sec) 
Heartbeat CPU 0 instructions: 115000003 cycles: 73254780 heartbeat IPC: 1.45986 cumulative IPC: 1.36663 (Simulation time: 0 hr 58 min 40 sec) 
Heartbeat CPU 0 instructions: 116000000 cycles: 73937211 heartbeat IPC: 1.46535 cumulative IPC: 1.36803 (Simulation time: 0 hr 59 min 10 sec) 
Heartbeat CPU 0 instructions: 117000000 cycles: 74756190 heartbeat IPC: 1.22103 cumulative IPC: 1.36557 (Simulation time: 0 hr 59 min 43 sec) 
Heartbeat CPU 0 instructions: 118000002 cycles: 75569201 heartbeat IPC: 1.23 cumulative IPC: 1.36337 (Simulation time: 1 hr 0 min 15 sec) 
Heartbeat CPU 0 instructions: 119000000 cycles: 76277094 heartbeat IPC: 1.41264 cumulative IPC: 1.36405 (Simulation time: 1 hr 0 min 45 sec) 
Heartbeat CPU 0 instructions: 120000000 cycles: 76957216 heartbeat IPC: 1.47032 cumulative IPC: 1.36546 (Simulation time: 1 hr 1 min 16 sec) 
Heartbeat CPU 0 instructions: 121000000 cycles: 77639068 heartbeat IPC: 1.46659 cumulative IPC: 1.36679 (Simulation time: 1 hr 1 min 45 sec) 
Heartbeat CPU 0 instructions: 122000003 cycles: 78352759 heartbeat IPC: 1.40117 cumulative IPC: 1.36726 (Simulation time: 1 hr 2 min 18 sec) 
Heartbeat CPU 0 instructions: 123000000 cycles: 79165635 heartbeat IPC: 1.2302 cumulative IPC: 1.36517 (Simulation time: 1 hr 2 min 50 sec) 
Heartbeat CPU 0 instructions: 124000000 cycles: 79975053 heartbeat IPC: 1.23546 cumulative IPC: 1.36324 (Simulation time: 1 hr 3 min 23 sec) 
Heartbeat CPU 0 instructions: 125000001 cycles: 80657180 heartbeat IPC: 1.466 cumulative IPC: 1.36452 (Simulation time: 1 hr 3 min 55 sec) 
Heartbeat CPU 0 instructions: 126000000 cycles: 81339530 heartbeat IPC: 1.46552 cumulative IPC: 1.36575 (Simulation time: 1 hr 4 min 25 sec) 
Heartbeat CPU 0 instructions: 127000003 cycles: 82021833 heartbeat IPC: 1.46563 cumulative IPC: 1.36696 (Simulation time: 1 hr 4 min 55 sec) 
Heartbeat CPU 0 instructions: 128000000 cycles: 82764432 heartbeat IPC: 1.34662 cumulative IPC: 1.3667 (Simulation time: 1 hr 5 min 25 sec) 
Heartbeat CPU 0 instructions: 129000002 cycles: 83578306 heartbeat IPC: 1.22869 cumulative IPC: 1.36476 (Simulation time: 1 hr 5 min 55 sec) 
Heartbeat CPU 0 instructions: 130000002 cycles: 84358871 heartbeat IPC: 1.28112 cumulative IPC: 1.36365 (Simulation time: 1 hr 6 min 28 sec) 
Heartbeat CPU 0 instructions: 131000003 cycles: 85040767 heartbeat IPC: 1.4665 cumulative IPC: 1.36483 (Simulation time: 1 hr 7 min 1 sec) 
Heartbeat CPU 0 instructions: 132000000 cycles: 85726222 heartbeat IPC: 1.45888 cumulative IPC: 1.3659 (Simulation time: 1 hr 7 min 32 sec) 
Heartbeat CPU 0 instructions: 133000003 cycles: 86409195 heartbeat IPC: 1.46419 cumulative IPC: 1.36701 (Simulation time: 1 hr 8 min 2 sec) 
Heartbeat CPU 0 instructions: 134000001 cycles: 87183820 heartbeat IPC: 1.29094 cumulative IPC: 1.36605 (Simulation time: 1 hr 8 min 32 sec) 
Heartbeat CPU 0 instructions: 135000001 cycles: 87996430 heartbeat IPC: 1.2306 cumulative IPC: 1.36428 (Simulation time: 1 hr 8 min 59 sec) 
Heartbeat CPU 0 instructions: 136000000 cycles: 88748706 heartbeat IPC: 1.3293 cumulative IPC: 1.36386 (Simulation time: 1 hr 9 min 25 sec) 
Heartbeat CPU 0 instructions: 137000003 cycles: 89431136 heartbeat IPC: 1.46536 cumulative IPC: 1.36495 (Simulation time: 1 hr 9 min 51 sec) 
Heartbeat CPU 0 instructions: 138000000 cycles: 90115529 heartbeat IPC: 1.46114 cumulative IPC: 1.36597 (Simulation time: 1 hr 10 min 18 sec) 
Heartbeat CPU 0 instructions: 139000002 cycles: 90802359 heartbeat IPC: 1.45597 cumulative IPC: 1.36692 (Simulation time: 1 hr 10 min 43 sec) 
Heartbeat CPU 0 instructions: 140000000 cycles: 91604983 heartbeat IPC: 1.24591 cumulative IPC: 1.36545 (Simulation time: 1 hr 11 min 8 sec) 
Heartbeat CPU 0 instructions: 141000003 cycles: 92412478 heartbeat IPC: 1.2384 cumulative IPC: 1.36391 (Simulation time: 1 hr 11 min 33 sec) 
Heartbeat CPU 0 instructions: 142000000 cycles: 93137062 heartbeat IPC: 1.3801 cumulative IPC: 1.36409 (Simulation time: 1 hr 11 min 58 sec) 
Heartbeat CPU 0 instructions: 143000001 cycles: 93819849 heartbeat IPC: 1.46459 cumulative IPC: 1.36509 (Simulation time: 1 hr 12 min 23 sec) 
Heartbeat CPU 0 instructions: 144000000 cycles: 94501906 heartbeat IPC: 1.46615 cumulative IPC: 1.36609 (Simulation time: 1 hr 12 min 48 sec) 
Heartbeat CPU 0 instructions: 145000001 cycles: 95209375 heartbeat IPC: 1.41349 cumulative IPC: 1.36658 (Simulation time: 1 hr 13 min 12 sec) 
Heartbeat CPU 0 instructions: 146000003 cycles: 96022561 heartbeat IPC: 1.22973 cumulative IPC: 1.36499 (Simulation time: 1 hr 13 min 37 sec) 
Heartbeat CPU 0 instructions: 147000001 cycles: 96833564 heartbeat IPC: 1.23304 cumulative IPC: 1.36349 (Simulation time: 1 hr 14 min 4 sec) 
Heartbeat CPU 0 instructions: 148000000 cycles: 97525641 heartbeat IPC: 1.44492 cumulative IPC: 1.36427 (Simulation time: 1 hr 14 min 30 sec) 
Heartbeat CPU 0 instructions: 149000002 cycles: 98208634 heartbeat IPC: 1.46415 cumulative IPC: 1.36522 (Simulation time: 1 hr 14 min 54 sec) 
Heartbeat CPU 0 instructions: 150000002 cycles: 98893440 heartbeat IPC: 1.46027 cumulative IPC: 1.3661 (Simulation time: 1 hr 15 min 20 sec) 
Finished CPU 0 instructions: 100000002 cycles: 73200829 cummulative IPC: 1.3661 (Simulation time: 1 hr 15 min 20 sec) 

ChampSim completed all CPUs

Region of Interest Statistics

CPU 0 cummulative IPC: 1.3661 instructions: 100000002 cycles: 73200829
LLC TOTAL     ACCESS:     631191  HIT:     301581  MISS:     329610
LLC LOAD      ACCESS:      36795  HIT:      25002  MISS:      11793
LLC RFO       ACCESS:     152051  HIT:      75849  MISS:      76202
LLC PREFETCH  ACCESS:     286647  HIT:      98636  MISS:     188011
LLC WRITEBACK ACCESS:     155698  HIT:     102094  MISS:      53604
OPTgen accesses: 4422
OPTgen hits: 3168
OPTgen hit rate: 71.6418


