
*** ChampSim Multicore Out-of-Order Simulator ***

Warmup Instructions: 50000000
Simulation Instructions: 100000000
Configuration: 2
Number of CPUs: 1
LLC sets: 2048
LLC ways: 16
Off-chip DRAM Channels: 1 Width: 64-bit Data Rate: 1600 MT/s

CPU 0 runs /datasets/cs240c-wi22-a00-public/data/Assignment2-gz/wrf_1228B.trace.gz
CPU 0 L1D next line prefetcher
CPU 0 L2C IP-based stride prefetcher
Initialize Hawkeye state
Heartbeat CPU 0 instructions: 1000003 cycles: 591062 heartbeat IPC: 1.69187 cumulative IPC: 1.69187 (Simulation time: 0 hr 0 min 40 sec) 
Heartbeat CPU 0 instructions: 2000003 cycles: 1111188 heartbeat IPC: 1.92261 cumulative IPC: 1.79988 (Simulation time: 0 hr 1 min 12 sec) 
Heartbeat CPU 0 instructions: 3000000 cycles: 1729166 heartbeat IPC: 1.61818 cumulative IPC: 1.73494 (Simulation time: 0 hr 1 min 46 sec) 
Heartbeat CPU 0 instructions: 4000000 cycles: 2349823 heartbeat IPC: 1.6112 cumulative IPC: 1.70226 (Simulation time: 0 hr 2 min 21 sec) 
Heartbeat CPU 0 instructions: 5000000 cycles: 3052185 heartbeat IPC: 1.42377 cumulative IPC: 1.63817 (Simulation time: 0 hr 3 min 1 sec) 
Heartbeat CPU 0 instructions: 6000000 cycles: 3612272 heartbeat IPC: 1.78544 cumulative IPC: 1.661 (Simulation time: 0 hr 3 min 37 sec) 
Heartbeat CPU 0 instructions: 7000001 cycles: 4165035 heartbeat IPC: 1.8091 cumulative IPC: 1.68066 (Simulation time: 0 hr 4 min 11 sec) 
Heartbeat CPU 0 instructions: 8000000 cycles: 4716400 heartbeat IPC: 1.81368 cumulative IPC: 1.69621 (Simulation time: 0 hr 4 min 43 sec) 
Heartbeat CPU 0 instructions: 9000002 cycles: 5266582 heartbeat IPC: 1.81758 cumulative IPC: 1.70889 (Simulation time: 0 hr 5 min 17 sec) 
Heartbeat CPU 0 instructions: 10000001 cycles: 5819478 heartbeat IPC: 1.80866 cumulative IPC: 1.71837 (Simulation time: 0 hr 5 min 49 sec) 
Heartbeat CPU 0 instructions: 11000002 cycles: 6373222 heartbeat IPC: 1.80589 cumulative IPC: 1.72597 (Simulation time: 0 hr 6 min 21 sec) 
Heartbeat CPU 0 instructions: 12000000 cycles: 6924069 heartbeat IPC: 1.81538 cumulative IPC: 1.73309 (Simulation time: 0 hr 6 min 52 sec) 
Heartbeat CPU 0 instructions: 13000003 cycles: 7475094 heartbeat IPC: 1.81481 cumulative IPC: 1.73911 (Simulation time: 0 hr 7 min 23 sec) 
Heartbeat CPU 0 instructions: 14000000 cycles: 7938735 heartbeat IPC: 2.15683 cumulative IPC: 1.76351 (Simulation time: 0 hr 7 min 54 sec) 
Heartbeat CPU 0 instructions: 15000002 cycles: 8329221 heartbeat IPC: 2.56092 cumulative IPC: 1.80089 (Simulation time: 0 hr 8 min 21 sec) 
Heartbeat CPU 0 instructions: 16000000 cycles: 8719686 heartbeat IPC: 2.56104 cumulative IPC: 1.83493 (Simulation time: 0 hr 8 min 48 sec) 
Heartbeat CPU 0 instructions: 17000001 cycles: 9108849 heartbeat IPC: 2.56962 cumulative IPC: 1.86632 (Simulation time: 0 hr 9 min 14 sec) 
Heartbeat CPU 0 instructions: 18000003 cycles: 9499580 heartbeat IPC: 2.55931 cumulative IPC: 1.89482 (Simulation time: 0 hr 9 min 40 sec) 
Heartbeat CPU 0 instructions: 19000001 cycles: 9889923 heartbeat IPC: 2.56184 cumulative IPC: 1.92115 (Simulation time: 0 hr 10 min 6 sec) 
Heartbeat CPU 0 instructions: 20000000 cycles: 10279435 heartbeat IPC: 2.56731 cumulative IPC: 1.94563 (Simulation time: 0 hr 10 min 31 sec) 
Heartbeat CPU 0 instructions: 21000003 cycles: 10669376 heartbeat IPC: 2.5645 cumulative IPC: 1.96825 (Simulation time: 0 hr 10 min 58 sec) 
Heartbeat CPU 0 instructions: 22000000 cycles: 11071706 heartbeat IPC: 2.48551 cumulative IPC: 1.98705 (Simulation time: 0 hr 11 min 26 sec) 
Heartbeat CPU 0 instructions: 23000003 cycles: 11599056 heartbeat IPC: 1.89628 cumulative IPC: 1.98292 (Simulation time: 0 hr 11 min 57 sec) 
Heartbeat CPU 0 instructions: 24000000 cycles: 12126777 heartbeat IPC: 1.89494 cumulative IPC: 1.97909 (Simulation time: 0 hr 12 min 27 sec) 
Heartbeat CPU 0 instructions: 25000000 cycles: 12654060 heartbeat IPC: 1.89651 cumulative IPC: 1.97565 (Simulation time: 0 hr 12 min 59 sec) 
Heartbeat CPU 0 instructions: 26000003 cycles: 13181040 heartbeat IPC: 1.89761 cumulative IPC: 1.97253 (Simulation time: 0 hr 13 min 29 sec) 
Heartbeat CPU 0 instructions: 27000001 cycles: 13707943 heartbeat IPC: 1.89788 cumulative IPC: 1.96966 (Simulation time: 0 hr 14 min 3 sec) 
Heartbeat CPU 0 instructions: 28000000 cycles: 14235000 heartbeat IPC: 1.89733 cumulative IPC: 1.96698 (Simulation time: 0 hr 14 min 34 sec) 
Heartbeat CPU 0 instructions: 29000003 cycles: 14865532 heartbeat IPC: 1.58597 cumulative IPC: 1.95082 (Simulation time: 0 hr 15 min 6 sec) 
Heartbeat CPU 0 instructions: 30000003 cycles: 15479038 heartbeat IPC: 1.62998 cumulative IPC: 1.93811 (Simulation time: 0 hr 15 min 43 sec) 
Heartbeat CPU 0 instructions: 31000001 cycles: 16036323 heartbeat IPC: 1.79441 cumulative IPC: 1.93311 (Simulation time: 0 hr 16 min 16 sec) 
Heartbeat CPU 0 instructions: 32000000 cycles: 16591913 heartbeat IPC: 1.79989 cumulative IPC: 1.92865 (Simulation time: 0 hr 16 min 56 sec) 
Heartbeat CPU 0 instructions: 33000001 cycles: 17212705 heartbeat IPC: 1.61085 cumulative IPC: 1.91719 (Simulation time: 0 hr 17 min 33 sec) 
Heartbeat CPU 0 instructions: 34000003 cycles: 17833271 heartbeat IPC: 1.61144 cumulative IPC: 1.90655 (Simulation time: 0 hr 18 min 7 sec) 
Heartbeat CPU 0 instructions: 35000002 cycles: 18516699 heartbeat IPC: 1.46321 cumulative IPC: 1.89019 (Simulation time: 0 hr 18 min 46 sec) 
Heartbeat CPU 0 instructions: 36000000 cycles: 19069515 heartbeat IPC: 1.80892 cumulative IPC: 1.88783 (Simulation time: 0 hr 19 min 18 sec) 
Heartbeat CPU 0 instructions: 37000001 cycles: 19623005 heartbeat IPC: 1.80672 cumulative IPC: 1.88554 (Simulation time: 0 hr 19 min 50 sec) 
Heartbeat CPU 0 instructions: 38000001 cycles: 20173198 heartbeat IPC: 1.81754 cumulative IPC: 1.88369 (Simulation time: 0 hr 20 min 24 sec) 
Heartbeat CPU 0 instructions: 39000002 cycles: 20724669 heartbeat IPC: 1.81333 cumulative IPC: 1.88182 (Simulation time: 0 hr 20 min 56 sec) 
Heartbeat CPU 0 instructions: 40000000 cycles: 21277129 heartbeat IPC: 1.81008 cumulative IPC: 1.87995 (Simulation time: 0 hr 21 min 28 sec) 
Heartbeat CPU 0 instructions: 41000000 cycles: 21829646 heartbeat IPC: 1.8099 cumulative IPC: 1.87818 (Simulation time: 0 hr 22 min 0 sec) 
Heartbeat CPU 0 instructions: 42000000 cycles: 22382127 heartbeat IPC: 1.81002 cumulative IPC: 1.8765 (Simulation time: 0 hr 22 min 32 sec) 
Heartbeat CPU 0 instructions: 43000000 cycles: 22932619 heartbeat IPC: 1.81656 cumulative IPC: 1.87506 (Simulation time: 0 hr 23 min 5 sec) 
Heartbeat CPU 0 instructions: 44000000 cycles: 23336466 heartbeat IPC: 2.47619 cumulative IPC: 1.88546 (Simulation time: 0 hr 23 min 36 sec) 
Heartbeat CPU 0 instructions: 45000000 cycles: 23725977 heartbeat IPC: 2.56732 cumulative IPC: 1.89666 (Simulation time: 0 hr 24 min 5 sec) 
Heartbeat CPU 0 instructions: 46000000 cycles: 24116102 heartbeat IPC: 2.56328 cumulative IPC: 1.90744 (Simulation time: 0 hr 24 min 33 sec) 
Heartbeat CPU 0 instructions: 47000002 cycles: 24506591 heartbeat IPC: 2.5609 cumulative IPC: 1.91785 (Simulation time: 0 hr 25 min 0 sec) 
Heartbeat CPU 0 instructions: 48000000 cycles: 24896702 heartbeat IPC: 2.56337 cumulative IPC: 1.92797 (Simulation time: 0 hr 25 min 28 sec) 
Heartbeat CPU 0 instructions: 49000001 cycles: 25285949 heartbeat IPC: 2.56907 cumulative IPC: 1.93784 (Simulation time: 0 hr 25 min 56 sec) 
Heartbeat CPU 0 instructions: 50000003 cycles: 25676613 heartbeat IPC: 2.55975 cumulative IPC: 1.9473 (Simulation time: 0 hr 26 min 24 sec) 

Warmup complete CPU 0 instructions: 50000003 cycles: 25676613 (Simulation time: 0 hr 26 min 24 sec) 

Heartbeat CPU 0 instructions: 51000001 cycles: 26511355 heartbeat IPC: 1.19797 cumulative IPC: 1.19797 (Simulation time: 0 hr 26 min 53 sec) 
Heartbeat CPU 0 instructions: 52000000 cycles: 27413622 heartbeat IPC: 1.10832 cumulative IPC: 1.1514 (Simulation time: 0 hr 27 min 23 sec) 
Heartbeat CPU 0 instructions: 53000002 cycles: 28362265 heartbeat IPC: 1.05414 cumulative IPC: 1.11705 (Simulation time: 0 hr 27 min 55 sec) 
Heartbeat CPU 0 instructions: 54000001 cycles: 29316803 heartbeat IPC: 1.04763 cumulative IPC: 1.09884 (Simulation time: 0 hr 28 min 30 sec) 
Heartbeat CPU 0 instructions: 55000001 cycles: 30236769 heartbeat IPC: 1.087 cumulative IPC: 1.09645 (Simulation time: 0 hr 29 min 4 sec) 
Heartbeat CPU 0 instructions: 56000000 cycles: 31182920 heartbeat IPC: 1.05691 cumulative IPC: 1.08966 (Simulation time: 0 hr 29 min 39 sec) 
Heartbeat CPU 0 instructions: 57000001 cycles: 32119426 heartbeat IPC: 1.0678 cumulative IPC: 1.08648 (Simulation time: 0 hr 30 min 9 sec) 
Heartbeat CPU 0 instructions: 58000000 cycles: 33049969 heartbeat IPC: 1.07464 cumulative IPC: 1.08499 (Simulation time: 0 hr 30 min 41 sec) 
Heartbeat CPU 0 instructions: 59000001 cycles: 34837080 heartbeat IPC: 0.559563 cumulative IPC: 0.982482 (Simulation time: 0 hr 31 min 21 sec) 
Heartbeat CPU 0 instructions: 60000000 cycles: 36260185 heartbeat IPC: 0.702688 cumulative IPC: 0.94486 (Simulation time: 0 hr 31 min 56 sec) 
Heartbeat CPU 0 instructions: 61000000 cycles: 38683674 heartbeat IPC: 0.412628 cumulative IPC: 0.845694 (Simulation time: 0 hr 32 min 40 sec) 
Heartbeat CPU 0 instructions: 62000001 cycles: 40344474 heartbeat IPC: 0.60212 cumulative IPC: 0.818115 (Simulation time: 0 hr 33 min 20 sec) 
Heartbeat CPU 0 instructions: 63000001 cycles: 41811408 heartbeat IPC: 0.681694 cumulative IPC: 0.805712 (Simulation time: 0 hr 33 min 56 sec) 
Heartbeat CPU 0 instructions: 64000000 cycles: 43268796 heartbeat IPC: 0.686158 cumulative IPC: 0.795808 (Simulation time: 0 hr 34 min 35 sec) 
Heartbeat CPU 0 instructions: 65000003 cycles: 44763620 heartbeat IPC: 0.668977 cumulative IPC: 0.785875 (Simulation time: 0 hr 35 min 13 sec) 
Heartbeat CPU 0 instructions: 66000000 cycles: 46259329 heartbeat IPC: 0.668577 cumulative IPC: 0.777351 (Simulation time: 0 hr 35 min 53 sec) 
Heartbeat CPU 0 instructions: 67000000 cycles: 47753855 heartbeat IPC: 0.669108 cumulative IPC: 0.770024 (Simulation time: 0 hr 36 min 32 sec) 
Heartbeat CPU 0 instructions: 68000000 cycles: 49248312 heartbeat IPC: 0.669139 cumulative IPC: 0.763627 (Simulation time: 0 hr 37 min 9 sec) 
Heartbeat CPU 0 instructions: 69000000 cycles: 50755648 heartbeat IPC: 0.663422 cumulative IPC: 0.757605 (Simulation time: 0 hr 37 min 51 sec) 
Heartbeat CPU 0 instructions: 70000001 cycles: 52252202 heartbeat IPC: 0.668202 cumulative IPC: 0.75257 (Simulation time: 0 hr 38 min 34 sec) 
Heartbeat CPU 0 instructions: 71000001 cycles: 53746269 heartbeat IPC: 0.669314 cumulative IPC: 0.748139 (Simulation time: 0 hr 39 min 12 sec) 
Heartbeat CPU 0 instructions: 72000000 cycles: 55229364 heartbeat IPC: 0.674265 cumulative IPC: 0.744431 (Simulation time: 0 hr 39 min 49 sec) 
Heartbeat CPU 0 instructions: 73000003 cycles: 56717076 heartbeat IPC: 0.672175 cumulative IPC: 0.740968 (Simulation time: 0 hr 40 min 28 sec) 
Heartbeat CPU 0 instructions: 74000000 cycles: 58214606 heartbeat IPC: 0.667764 cumulative IPC: 0.737599 (Simulation time: 0 hr 41 min 6 sec) 
Heartbeat CPU 0 instructions: 75000001 cycles: 59708614 heartbeat IPC: 0.669341 cumulative IPC: 0.734603 (Simulation time: 0 hr 41 min 45 sec) 
Heartbeat CPU 0 instructions: 76000000 cycles: 61205487 heartbeat IPC: 0.668059 cumulative IPC: 0.731799 (Simulation time: 0 hr 42 min 26 sec) 
Heartbeat CPU 0 instructions: 77000003 cycles: 62699283 heartbeat IPC: 0.669437 cumulative IPC: 0.729283 (Simulation time: 0 hr 43 min 5 sec) 
Heartbeat CPU 0 instructions: 78000001 cycles: 64194107 heartbeat IPC: 0.668974 cumulative IPC: 0.726942 (Simulation time: 0 hr 43 min 48 sec) 
Heartbeat CPU 0 instructions: 79000000 cycles: 65690831 heartbeat IPC: 0.668125 cumulative IPC: 0.724742 (Simulation time: 0 hr 44 min 31 sec) 
Heartbeat CPU 0 instructions: 80000000 cycles: 67181300 heartbeat IPC: 0.67093 cumulative IPC: 0.72281 (Simulation time: 0 hr 45 min 9 sec) 
Heartbeat CPU 0 instructions: 81000001 cycles: 68665352 heartbeat IPC: 0.673832 cumulative IPC: 0.721119 (Simulation time: 0 hr 45 min 48 sec) 
Heartbeat CPU 0 instructions: 82000000 cycles: 70148314 heartbeat IPC: 0.674325 cumulative IPC: 0.719559 (Simulation time: 0 hr 46 min 31 sec) 
Heartbeat CPU 0 instructions: 83000000 cycles: 71631661 heartbeat IPC: 0.674151 cumulative IPC: 0.718093 (Simulation time: 0 hr 47 min 10 sec) 
Heartbeat CPU 0 instructions: 84000000 cycles: 73126574 heartbeat IPC: 0.668935 cumulative IPC: 0.716544 (Simulation time: 0 hr 47 min 50 sec) 
Heartbeat CPU 0 instructions: 85000000 cycles: 74621455 heartbeat IPC: 0.66895 cumulative IPC: 0.715091 (Simulation time: 0 hr 48 min 28 sec) 
Heartbeat CPU 0 instructions: 86000000 cycles: 76115544 heartbeat IPC: 0.669304 cumulative IPC: 0.713734 (Simulation time: 0 hr 49 min 9 sec) 
Heartbeat CPU 0 instructions: 87000000 cycles: 77610775 heartbeat IPC: 0.668793 cumulative IPC: 0.71244 (Simulation time: 0 hr 49 min 46 sec) 
Heartbeat CPU 0 instructions: 88000000 cycles: 79105992 heartbeat IPC: 0.668799 cumulative IPC: 0.711219 (Simulation time: 0 hr 50 min 23 sec) 
Heartbeat CPU 0 instructions: 89000002 cycles: 80601621 heartbeat IPC: 0.668616 cumulative IPC: 0.710059 (Simulation time: 0 hr 51 min 6 sec) 
Heartbeat CPU 0 instructions: 90000000 cycles: 82085957 heartbeat IPC: 0.673701 cumulative IPC: 0.709102 (Simulation time: 0 hr 51 min 43 sec) 
Heartbeat CPU 0 instructions: 91000000 cycles: 83569577 heartbeat IPC: 0.674027 cumulative IPC: 0.708203 (Simulation time: 0 hr 52 min 21 sec) 
Heartbeat CPU 0 instructions: 92000000 cycles: 85053416 heartbeat IPC: 0.673928 cumulative IPC: 0.707347 (Simulation time: 0 hr 52 min 58 sec) 
Heartbeat CPU 0 instructions: 93000000 cycles: 86543158 heartbeat IPC: 0.671257 cumulative IPC: 0.706464 (Simulation time: 0 hr 53 min 38 sec) 
Heartbeat CPU 0 instructions: 94000003 cycles: 88037014 heartbeat IPC: 0.669411 cumulative IPC: 0.705576 (Simulation time: 0 hr 54 min 19 sec) 
Heartbeat CPU 0 instructions: 95000000 cycles: 89533154 heartbeat IPC: 0.668385 cumulative IPC: 0.704705 (Simulation time: 0 hr 54 min 57 sec) 
Heartbeat CPU 0 instructions: 96000000 cycles: 91027106 heartbeat IPC: 0.669366 cumulative IPC: 0.703897 (Simulation time: 0 hr 55 min 39 sec) 
Heartbeat CPU 0 instructions: 97000001 cycles: 92522655 heartbeat IPC: 0.668651 cumulative IPC: 0.703108 (Simulation time: 0 hr 56 min 14 sec) 
Heartbeat CPU 0 instructions: 98000003 cycles: 94017999 heartbeat IPC: 0.668744 cumulative IPC: 0.702356 (Simulation time: 0 hr 56 min 50 sec) 
Heartbeat CPU 0 instructions: 99000000 cycles: 95507100 heartbeat IPC: 0.671544 cumulative IPC: 0.701699 (Simulation time: 0 hr 57 min 27 sec) 
Heartbeat CPU 0 instructions: 100000000 cycles: 96990492 heartbeat IPC: 0.674131 cumulative IPC: 0.701126 (Simulation time: 0 hr 58 min 6 sec) 
Heartbeat CPU 0 instructions: 101000000 cycles: 98473701 heartbeat IPC: 0.674214 cumulative IPC: 0.700577 (Simulation time: 0 hr 58 min 41 sec) 
Heartbeat CPU 0 instructions: 102000003 cycles: 99957283 heartbeat IPC: 0.674046 cumulative IPC: 0.700048 (Simulation time: 0 hr 59 min 19 sec) 
Heartbeat CPU 0 instructions: 103000003 cycles: 101453542 heartbeat IPC: 0.668333 cumulative IPC: 0.699421 (Simulation time: 0 hr 59 min 55 sec) 
Heartbeat CPU 0 instructions: 104000000 cycles: 102948073 heartbeat IPC: 0.669104 cumulative IPC: 0.698835 (Simulation time: 1 hr 0 min 32 sec) 
Heartbeat CPU 0 instructions: 105000000 cycles: 104442883 heartbeat IPC: 0.668981 cumulative IPC: 0.698268 (Simulation time: 1 hr 1 min 12 sec) 
Heartbeat CPU 0 instructions: 106000000 cycles: 105937942 heartbeat IPC: 0.66887 cumulative IPC: 0.697721 (Simulation time: 1 hr 1 min 50 sec) 
Heartbeat CPU 0 instructions: 107000000 cycles: 107433781 heartbeat IPC: 0.668521 cumulative IPC: 0.697187 (Simulation time: 1 hr 2 min 28 sec) 
Heartbeat CPU 0 instructions: 108000000 cycles: 108929361 heartbeat IPC: 0.668637 cumulative IPC: 0.696674 (Simulation time: 1 hr 3 min 3 sec) 
Heartbeat CPU 0 instructions: 109000003 cycles: 110412207 heartbeat IPC: 0.674381 cumulative IPC: 0.696284 (Simulation time: 1 hr 3 min 39 sec) 
Heartbeat CPU 0 instructions: 110000001 cycles: 111895404 heartbeat IPC: 0.674218 cumulative IPC: 0.695904 (Simulation time: 1 hr 4 min 15 sec) 
Heartbeat CPU 0 instructions: 111000000 cycles: 113378983 heartbeat IPC: 0.674045 cumulative IPC: 0.695534 (Simulation time: 1 hr 4 min 53 sec) 
Heartbeat CPU 0 instructions: 112000000 cycles: 114870356 heartbeat IPC: 0.670523 cumulative IPC: 0.695116 (Simulation time: 1 hr 5 min 29 sec) 
Heartbeat CPU 0 instructions: 113000000 cycles: 116364316 heartbeat IPC: 0.669362 cumulative IPC: 0.694692 (Simulation time: 1 hr 6 min 7 sec) 
Heartbeat CPU 0 instructions: 114000000 cycles: 117860084 heartbeat IPC: 0.668553 cumulative IPC: 0.694268 (Simulation time: 1 hr 6 min 50 sec) 
Heartbeat CPU 0 instructions: 115000003 cycles: 119354177 heartbeat IPC: 0.669304 cumulative IPC: 0.693869 (Simulation time: 1 hr 7 min 28 sec) 
Heartbeat CPU 0 instructions: 116000000 cycles: 120850266 heartbeat IPC: 0.668407 cumulative IPC: 0.693469 (Simulation time: 1 hr 8 min 6 sec) 
Heartbeat CPU 0 instructions: 117000000 cycles: 122345858 heartbeat IPC: 0.668632 cumulative IPC: 0.693085 (Simulation time: 1 hr 8 min 40 sec) 
Heartbeat CPU 0 instructions: 118000000 cycles: 123833649 heartbeat IPC: 0.672137 cumulative IPC: 0.692767 (Simulation time: 1 hr 9 min 14 sec) 
Heartbeat CPU 0 instructions: 119000001 cycles: 125317563 heartbeat IPC: 0.673894 cumulative IPC: 0.692486 (Simulation time: 1 hr 9 min 48 sec) 
Heartbeat CPU 0 instructions: 120000000 cycles: 126800825 heartbeat IPC: 0.674189 cumulative IPC: 0.692218 (Simulation time: 1 hr 10 min 22 sec) 
Heartbeat CPU 0 instructions: 121000000 cycles: 128285538 heartbeat IPC: 0.673531 cumulative IPC: 0.691948 (Simulation time: 1 hr 10 min 54 sec) 
Heartbeat CPU 0 instructions: 122000002 cycles: 129784152 heartbeat IPC: 0.667285 cumulative IPC: 0.691593 (Simulation time: 1 hr 11 min 27 sec) 
Heartbeat CPU 0 instructions: 123000002 cycles: 131285725 heartbeat IPC: 0.665968 cumulative IPC: 0.691228 (Simulation time: 1 hr 12 min 2 sec) 
Heartbeat CPU 0 instructions: 124000000 cycles: 132783130 heartbeat IPC: 0.667821 cumulative IPC: 0.690901 (Simulation time: 1 hr 12 min 37 sec) 
Heartbeat CPU 0 instructions: 125000000 cycles: 134278923 heartbeat IPC: 0.668542 cumulative IPC: 0.690593 (Simulation time: 1 hr 13 min 11 sec) 
Heartbeat CPU 0 instructions: 126000000 cycles: 135792030 heartbeat IPC: 0.660892 cumulative IPC: 0.690185 (Simulation time: 1 hr 13 min 42 sec) 
Heartbeat CPU 0 instructions: 127000000 cycles: 137288948 heartbeat IPC: 0.668039 cumulative IPC: 0.689888 (Simulation time: 1 hr 14 min 16 sec) 
Heartbeat CPU 0 instructions: 128000000 cycles: 138779913 heartbeat IPC: 0.670707 cumulative IPC: 0.689635 (Simulation time: 1 hr 14 min 46 sec) 
Heartbeat CPU 0 instructions: 129000000 cycles: 140263560 heartbeat IPC: 0.674015 cumulative IPC: 0.689433 (Simulation time: 1 hr 15 min 18 sec) 
Heartbeat CPU 0 instructions: 130000001 cycles: 141753978 heartbeat IPC: 0.670953 cumulative IPC: 0.689196 (Simulation time: 1 hr 15 min 50 sec) 
Heartbeat CPU 0 instructions: 131000001 cycles: 143249129 heartbeat IPC: 0.668829 cumulative IPC: 0.688937 (Simulation time: 1 hr 16 min 19 sec) 
Heartbeat CPU 0 instructions: 132000000 cycles: 144744624 heartbeat IPC: 0.668674 cumulative IPC: 0.688682 (Simulation time: 1 hr 16 min 48 sec) 
Heartbeat CPU 0 instructions: 133000000 cycles: 146243035 heartbeat IPC: 0.667374 cumulative IPC: 0.688417 (Simulation time: 1 hr 17 min 17 sec) 
Heartbeat CPU 0 instructions: 134000000 cycles: 147737593 heartbeat IPC: 0.669094 cumulative IPC: 0.688181 (Simulation time: 1 hr 17 min 44 sec) 
Heartbeat CPU 0 instructions: 135000001 cycles: 149232830 heartbeat IPC: 0.668791 cumulative IPC: 0.687946 (Simulation time: 1 hr 18 min 11 sec) 
Heartbeat CPU 0 instructions: 136000000 cycles: 150730498 heartbeat IPC: 0.667704 cumulative IPC: 0.687704 (Simulation time: 1 hr 18 min 38 sec) 
Heartbeat CPU 0 instructions: 137000002 cycles: 152217159 heartbeat IPC: 0.67265 cumulative IPC: 0.687527 (Simulation time: 1 hr 19 min 3 sec) 
Heartbeat CPU 0 instructions: 138000001 cycles: 153701956 heartbeat IPC: 0.673492 cumulative IPC: 0.687364 (Simulation time: 1 hr 19 min 28 sec) 
Heartbeat CPU 0 instructions: 139000001 cycles: 155185685 heartbeat IPC: 0.673978 cumulative IPC: 0.687211 (Simulation time: 1 hr 19 min 53 sec) 
Heartbeat CPU 0 instructions: 140000000 cycles: 156671679 heartbeat IPC: 0.67295 cumulative IPC: 0.687049 (Simulation time: 1 hr 20 min 17 sec) 
Heartbeat CPU 0 instructions: 141000002 cycles: 158167805 heartbeat IPC: 0.668394 cumulative IPC: 0.686838 (Simulation time: 1 hr 20 min 41 sec) 
Heartbeat CPU 0 instructions: 142000000 cycles: 159662887 heartbeat IPC: 0.668858 cumulative IPC: 0.686637 (Simulation time: 1 hr 21 min 3 sec) 
Heartbeat CPU 0 instructions: 143000000 cycles: 161157290 heartbeat IPC: 0.669164 cumulative IPC: 0.686445 (Simulation time: 1 hr 21 min 23 sec) 
Heartbeat CPU 0 instructions: 144000000 cycles: 162652093 heartbeat IPC: 0.668984 cumulative IPC: 0.686254 (Simulation time: 1 hr 21 min 44 sec) 
Heartbeat CPU 0 instructions: 145000000 cycles: 164148333 heartbeat IPC: 0.668342 cumulative IPC: 0.686061 (Simulation time: 1 hr 22 min 5 sec) 
Heartbeat CPU 0 instructions: 146000000 cycles: 165640062 heartbeat IPC: 0.670363 cumulative IPC: 0.685893 (Simulation time: 1 hr 22 min 25 sec) 
Heartbeat CPU 0 instructions: 147000003 cycles: 167122903 heartbeat IPC: 0.674383 cumulative IPC: 0.685773 (Simulation time: 1 hr 22 min 45 sec) 
Heartbeat CPU 0 instructions: 148000000 cycles: 168607018 heartbeat IPC: 0.6738 cumulative IPC: 0.685648 (Simulation time: 1 hr 23 min 5 sec) 
Heartbeat CPU 0 instructions: 149000002 cycles: 170090502 heartbeat IPC: 0.67409 cumulative IPC: 0.68553 (Simulation time: 1 hr 23 min 25 sec) 
Heartbeat CPU 0 instructions: 150000001 cycles: 171584037 heartbeat IPC: 0.669552 cumulative IPC: 0.685366 (Simulation time: 1 hr 23 min 45 sec) 
Finished CPU 0 instructions: 100000001 cycles: 145907428 cummulative IPC: 0.685366 (Simulation time: 1 hr 23 min 45 sec) 

ChampSim completed all CPUs

Region of Interest Statistics

CPU 0 cummulative IPC: 0.685366 instructions: 100000001 cycles: 145907428
LLC TOTAL     ACCESS:     644681  HIT:     161984  MISS:     482697
LLC LOAD      ACCESS:      36121  HIT:      13085  MISS:      23036
LLC RFO       ACCESS:     120254  HIT:       3214  MISS:     117040
LLC PREFETCH  ACCESS:     305682  HIT:      64868  MISS:     240814
LLC WRITEBACK ACCESS:     182624  HIT:      80817  MISS:     101807
OPTgen accesses: 5901
OPTgen hits: 1578
OPTgen hit rate: 26.7412


