
*** ChampSim Multicore Out-of-Order Simulator ***

Warmup Instructions: 50000000
Simulation Instructions: 100000000
Configuration: 2
Number of CPUs: 1
LLC sets: 2048
LLC ways: 16
Off-chip DRAM Channels: 1 Width: 64-bit Data Rate: 1600 MT/s

CPU 0 runs /datasets/cs240c-wi22-a00-public/data/Assignment2-gz/libquantum_1210B.trace.gz
CPU 0 L1D next line prefetcher
CPU 0 L2C IP-based stride prefetcher
Initialize Hawkeye state
Heartbeat CPU 0 instructions: 1000003 cycles: 314916 heartbeat IPC: 3.17546 cumulative IPC: 3.17546 (Simulation time: 0 hr 0 min 18 sec) 
Heartbeat CPU 0 instructions: 2000000 cycles: 630170 heartbeat IPC: 3.17204 cumulative IPC: 3.17375 (Simulation time: 0 hr 0 min 36 sec) 
Heartbeat CPU 0 instructions: 3000001 cycles: 945979 heartbeat IPC: 3.16647 cumulative IPC: 3.17132 (Simulation time: 0 hr 0 min 53 sec) 
Heartbeat CPU 0 instructions: 4000000 cycles: 1260333 heartbeat IPC: 3.18112 cumulative IPC: 3.17376 (Simulation time: 0 hr 1 min 11 sec) 
Heartbeat CPU 0 instructions: 5000001 cycles: 1576818 heartbeat IPC: 3.15971 cumulative IPC: 3.17094 (Simulation time: 0 hr 1 min 30 sec) 
Heartbeat CPU 0 instructions: 6000002 cycles: 1891318 heartbeat IPC: 3.17965 cumulative IPC: 3.17239 (Simulation time: 0 hr 1 min 48 sec) 
Heartbeat CPU 0 instructions: 7000001 cycles: 2206981 heartbeat IPC: 3.16793 cumulative IPC: 3.17175 (Simulation time: 0 hr 2 min 6 sec) 
Heartbeat CPU 0 instructions: 8000000 cycles: 2522385 heartbeat IPC: 3.17053 cumulative IPC: 3.1716 (Simulation time: 0 hr 2 min 23 sec) 
Heartbeat CPU 0 instructions: 9000002 cycles: 2837144 heartbeat IPC: 3.17704 cumulative IPC: 3.1722 (Simulation time: 0 hr 2 min 40 sec) 
Heartbeat CPU 0 instructions: 10000003 cycles: 3153454 heartbeat IPC: 3.16146 cumulative IPC: 3.17113 (Simulation time: 0 hr 3 min 0 sec) 
Heartbeat CPU 0 instructions: 11000001 cycles: 3467723 heartbeat IPC: 3.18198 cumulative IPC: 3.17211 (Simulation time: 0 hr 3 min 18 sec) 
Heartbeat CPU 0 instructions: 12000000 cycles: 3783792 heartbeat IPC: 3.16386 cumulative IPC: 3.17142 (Simulation time: 0 hr 3 min 37 sec) 
Heartbeat CPU 0 instructions: 13000003 cycles: 4264651 heartbeat IPC: 2.07962 cumulative IPC: 3.04832 (Simulation time: 0 hr 4 min 1 sec) 
Heartbeat CPU 0 instructions: 14000001 cycles: 4772750 heartbeat IPC: 1.96812 cumulative IPC: 2.93332 (Simulation time: 0 hr 4 min 27 sec) 
Heartbeat CPU 0 instructions: 15000001 cycles: 5279404 heartbeat IPC: 1.97373 cumulative IPC: 2.84123 (Simulation time: 0 hr 4 min 52 sec) 
Heartbeat CPU 0 instructions: 16000000 cycles: 5788628 heartbeat IPC: 1.96377 cumulative IPC: 2.76404 (Simulation time: 0 hr 5 min 17 sec) 
Heartbeat CPU 0 instructions: 17000000 cycles: 6300340 heartbeat IPC: 1.95422 cumulative IPC: 2.69827 (Simulation time: 0 hr 5 min 40 sec) 
Heartbeat CPU 0 instructions: 18000000 cycles: 6813181 heartbeat IPC: 1.94992 cumulative IPC: 2.64194 (Simulation time: 0 hr 6 min 2 sec) 
Heartbeat CPU 0 instructions: 19000000 cycles: 7329886 heartbeat IPC: 1.93534 cumulative IPC: 2.59213 (Simulation time: 0 hr 6 min 25 sec) 
Heartbeat CPU 0 instructions: 20000000 cycles: 7838604 heartbeat IPC: 1.96573 cumulative IPC: 2.55147 (Simulation time: 0 hr 6 min 49 sec) 
Heartbeat CPU 0 instructions: 21000000 cycles: 8346694 heartbeat IPC: 1.96816 cumulative IPC: 2.51597 (Simulation time: 0 hr 7 min 11 sec) 
Heartbeat CPU 0 instructions: 22000003 cycles: 8854702 heartbeat IPC: 1.96848 cumulative IPC: 2.48456 (Simulation time: 0 hr 7 min 36 sec) 
Heartbeat CPU 0 instructions: 23000000 cycles: 9359706 heartbeat IPC: 1.98018 cumulative IPC: 2.45734 (Simulation time: 0 hr 7 min 59 sec) 
Heartbeat CPU 0 instructions: 24000000 cycles: 9870274 heartbeat IPC: 1.9586 cumulative IPC: 2.43154 (Simulation time: 0 hr 8 min 24 sec) 
Heartbeat CPU 0 instructions: 25000000 cycles: 10381727 heartbeat IPC: 1.95521 cumulative IPC: 2.40808 (Simulation time: 0 hr 8 min 46 sec) 
Heartbeat CPU 0 instructions: 26000000 cycles: 10894380 heartbeat IPC: 1.95064 cumulative IPC: 2.38655 (Simulation time: 0 hr 9 min 10 sec) 
Heartbeat CPU 0 instructions: 27000000 cycles: 11402733 heartbeat IPC: 1.96714 cumulative IPC: 2.36785 (Simulation time: 0 hr 9 min 34 sec) 
Heartbeat CPU 0 instructions: 28000000 cycles: 11888633 heartbeat IPC: 2.05804 cumulative IPC: 2.35519 (Simulation time: 0 hr 9 min 57 sec) 
Heartbeat CPU 0 instructions: 29000002 cycles: 12227942 heartbeat IPC: 2.94717 cumulative IPC: 2.37162 (Simulation time: 0 hr 10 min 18 sec) 
Heartbeat CPU 0 instructions: 30000001 cycles: 12567351 heartbeat IPC: 2.94629 cumulative IPC: 2.38714 (Simulation time: 0 hr 10 min 39 sec) 
Heartbeat CPU 0 instructions: 31000000 cycles: 12906765 heartbeat IPC: 2.94625 cumulative IPC: 2.40184 (Simulation time: 0 hr 10 min 58 sec) 
Heartbeat CPU 0 instructions: 32000000 cycles: 13246170 heartbeat IPC: 2.94633 cumulative IPC: 2.41579 (Simulation time: 0 hr 11 min 19 sec) 
Heartbeat CPU 0 instructions: 33000000 cycles: 13585580 heartbeat IPC: 2.94629 cumulative IPC: 2.42905 (Simulation time: 0 hr 11 min 39 sec) 
Heartbeat CPU 0 instructions: 34000002 cycles: 13924990 heartbeat IPC: 2.9463 cumulative IPC: 2.44165 (Simulation time: 0 hr 11 min 59 sec) 
Heartbeat CPU 0 instructions: 35000001 cycles: 14264402 heartbeat IPC: 2.94627 cumulative IPC: 2.45366 (Simulation time: 0 hr 12 min 18 sec) 
Heartbeat CPU 0 instructions: 36000000 cycles: 14603579 heartbeat IPC: 2.94831 cumulative IPC: 2.46515 (Simulation time: 0 hr 12 min 37 sec) 
Heartbeat CPU 0 instructions: 37000003 cycles: 14942923 heartbeat IPC: 2.94687 cumulative IPC: 2.47609 (Simulation time: 0 hr 12 min 59 sec) 
Heartbeat CPU 0 instructions: 38000002 cycles: 15282332 heartbeat IPC: 2.94629 cumulative IPC: 2.48653 (Simulation time: 0 hr 13 min 23 sec) 
Heartbeat CPU 0 instructions: 39000001 cycles: 15621741 heartbeat IPC: 2.94629 cumulative IPC: 2.49652 (Simulation time: 0 hr 13 min 44 sec) 
Heartbeat CPU 0 instructions: 40000000 cycles: 15961150 heartbeat IPC: 2.94629 cumulative IPC: 2.50609 (Simulation time: 0 hr 14 min 6 sec) 
Heartbeat CPU 0 instructions: 41000001 cycles: 16300562 heartbeat IPC: 2.94627 cumulative IPC: 2.51525 (Simulation time: 0 hr 14 min 25 sec) 
Heartbeat CPU 0 instructions: 42000000 cycles: 16639971 heartbeat IPC: 2.94629 cumulative IPC: 2.52404 (Simulation time: 0 hr 14 min 44 sec) 
Heartbeat CPU 0 instructions: 43000002 cycles: 16979381 heartbeat IPC: 2.9463 cumulative IPC: 2.53248 (Simulation time: 0 hr 15 min 3 sec) 
Heartbeat CPU 0 instructions: 44000000 cycles: 17318790 heartbeat IPC: 2.94629 cumulative IPC: 2.54059 (Simulation time: 0 hr 15 min 26 sec) 
Heartbeat CPU 0 instructions: 45000000 cycles: 17658199 heartbeat IPC: 2.9463 cumulative IPC: 2.54839 (Simulation time: 0 hr 15 min 47 sec) 
Heartbeat CPU 0 instructions: 46000003 cycles: 17997609 heartbeat IPC: 2.9463 cumulative IPC: 2.5559 (Simulation time: 0 hr 16 min 8 sec) 
Heartbeat CPU 0 instructions: 47000001 cycles: 18375885 heartbeat IPC: 2.64357 cumulative IPC: 2.5577 (Simulation time: 0 hr 16 min 30 sec) 
Heartbeat CPU 0 instructions: 48000000 cycles: 18872032 heartbeat IPC: 2.01553 cumulative IPC: 2.54345 (Simulation time: 0 hr 16 min 52 sec) 
Heartbeat CPU 0 instructions: 49000000 cycles: 19364826 heartbeat IPC: 2.02925 cumulative IPC: 2.53036 (Simulation time: 0 hr 17 min 16 sec) 
Heartbeat CPU 0 instructions: 50000001 cycles: 19865461 heartbeat IPC: 1.99747 cumulative IPC: 2.51693 (Simulation time: 0 hr 17 min 38 sec) 

Warmup complete CPU 0 instructions: 50000001 cycles: 19865461 (Simulation time: 0 hr 17 min 38 sec) 

Heartbeat CPU 0 instructions: 51000000 cycles: 22176193 heartbeat IPC: 0.432763 cumulative IPC: 0.432763 (Simulation time: 0 hr 18 min 10 sec) 
Heartbeat CPU 0 instructions: 52000000 cycles: 24502406 heartbeat IPC: 0.429883 cumulative IPC: 0.431318 (Simulation time: 0 hr 18 min 45 sec) 
Heartbeat CPU 0 instructions: 53000003 cycles: 26762436 heartbeat IPC: 0.442473 cumulative IPC: 0.434974 (Simulation time: 0 hr 19 min 16 sec) 
Heartbeat CPU 0 instructions: 54000003 cycles: 29028862 heartbeat IPC: 0.441223 cumulative IPC: 0.436519 (Simulation time: 0 hr 19 min 47 sec) 
Heartbeat CPU 0 instructions: 55000002 cycles: 31299896 heartbeat IPC: 0.440328 cumulative IPC: 0.437276 (Simulation time: 0 hr 20 min 19 sec) 
Heartbeat CPU 0 instructions: 56000000 cycles: 33594527 heartbeat IPC: 0.435799 cumulative IPC: 0.437029 (Simulation time: 0 hr 20 min 53 sec) 
Heartbeat CPU 0 instructions: 57000001 cycles: 35914232 heartbeat IPC: 0.43109 cumulative IPC: 0.43617 (Simulation time: 0 hr 21 min 24 sec) 
Heartbeat CPU 0 instructions: 58000000 cycles: 37636485 heartbeat IPC: 0.580634 cumulative IPC: 0.450171 (Simulation time: 0 hr 21 min 53 sec) 
Heartbeat CPU 0 instructions: 59000000 cycles: 39927931 heartbeat IPC: 0.436406 cumulative IPC: 0.448599 (Simulation time: 0 hr 22 min 24 sec) 
Heartbeat CPU 0 instructions: 60000000 cycles: 42207892 heartbeat IPC: 0.438604 cumulative IPC: 0.447579 (Simulation time: 0 hr 23 min 0 sec) 
Heartbeat CPU 0 instructions: 61000001 cycles: 44481944 heartbeat IPC: 0.439744 cumulative IPC: 0.446855 (Simulation time: 0 hr 23 min 31 sec) 
Heartbeat CPU 0 instructions: 62000000 cycles: 46780961 heartbeat IPC: 0.434968 cumulative IPC: 0.44584 (Simulation time: 0 hr 24 min 1 sec) 
Heartbeat CPU 0 instructions: 63000001 cycles: 48829461 heartbeat IPC: 0.488163 cumulative IPC: 0.448833 (Simulation time: 0 hr 24 min 30 sec) 
Heartbeat CPU 0 instructions: 64000000 cycles: 50956572 heartbeat IPC: 0.470121 cumulative IPC: 0.450289 (Simulation time: 0 hr 24 min 58 sec) 
Heartbeat CPU 0 instructions: 65000000 cycles: 53072839 heartbeat IPC: 0.47253 cumulative IPC: 0.451707 (Simulation time: 0 hr 25 min 29 sec) 
Heartbeat CPU 0 instructions: 66000001 cycles: 55227927 heartbeat IPC: 0.464019 cumulative IPC: 0.452457 (Simulation time: 0 hr 25 min 58 sec) 
Heartbeat CPU 0 instructions: 67000000 cycles: 57327845 heartbeat IPC: 0.476209 cumulative IPC: 0.453788 (Simulation time: 0 hr 26 min 27 sec) 
Heartbeat CPU 0 instructions: 68000000 cycles: 59484893 heartbeat IPC: 0.463597 cumulative IPC: 0.454322 (Simulation time: 0 hr 26 min 55 sec) 
Heartbeat CPU 0 instructions: 69000002 cycles: 61630530 heartbeat IPC: 0.466063 cumulative IPC: 0.454926 (Simulation time: 0 hr 27 min 23 sec) 
Heartbeat CPU 0 instructions: 70000001 cycles: 63724960 heartbeat IPC: 0.477456 cumulative IPC: 0.456002 (Simulation time: 0 hr 27 min 51 sec) 
Heartbeat CPU 0 instructions: 71000000 cycles: 65857586 heartbeat IPC: 0.468905 cumulative IPC: 0.4566 (Simulation time: 0 hr 28 min 21 sec) 
Heartbeat CPU 0 instructions: 72000000 cycles: 67954183 heartbeat IPC: 0.476963 cumulative IPC: 0.457488 (Simulation time: 0 hr 28 min 52 sec) 
Heartbeat CPU 0 instructions: 73000002 cycles: 70065315 heartbeat IPC: 0.47368 cumulative IPC: 0.458169 (Simulation time: 0 hr 29 min 22 sec) 
Heartbeat CPU 0 instructions: 74000002 cycles: 72173632 heartbeat IPC: 0.474312 cumulative IPC: 0.458819 (Simulation time: 0 hr 29 min 50 sec) 
Heartbeat CPU 0 instructions: 75000001 cycles: 74315409 heartbeat IPC: 0.466902 cumulative IPC: 0.459137 (Simulation time: 0 hr 30 min 16 sec) 
Heartbeat CPU 0 instructions: 76000000 cycles: 76145618 heartbeat IPC: 0.546385 cumulative IPC: 0.461975 (Simulation time: 0 hr 30 min 42 sec) 
Heartbeat CPU 0 instructions: 77000000 cycles: 77872610 heartbeat IPC: 0.579041 cumulative IPC: 0.46546 (Simulation time: 0 hr 31 min 9 sec) 
Heartbeat CPU 0 instructions: 78000002 cycles: 80030422 heartbeat IPC: 0.463433 cumulative IPC: 0.465387 (Simulation time: 0 hr 31 min 35 sec) 
Heartbeat CPU 0 instructions: 79000001 cycles: 82137394 heartbeat IPC: 0.474614 cumulative IPC: 0.465699 (Simulation time: 0 hr 32 min 2 sec) 
Heartbeat CPU 0 instructions: 80000000 cycles: 84251097 heartbeat IPC: 0.473103 cumulative IPC: 0.465942 (Simulation time: 0 hr 32 min 30 sec) 
Heartbeat CPU 0 instructions: 81000000 cycles: 86378455 heartbeat IPC: 0.470067 cumulative IPC: 0.466074 (Simulation time: 0 hr 32 min 58 sec) 
Heartbeat CPU 0 instructions: 82000000 cycles: 88468492 heartbeat IPC: 0.47846 cumulative IPC: 0.466452 (Simulation time: 0 hr 33 min 26 sec) 
Heartbeat CPU 0 instructions: 83000001 cycles: 90716468 heartbeat IPC: 0.444845 cumulative IPC: 0.465766 (Simulation time: 0 hr 33 min 56 sec) 
Heartbeat CPU 0 instructions: 84000000 cycles: 93198187 heartbeat IPC: 0.402946 cumulative IPC: 0.46364 (Simulation time: 0 hr 34 min 26 sec) 
Heartbeat CPU 0 instructions: 85000001 cycles: 95685299 heartbeat IPC: 0.402073 cumulative IPC: 0.461621 (Simulation time: 0 hr 34 min 56 sec) 
Heartbeat CPU 0 instructions: 86000001 cycles: 98175429 heartbeat IPC: 0.401585 cumulative IPC: 0.459712 (Simulation time: 0 hr 35 min 27 sec) 
Heartbeat CPU 0 instructions: 87000003 cycles: 100685088 heartbeat IPC: 0.398461 cumulative IPC: 0.45781 (Simulation time: 0 hr 36 min 1 sec) 
Heartbeat CPU 0 instructions: 88000000 cycles: 103164786 heartbeat IPC: 0.403274 cumulative IPC: 0.456186 (Simulation time: 0 hr 36 min 32 sec) 
Heartbeat CPU 0 instructions: 89000001 cycles: 105643144 heartbeat IPC: 0.403493 cumulative IPC: 0.454664 (Simulation time: 0 hr 37 min 6 sec) 
Heartbeat CPU 0 instructions: 90000000 cycles: 108119470 heartbeat IPC: 0.403824 cumulative IPC: 0.453237 (Simulation time: 0 hr 37 min 41 sec) 
Heartbeat CPU 0 instructions: 91000002 cycles: 110558600 heartbeat IPC: 0.409983 cumulative IPC: 0.452074 (Simulation time: 0 hr 38 min 11 sec) 
Heartbeat CPU 0 instructions: 92000000 cycles: 113034107 heartbeat IPC: 0.403957 cumulative IPC: 0.450795 (Simulation time: 0 hr 38 min 43 sec) 
Heartbeat CPU 0 instructions: 93000003 cycles: 115333538 heartbeat IPC: 0.434891 cumulative IPC: 0.450412 (Simulation time: 0 hr 39 min 14 sec) 
Heartbeat CPU 0 instructions: 94000000 cycles: 117357349 heartbeat IPC: 0.494116 cumulative IPC: 0.45132 (Simulation time: 0 hr 39 min 43 sec) 
Heartbeat CPU 0 instructions: 95000002 cycles: 119864073 heartbeat IPC: 0.398928 cumulative IPC: 0.450006 (Simulation time: 0 hr 40 min 14 sec) 
Heartbeat CPU 0 instructions: 96000000 cycles: 122324460 heartbeat IPC: 0.406439 cumulative IPC: 0.44896 (Simulation time: 0 hr 40 min 45 sec) 
Heartbeat CPU 0 instructions: 97000001 cycles: 124843005 heartbeat IPC: 0.397055 cumulative IPC: 0.447715 (Simulation time: 0 hr 41 min 16 sec) 
Heartbeat CPU 0 instructions: 98000002 cycles: 127264951 heartbeat IPC: 0.412892 cumulative IPC: 0.44693 (Simulation time: 0 hr 41 min 48 sec) 
Heartbeat CPU 0 instructions: 99000002 cycles: 128794598 heartbeat IPC: 0.653746 cumulative IPC: 0.449834 (Simulation time: 0 hr 42 min 19 sec) 
Heartbeat CPU 0 instructions: 100000000 cycles: 130211592 heartbeat IPC: 0.705718 cumulative IPC: 0.45312 (Simulation time: 0 hr 42 min 49 sec) 
Heartbeat CPU 0 instructions: 101000000 cycles: 131629132 heartbeat IPC: 0.705447 cumulative IPC: 0.45632 (Simulation time: 0 hr 43 min 19 sec) 
Heartbeat CPU 0 instructions: 102000003 cycles: 133055726 heartbeat IPC: 0.700972 cumulative IPC: 0.459403 (Simulation time: 0 hr 43 min 49 sec) 
Heartbeat CPU 0 instructions: 103000002 cycles: 134482322 heartbeat IPC: 0.700969 cumulative IPC: 0.46241 (Simulation time: 0 hr 44 min 16 sec) 
Heartbeat CPU 0 instructions: 104000000 cycles: 135908986 heartbeat IPC: 0.700934 cumulative IPC: 0.465343 (Simulation time: 0 hr 44 min 47 sec) 
Heartbeat CPU 0 instructions: 105000000 cycles: 137316819 heartbeat IPC: 0.710312 cumulative IPC: 0.468279 (Simulation time: 0 hr 45 min 17 sec) 
Heartbeat CPU 0 instructions: 106000001 cycles: 138737954 heartbeat IPC: 0.703664 cumulative IPC: 0.471093 (Simulation time: 0 hr 45 min 50 sec) 
Heartbeat CPU 0 instructions: 107000000 cycles: 140152642 heartbeat IPC: 0.706869 cumulative IPC: 0.473866 (Simulation time: 0 hr 46 min 18 sec) 
Heartbeat CPU 0 instructions: 108000000 cycles: 141567391 heartbeat IPC: 0.706839 cumulative IPC: 0.476574 (Simulation time: 0 hr 46 min 47 sec) 
Heartbeat CPU 0 instructions: 109000001 cycles: 142979762 heartbeat IPC: 0.70803 cumulative IPC: 0.479229 (Simulation time: 0 hr 47 min 20 sec) 
Heartbeat CPU 0 instructions: 110000000 cycles: 144406354 heartbeat IPC: 0.700971 cumulative IPC: 0.481769 (Simulation time: 0 hr 47 min 52 sec) 
Heartbeat CPU 0 instructions: 111000003 cycles: 145637330 heartbeat IPC: 0.812366 cumulative IPC: 0.485005 (Simulation time: 0 hr 48 min 22 sec) 
Heartbeat CPU 0 instructions: 112000000 cycles: 146864602 heartbeat IPC: 0.814813 cumulative IPC: 0.488192 (Simulation time: 0 hr 48 min 53 sec) 
Heartbeat CPU 0 instructions: 113000001 cycles: 148285355 heartbeat IPC: 0.703853 cumulative IPC: 0.490578 (Simulation time: 0 hr 49 min 27 sec) 
Heartbeat CPU 0 instructions: 114000000 cycles: 149706387 heartbeat IPC: 0.703713 cumulative IPC: 0.492911 (Simulation time: 0 hr 49 min 57 sec) 
Heartbeat CPU 0 instructions: 115000000 cycles: 151108829 heartbeat IPC: 0.713042 cumulative IPC: 0.495263 (Simulation time: 0 hr 50 min 27 sec) 
Heartbeat CPU 0 instructions: 116000000 cycles: 152535420 heartbeat IPC: 0.700972 cumulative IPC: 0.497475 (Simulation time: 0 hr 50 min 58 sec) 
Heartbeat CPU 0 instructions: 117000000 cycles: 153915513 heartbeat IPC: 0.724589 cumulative IPC: 0.499813 (Simulation time: 0 hr 51 min 30 sec) 
Heartbeat CPU 0 instructions: 118000000 cycles: 156096041 heartbeat IPC: 0.458605 cumulative IPC: 0.499154 (Simulation time: 0 hr 52 min 2 sec) 
Heartbeat CPU 0 instructions: 119000000 cycles: 158373551 heartbeat IPC: 0.439076 cumulative IPC: 0.498166 (Simulation time: 0 hr 52 min 34 sec) 
Heartbeat CPU 0 instructions: 120000000 cycles: 160672899 heartbeat IPC: 0.434906 cumulative IPC: 0.497133 (Simulation time: 0 hr 53 min 4 sec) 
Heartbeat CPU 0 instructions: 121000003 cycles: 162983335 heartbeat IPC: 0.43282 cumulative IPC: 0.496095 (Simulation time: 0 hr 53 min 38 sec) 
Heartbeat CPU 0 instructions: 122000000 cycles: 165302110 heartbeat IPC: 0.431261 cumulative IPC: 0.495061 (Simulation time: 0 hr 54 min 11 sec) 
Heartbeat CPU 0 instructions: 123000001 cycles: 167578577 heartbeat IPC: 0.439278 cumulative IPC: 0.494201 (Simulation time: 0 hr 54 min 44 sec) 
Heartbeat CPU 0 instructions: 124000000 cycles: 169850945 heartbeat IPC: 0.440069 cumulative IPC: 0.493381 (Simulation time: 0 hr 55 min 18 sec) 
Heartbeat CPU 0 instructions: 125000001 cycles: 172123624 heartbeat IPC: 0.44001 cumulative IPC: 0.492584 (Simulation time: 0 hr 55 min 50 sec) 
Heartbeat CPU 0 instructions: 126000001 cycles: 174408040 heartbeat IPC: 0.437749 cumulative IPC: 0.491774 (Simulation time: 0 hr 56 min 24 sec) 
Heartbeat CPU 0 instructions: 127000003 cycles: 176714775 heartbeat IPC: 0.433514 cumulative IPC: 0.490917 (Simulation time: 0 hr 56 min 55 sec) 
Heartbeat CPU 0 instructions: 128000000 cycles: 178516677 heartbeat IPC: 0.554967 cumulative IPC: 0.491645 (Simulation time: 0 hr 57 min 28 sec) 
Heartbeat CPU 0 instructions: 129000002 cycles: 180735097 heartbeat IPC: 0.450772 cumulative IPC: 0.491081 (Simulation time: 0 hr 57 min 56 sec) 
Heartbeat CPU 0 instructions: 130000002 cycles: 183028380 heartbeat IPC: 0.436056 cumulative IPC: 0.490307 (Simulation time: 0 hr 58 min 25 sec) 
Heartbeat CPU 0 instructions: 131000002 cycles: 185289197 heartbeat IPC: 0.442318 cumulative IPC: 0.489652 (Simulation time: 0 hr 58 min 56 sec) 
Heartbeat CPU 0 instructions: 132000000 cycles: 187606552 heartbeat IPC: 0.431526 cumulative IPC: 0.488849 (Simulation time: 0 hr 59 min 27 sec) 
Heartbeat CPU 0 instructions: 133000000 cycles: 189559729 heartbeat IPC: 0.511986 cumulative IPC: 0.489115 (Simulation time: 0 hr 59 min 56 sec) 
Heartbeat CPU 0 instructions: 134000003 cycles: 191061056 heartbeat IPC: 0.666079 cumulative IPC: 0.490667 (Simulation time: 1 hr 0 min 25 sec) 
Heartbeat CPU 0 instructions: 135000002 cycles: 192562993 heartbeat IPC: 0.665806 cumulative IPC: 0.49219 (Simulation time: 1 hr 1 min 2 sec) 
Heartbeat CPU 0 instructions: 136000000 cycles: 194063858 heartbeat IPC: 0.666281 cumulative IPC: 0.49369 (Simulation time: 1 hr 1 min 37 sec) 
Heartbeat CPU 0 instructions: 137000000 cycles: 195573901 heartbeat IPC: 0.662233 cumulative IPC: 0.495138 (Simulation time: 1 hr 2 min 6 sec) 
Heartbeat CPU 0 instructions: 138000001 cycles: 197084024 heartbeat IPC: 0.662198 cumulative IPC: 0.496562 (Simulation time: 1 hr 2 min 36 sec) 
Heartbeat CPU 0 instructions: 139000000 cycles: 198593944 heartbeat IPC: 0.662286 cumulative IPC: 0.497962 (Simulation time: 1 hr 3 min 8 sec) 
Heartbeat CPU 0 instructions: 140000000 cycles: 200080962 heartbeat IPC: 0.672487 cumulative IPC: 0.499402 (Simulation time: 1 hr 3 min 38 sec) 
Heartbeat CPU 0 instructions: 141000001 cycles: 201526599 heartbeat IPC: 0.691737 cumulative IPC: 0.500933 (Simulation time: 1 hr 4 min 9 sec) 
Heartbeat CPU 0 instructions: 142000000 cycles: 203029047 heartbeat IPC: 0.66558 cumulative IPC: 0.502283 (Simulation time: 1 hr 4 min 38 sec) 
Heartbeat CPU 0 instructions: 143000003 cycles: 204508977 heartbeat IPC: 0.67571 cumulative IPC: 0.503673 (Simulation time: 1 hr 5 min 9 sec) 
Heartbeat CPU 0 instructions: 144000000 cycles: 206018427 heartbeat IPC: 0.662491 cumulative IPC: 0.504961 (Simulation time: 1 hr 5 min 38 sec) 
Heartbeat CPU 0 instructions: 145000001 cycles: 207521386 heartbeat IPC: 0.665355 cumulative IPC: 0.506246 (Simulation time: 1 hr 6 min 8 sec) 
Heartbeat CPU 0 instructions: 146000000 cycles: 208636066 heartbeat IPC: 0.897118 cumulative IPC: 0.508554 (Simulation time: 1 hr 6 min 37 sec) 
Heartbeat CPU 0 instructions: 147000001 cycles: 210095869 heartbeat IPC: 0.685025 cumulative IPC: 0.509908 (Simulation time: 1 hr 7 min 5 sec) 
Heartbeat CPU 0 instructions: 148000000 cycles: 211599138 heartbeat IPC: 0.665216 cumulative IPC: 0.511126 (Simulation time: 1 hr 7 min 35 sec) 
Heartbeat CPU 0 instructions: 149000002 cycles: 213074456 heartbeat IPC: 0.677821 cumulative IPC: 0.512398 (Simulation time: 1 hr 8 min 4 sec) 
Heartbeat CPU 0 instructions: 150000001 cycles: 214584376 heartbeat IPC: 0.662286 cumulative IPC: 0.513561 (Simulation time: 1 hr 8 min 33 sec) 
Finished CPU 0 instructions: 100000000 cycles: 194718915 cummulative IPC: 0.513561 (Simulation time: 1 hr 8 min 33 sec) 

ChampSim completed all CPUs

Region of Interest Statistics

CPU 0 cummulative IPC: 0.513561 instructions: 100000000 cycles: 194718915
LLC TOTAL     ACCESS:    3948315  HIT:     282788  MISS:    3665527
LLC LOAD      ACCESS:     889923  HIT:      52609  MISS:     837314
LLC RFO       ACCESS:         21  HIT:         21  MISS:          0
LLC PREFETCH  ACCESS:    2103981  HIT:     125545  MISS:    1978436
LLC WRITEBACK ACCESS:     954390  HIT:     104613  MISS:     849777
OPTgen accesses: 15141
OPTgen hits: 305
OPTgen hit rate: 2.0144


