
*** ChampSim Multicore Out-of-Order Simulator ***

Warmup Instructions: 50000000
Simulation Instructions: 100000000
Configuration: 2
Number of CPUs: 1
LLC sets: 2048
LLC ways: 16
Off-chip DRAM Channels: 1 Width: 64-bit Data Rate: 1600 MT/s

CPU 0 runs /datasets/cs240c-wi22-a00-public/data/Assignment2-gz/cactusADM_1495B.trace.gz
CPU 0 L1D next line prefetcher
CPU 0 L2C IP-based stride prefetcher
Initialize Hawkeye state
Heartbeat CPU 0 instructions: 1000003 cycles: 593383 heartbeat IPC: 1.68526 cumulative IPC: 1.68526 (Simulation time: 0 hr 0 min 43 sec) 
Heartbeat CPU 0 instructions: 2000000 cycles: 1186345 heartbeat IPC: 1.68644 cumulative IPC: 1.68585 (Simulation time: 0 hr 1 min 23 sec) 
Heartbeat CPU 0 instructions: 3000003 cycles: 1779703 heartbeat IPC: 1.68533 cumulative IPC: 1.68568 (Simulation time: 0 hr 2 min 2 sec) 
Heartbeat CPU 0 instructions: 4000000 cycles: 2372522 heartbeat IPC: 1.68685 cumulative IPC: 1.68597 (Simulation time: 0 hr 2 min 47 sec) 
Heartbeat CPU 0 instructions: 5000000 cycles: 2965579 heartbeat IPC: 1.68618 cumulative IPC: 1.68601 (Simulation time: 0 hr 3 min 32 sec) 
Heartbeat CPU 0 instructions: 6000001 cycles: 3558796 heartbeat IPC: 1.68573 cumulative IPC: 1.68596 (Simulation time: 0 hr 4 min 39 sec) 
Heartbeat CPU 0 instructions: 7000000 cycles: 4151738 heartbeat IPC: 1.6865 cumulative IPC: 1.68604 (Simulation time: 0 hr 5 min 43 sec) 
Heartbeat CPU 0 instructions: 8000000 cycles: 4906756 heartbeat IPC: 1.32447 cumulative IPC: 1.63041 (Simulation time: 0 hr 6 min 55 sec) 
Heartbeat CPU 0 instructions: 9000002 cycles: 5499951 heartbeat IPC: 1.68579 cumulative IPC: 1.63638 (Simulation time: 0 hr 7 min 59 sec) 
Heartbeat CPU 0 instructions: 10000002 cycles: 6092875 heartbeat IPC: 1.68656 cumulative IPC: 1.64126 (Simulation time: 0 hr 9 min 3 sec) 
Heartbeat CPU 0 instructions: 11000001 cycles: 6686003 heartbeat IPC: 1.68598 cumulative IPC: 1.64523 (Simulation time: 0 hr 10 min 15 sec) 
Heartbeat CPU 0 instructions: 12000000 cycles: 7279160 heartbeat IPC: 1.68589 cumulative IPC: 1.64854 (Simulation time: 0 hr 11 min 29 sec) 
Heartbeat CPU 0 instructions: 13000001 cycles: 7872066 heartbeat IPC: 1.68661 cumulative IPC: 1.65141 (Simulation time: 0 hr 12 min 38 sec) 
Heartbeat CPU 0 instructions: 14000003 cycles: 8465333 heartbeat IPC: 1.68559 cumulative IPC: 1.6538 (Simulation time: 0 hr 13 min 49 sec) 
Heartbeat CPU 0 instructions: 15000001 cycles: 9058423 heartbeat IPC: 1.68608 cumulative IPC: 1.65592 (Simulation time: 0 hr 14 min 58 sec) 
Heartbeat CPU 0 instructions: 16000000 cycles: 9651692 heartbeat IPC: 1.68557 cumulative IPC: 1.65774 (Simulation time: 0 hr 16 min 4 sec) 
Heartbeat CPU 0 instructions: 17000002 cycles: 10244678 heartbeat IPC: 1.68638 cumulative IPC: 1.6594 (Simulation time: 0 hr 17 min 13 sec) 
Heartbeat CPU 0 instructions: 18000000 cycles: 10837661 heartbeat IPC: 1.68639 cumulative IPC: 1.66087 (Simulation time: 0 hr 18 min 21 sec) 
Heartbeat CPU 0 instructions: 19000002 cycles: 11430673 heartbeat IPC: 1.68631 cumulative IPC: 1.66219 (Simulation time: 0 hr 19 min 31 sec) 
Heartbeat CPU 0 instructions: 20000000 cycles: 12024040 heartbeat IPC: 1.68529 cumulative IPC: 1.66333 (Simulation time: 0 hr 20 min 44 sec) 
Heartbeat CPU 0 instructions: 21000002 cycles: 12765400 heartbeat IPC: 1.34888 cumulative IPC: 1.64507 (Simulation time: 0 hr 22 min 4 sec) 
Heartbeat CPU 0 instructions: 22000003 cycles: 13370382 heartbeat IPC: 1.65294 cumulative IPC: 1.64543 (Simulation time: 0 hr 23 min 11 sec) 
Heartbeat CPU 0 instructions: 23000000 cycles: 13963073 heartbeat IPC: 1.68721 cumulative IPC: 1.6472 (Simulation time: 0 hr 24 min 16 sec) 
Heartbeat CPU 0 instructions: 24000000 cycles: 14556762 heartbeat IPC: 1.68438 cumulative IPC: 1.64872 (Simulation time: 0 hr 25 min 21 sec) 
Heartbeat CPU 0 instructions: 25000002 cycles: 15149908 heartbeat IPC: 1.68593 cumulative IPC: 1.65018 (Simulation time: 0 hr 26 min 23 sec) 
Heartbeat CPU 0 instructions: 26000003 cycles: 15742480 heartbeat IPC: 1.68756 cumulative IPC: 1.65158 (Simulation time: 0 hr 27 min 33 sec) 
Heartbeat CPU 0 instructions: 27000001 cycles: 16335570 heartbeat IPC: 1.68608 cumulative IPC: 1.65283 (Simulation time: 0 hr 28 min 39 sec) 
Heartbeat CPU 0 instructions: 28000000 cycles: 16928659 heartbeat IPC: 1.68609 cumulative IPC: 1.654 (Simulation time: 0 hr 29 min 44 sec) 
Heartbeat CPU 0 instructions: 29000002 cycles: 17521818 heartbeat IPC: 1.68589 cumulative IPC: 1.65508 (Simulation time: 0 hr 30 min 56 sec) 
Heartbeat CPU 0 instructions: 30000002 cycles: 18114925 heartbeat IPC: 1.68604 cumulative IPC: 1.65609 (Simulation time: 0 hr 31 min 57 sec) 
Heartbeat CPU 0 instructions: 31000002 cycles: 18708194 heartbeat IPC: 1.68558 cumulative IPC: 1.65703 (Simulation time: 0 hr 33 min 7 sec) 
Heartbeat CPU 0 instructions: 32000000 cycles: 19301571 heartbeat IPC: 1.68527 cumulative IPC: 1.6579 (Simulation time: 0 hr 34 min 11 sec) 
Heartbeat CPU 0 instructions: 33000001 cycles: 19894296 heartbeat IPC: 1.68712 cumulative IPC: 1.65877 (Simulation time: 0 hr 35 min 20 sec) 
Heartbeat CPU 0 instructions: 34000002 cycles: 20606304 heartbeat IPC: 1.40448 cumulative IPC: 1.64998 (Simulation time: 0 hr 36 min 35 sec) 
Heartbeat CPU 0 instructions: 35000001 cycles: 21242262 heartbeat IPC: 1.57243 cumulative IPC: 1.64766 (Simulation time: 0 hr 37 min 47 sec) 
Heartbeat CPU 0 instructions: 36000000 cycles: 21835333 heartbeat IPC: 1.68614 cumulative IPC: 1.6487 (Simulation time: 0 hr 38 min 50 sec) 
Heartbeat CPU 0 instructions: 37000000 cycles: 22428138 heartbeat IPC: 1.6869 cumulative IPC: 1.64971 (Simulation time: 0 hr 39 min 52 sec) 
Heartbeat CPU 0 instructions: 38000003 cycles: 23021090 heartbeat IPC: 1.68648 cumulative IPC: 1.65066 (Simulation time: 0 hr 41 min 0 sec) 
Heartbeat CPU 0 instructions: 39000002 cycles: 23614397 heartbeat IPC: 1.68547 cumulative IPC: 1.65153 (Simulation time: 0 hr 42 min 4 sec) 
Heartbeat CPU 0 instructions: 40000000 cycles: 24207294 heartbeat IPC: 1.68663 cumulative IPC: 1.65239 (Simulation time: 0 hr 43 min 11 sec) 
Heartbeat CPU 0 instructions: 41000002 cycles: 24800193 heartbeat IPC: 1.68663 cumulative IPC: 1.65321 (Simulation time: 0 hr 44 min 16 sec) 
Heartbeat CPU 0 instructions: 42000000 cycles: 25393120 heartbeat IPC: 1.68654 cumulative IPC: 1.65399 (Simulation time: 0 hr 45 min 23 sec) 
Heartbeat CPU 0 instructions: 43000000 cycles: 25986116 heartbeat IPC: 1.68635 cumulative IPC: 1.65473 (Simulation time: 0 hr 46 min 26 sec) 
Heartbeat CPU 0 instructions: 44000000 cycles: 26578959 heartbeat IPC: 1.68679 cumulative IPC: 1.65544 (Simulation time: 0 hr 47 min 34 sec) 
Heartbeat CPU 0 instructions: 45000003 cycles: 27171945 heartbeat IPC: 1.68639 cumulative IPC: 1.65612 (Simulation time: 0 hr 48 min 40 sec) 
Heartbeat CPU 0 instructions: 46000001 cycles: 27765076 heartbeat IPC: 1.68596 cumulative IPC: 1.65676 (Simulation time: 0 hr 49 min 41 sec) 
Heartbeat CPU 0 instructions: 47000001 cycles: 28445153 heartbeat IPC: 1.47042 cumulative IPC: 1.6523 (Simulation time: 0 hr 50 min 59 sec) 
Heartbeat CPU 0 instructions: 48000000 cycles: 29112099 heartbeat IPC: 1.49937 cumulative IPC: 1.6488 (Simulation time: 0 hr 52 min 11 sec) 
Heartbeat CPU 0 instructions: 49000001 cycles: 29705046 heartbeat IPC: 1.68649 cumulative IPC: 1.64955 (Simulation time: 0 hr 53 min 16 sec) 
Heartbeat CPU 0 instructions: 50000003 cycles: 30297971 heartbeat IPC: 1.68656 cumulative IPC: 1.65028 (Simulation time: 0 hr 54 min 20 sec) 

Warmup complete CPU 0 instructions: 50000003 cycles: 30297971 (Simulation time: 0 hr 54 min 20 sec) 

Heartbeat CPU 0 instructions: 51000000 cycles: 31985133 heartbeat IPC: 0.59271 cumulative IPC: 0.59271 (Simulation time: 0 hr 55 min 38 sec) 
Heartbeat CPU 0 instructions: 52000000 cycles: 33664805 heartbeat IPC: 0.595354 cumulative IPC: 0.594029 (Simulation time: 0 hr 56 min 48 sec) 
Heartbeat CPU 0 instructions: 53000003 cycles: 35402673 heartbeat IPC: 0.575419 cumulative IPC: 0.587693 (Simulation time: 0 hr 58 min 3 sec) 
Heartbeat CPU 0 instructions: 54000001 cycles: 37141017 heartbeat IPC: 0.575259 cumulative IPC: 0.584535 (Simulation time: 0 hr 59 min 16 sec) 
Heartbeat CPU 0 instructions: 55000000 cycles: 38877149 heartbeat IPC: 0.575992 cumulative IPC: 0.582806 (Simulation time: 1 hr 0 min 34 sec) 
Heartbeat CPU 0 instructions: 56000000 cycles: 40534980 heartbeat IPC: 0.603198 cumulative IPC: 0.586108 (Simulation time: 1 hr 1 min 46 sec) 
Heartbeat CPU 0 instructions: 57000000 cycles: 42246490 heartbeat IPC: 0.584279 cumulative IPC: 0.585846 (Simulation time: 1 hr 2 min 59 sec) 
Heartbeat CPU 0 instructions: 58000002 cycles: 43986146 heartbeat IPC: 0.574827 cumulative IPC: 0.584446 (Simulation time: 1 hr 4 min 13 sec) 
Heartbeat CPU 0 instructions: 59000001 cycles: 45727265 heartbeat IPC: 0.574343 cumulative IPC: 0.583306 (Simulation time: 1 hr 5 min 27 sec) 
Heartbeat CPU 0 instructions: 60000000 cycles: 49083427 heartbeat IPC: 0.297959 cumulative IPC: 0.532327 (Simulation time: 1 hr 6 min 34 sec) 
Heartbeat CPU 0 instructions: 61000001 cycles: 54040087 heartbeat IPC: 0.201749 cumulative IPC: 0.463312 (Simulation time: 1 hr 7 min 42 sec) 
Heartbeat CPU 0 instructions: 62000000 cycles: 55775741 heartbeat IPC: 0.576151 cumulative IPC: 0.470999 (Simulation time: 1 hr 8 min 49 sec) 
Heartbeat CPU 0 instructions: 63000000 cycles: 57516362 heartbeat IPC: 0.574508 cumulative IPC: 0.477618 (Simulation time: 1 hr 9 min 54 sec) 
Heartbeat CPU 0 instructions: 64000000 cycles: 59250836 heartbeat IPC: 0.576544 cumulative IPC: 0.483544 (Simulation time: 1 hr 10 min 56 sec) 
Heartbeat CPU 0 instructions: 65000002 cycles: 60911242 heartbeat IPC: 0.602264 cumulative IPC: 0.489984 (Simulation time: 1 hr 11 min 55 sec) 
Heartbeat CPU 0 instructions: 66000003 cycles: 62617100 heartbeat IPC: 0.586216 cumulative IPC: 0.495063 (Simulation time: 1 hr 12 min 48 sec) 
Heartbeat CPU 0 instructions: 67000001 cycles: 64357277 heartbeat IPC: 0.574653 cumulative IPC: 0.499129 (Simulation time: 1 hr 13 min 44 sec) 
Heartbeat CPU 0 instructions: 68000000 cycles: 66097422 heartbeat IPC: 0.574664 cumulative IPC: 0.502801 (Simulation time: 1 hr 14 min 37 sec) 
Heartbeat CPU 0 instructions: 69000003 cycles: 67815842 heartbeat IPC: 0.581932 cumulative IPC: 0.506425 (Simulation time: 1 hr 15 min 26 sec) 
Heartbeat CPU 0 instructions: 70000000 cycles: 69470849 heartbeat IPC: 0.604225 cumulative IPC: 0.510557 (Simulation time: 1 hr 16 min 16 sec) 
Heartbeat CPU 0 instructions: 71000002 cycles: 71201486 heartbeat IPC: 0.577823 cumulative IPC: 0.513403 (Simulation time: 1 hr 17 min 0 sec) 
Heartbeat CPU 0 instructions: 72000000 cycles: 72943911 heartbeat IPC: 0.573912 cumulative IPC: 0.515876 (Simulation time: 1 hr 17 min 43 sec) 
Heartbeat CPU 0 instructions: 73000001 cycles: 75411860 heartbeat IPC: 0.405195 cumulative IPC: 0.509821 (Simulation time: 1 hr 18 min 25 sec) 
Heartbeat CPU 0 instructions: 74000002 cycles: 81320196 heartbeat IPC: 0.169253 cumulative IPC: 0.470383 (Simulation time: 1 hr 18 min 57 sec) 
Heartbeat CPU 0 instructions: 75000002 cycles: 83019427 heartbeat IPC: 0.588502 cumulative IPC: 0.47419 (Simulation time: 1 hr 19 min 23 sec) 
Heartbeat CPU 0 instructions: 76000000 cycles: 84758888 heartbeat IPC: 0.57489 cumulative IPC: 0.477407 (Simulation time: 1 hr 19 min 48 sec) 
Heartbeat CPU 0 instructions: 77000001 cycles: 86499092 heartbeat IPC: 0.574646 cumulative IPC: 0.480417 (Simulation time: 1 hr 20 min 13 sec) 
Heartbeat CPU 0 instructions: 78000000 cycles: 88221630 heartbeat IPC: 0.580538 cumulative IPC: 0.483395 (Simulation time: 1 hr 20 min 36 sec) 
Heartbeat CPU 0 instructions: 79000003 cycles: 89869499 heartbeat IPC: 0.606846 cumulative IPC: 0.48681 (Simulation time: 1 hr 21 min 0 sec) 
Heartbeat CPU 0 instructions: 80000000 cycles: 91601409 heartbeat IPC: 0.577395 cumulative IPC: 0.489369 (Simulation time: 1 hr 21 min 21 sec) 
Heartbeat CPU 0 instructions: 81000002 cycles: 93342772 heartbeat IPC: 0.574264 cumulative IPC: 0.491714 (Simulation time: 1 hr 21 min 43 sec) 
Heartbeat CPU 0 instructions: 82000000 cycles: 95083301 heartbeat IPC: 0.574537 cumulative IPC: 0.493939 (Simulation time: 1 hr 22 min 3 sec) 
Heartbeat CPU 0 instructions: 83000000 cycles: 96771561 heartbeat IPC: 0.592326 cumulative IPC: 0.496438 (Simulation time: 1 hr 22 min 23 sec) 
Heartbeat CPU 0 instructions: 84000000 cycles: 98447686 heartbeat IPC: 0.596614 cumulative IPC: 0.498902 (Simulation time: 1 hr 22 min 42 sec) 
Heartbeat CPU 0 instructions: 85000003 cycles: 100211518 heartbeat IPC: 0.566949 cumulative IPC: 0.500618 (Simulation time: 1 hr 23 min 2 sec) 
Heartbeat CPU 0 instructions: 86000000 cycles: 101953080 heartbeat IPC: 0.574195 cumulative IPC: 0.502407 (Simulation time: 1 hr 23 min 22 sec) 
Heartbeat CPU 0 instructions: 87000001 cycles: 108686247 heartbeat IPC: 0.148519 cumulative IPC: 0.472009 (Simulation time: 1 hr 23 min 46 sec) 
Heartbeat CPU 0 instructions: 88000000 cycles: 110333035 heartbeat IPC: 0.607242 cumulative IPC: 0.474792 (Simulation time: 1 hr 24 min 6 sec) 
Heartbeat CPU 0 instructions: 89000002 cycles: 112062084 heartbeat IPC: 0.578354 cumulative IPC: 0.476982 (Simulation time: 1 hr 24 min 24 sec) 
Heartbeat CPU 0 instructions: 90000001 cycles: 113828490 heartbeat IPC: 0.566121 cumulative IPC: 0.478867 (Simulation time: 1 hr 24 min 41 sec) 
Heartbeat CPU 0 instructions: 91000002 cycles: 115567221 heartbeat IPC: 0.575133 cumulative IPC: 0.48083 (Simulation time: 1 hr 24 min 57 sec) 
Heartbeat CPU 0 instructions: 92000000 cycles: 117262541 heartbeat IPC: 0.589858 cumulative IPC: 0.482955 (Simulation time: 1 hr 25 min 14 sec) 
Heartbeat CPU 0 instructions: 93000002 cycles: 118934166 heartbeat IPC: 0.598221 cumulative IPC: 0.485129 (Simulation time: 1 hr 25 min 31 sec) 
Heartbeat CPU 0 instructions: 94000002 cycles: 120669793 heartbeat IPC: 0.576161 cumulative IPC: 0.486877 (Simulation time: 1 hr 25 min 48 sec) 
Heartbeat CPU 0 instructions: 95000003 cycles: 122412014 heartbeat IPC: 0.573981 cumulative IPC: 0.488525 (Simulation time: 1 hr 26 min 3 sec) 
Heartbeat CPU 0 instructions: 96000000 cycles: 124148110 heartbeat IPC: 0.576003 cumulative IPC: 0.490143 (Simulation time: 1 hr 26 min 18 sec) 
Heartbeat CPU 0 instructions: 97000003 cycles: 125812175 heartbeat IPC: 0.60094 cumulative IPC: 0.492073 (Simulation time: 1 hr 26 min 33 sec) 
Heartbeat CPU 0 instructions: 98000003 cycles: 127515033 heartbeat IPC: 0.587248 cumulative IPC: 0.49374 (Simulation time: 1 hr 26 min 49 sec) 
Heartbeat CPU 0 instructions: 99000000 cycles: 129254763 heartbeat IPC: 0.5748 cumulative IPC: 0.495166 (Simulation time: 1 hr 27 min 4 sec) 
Heartbeat CPU 0 instructions: 100000000 cycles: 136001643 heartbeat IPC: 0.148217 cumulative IPC: 0.47302 (Simulation time: 1 hr 27 min 22 sec) 
Heartbeat CPU 0 instructions: 101000000 cycles: 137701475 heartbeat IPC: 0.588293 cumulative IPC: 0.474845 (Simulation time: 1 hr 27 min 36 sec) 
Heartbeat CPU 0 instructions: 102000003 cycles: 139369916 heartbeat IPC: 0.599364 cumulative IPC: 0.47675 (Simulation time: 1 hr 27 min 49 sec) 
Heartbeat CPU 0 instructions: 103000000 cycles: 141104356 heartbeat IPC: 0.576553 cumulative IPC: 0.478312 (Simulation time: 1 hr 28 min 1 sec) 
Heartbeat CPU 0 instructions: 104000000 cycles: 142844581 heartbeat IPC: 0.574638 cumulative IPC: 0.479801 (Simulation time: 1 hr 28 min 15 sec) 
Heartbeat CPU 0 instructions: 105000001 cycles: 144580144 heartbeat IPC: 0.576182 cumulative IPC: 0.481265 (Simulation time: 1 hr 28 min 28 sec) 
Heartbeat CPU 0 instructions: 106000000 cycles: 146249700 heartbeat IPC: 0.598961 cumulative IPC: 0.48296 (Simulation time: 1 hr 28 min 39 sec) 
Heartbeat CPU 0 instructions: 107000001 cycles: 147947618 heartbeat IPC: 0.588957 cumulative IPC: 0.484489 (Simulation time: 1 hr 28 min 49 sec) 
Heartbeat CPU 0 instructions: 108000000 cycles: 149688536 heartbeat IPC: 0.574409 cumulative IPC: 0.485801 (Simulation time: 1 hr 28 min 59 sec) 
Heartbeat CPU 0 instructions: 109000002 cycles: 151429394 heartbeat IPC: 0.574431 cumulative IPC: 0.487074 (Simulation time: 1 hr 29 min 8 sec) 
Heartbeat CPU 0 instructions: 110000001 cycles: 153156000 heartbeat IPC: 0.57917 cumulative IPC: 0.488369 (Simulation time: 1 hr 29 min 17 sec) 
Heartbeat CPU 0 instructions: 111000003 cycles: 154805951 heartbeat IPC: 0.60608 cumulative IPC: 0.489928 (Simulation time: 1 hr 29 min 25 sec) 
Heartbeat CPU 0 instructions: 112000000 cycles: 156535143 heartbeat IPC: 0.578303 cumulative IPC: 0.491139 (Simulation time: 1 hr 29 min 34 sec) 
Heartbeat CPU 0 instructions: 113000001 cycles: 163222809 heartbeat IPC: 0.149529 cumulative IPC: 0.473952 (Simulation time: 1 hr 29 min 46 sec) 
Heartbeat CPU 0 instructions: 114000003 cycles: 164960003 heartbeat IPC: 0.575642 cumulative IPC: 0.475264 (Simulation time: 1 hr 29 min 55 sec) 
Heartbeat CPU 0 instructions: 115000003 cycles: 166634988 heartbeat IPC: 0.59702 cumulative IPC: 0.47676 (Simulation time: 1 hr 30 min 4 sec) 
Heartbeat CPU 0 instructions: 116000000 cycles: 168328782 heartbeat IPC: 0.590389 cumulative IPC: 0.478154 (Simulation time: 1 hr 30 min 12 sec) 
Heartbeat CPU 0 instructions: 117000002 cycles: 170068578 heartbeat IPC: 0.574781 cumulative IPC: 0.479357 (Simulation time: 1 hr 30 min 20 sec) 
Heartbeat CPU 0 instructions: 118000001 cycles: 171809698 heartbeat IPC: 0.574342 cumulative IPC: 0.480526 (Simulation time: 1 hr 30 min 28 sec) 
Heartbeat CPU 0 instructions: 119000000 cycles: 173537344 heartbeat IPC: 0.578822 cumulative IPC: 0.481711 (Simulation time: 1 hr 30 min 35 sec) 
Heartbeat CPU 0 instructions: 120000000 cycles: 175185640 heartbeat IPC: 0.606687 cumulative IPC: 0.483133 (Simulation time: 1 hr 30 min 43 sec) 
Heartbeat CPU 0 instructions: 121000003 cycles: 176912513 heartbeat IPC: 0.579083 cumulative IPC: 0.484263 (Simulation time: 1 hr 30 min 49 sec) 
Heartbeat CPU 0 instructions: 122000003 cycles: 178654493 heartbeat IPC: 0.574059 cumulative IPC: 0.485317 (Simulation time: 1 hr 30 min 56 sec) 
Heartbeat CPU 0 instructions: 123000001 cycles: 180394801 heartbeat IPC: 0.57461 cumulative IPC: 0.486353 (Simulation time: 1 hr 31 min 2 sec) 
Heartbeat CPU 0 instructions: 124000000 cycles: 182094200 heartbeat IPC: 0.588443 cumulative IPC: 0.487496 (Simulation time: 1 hr 31 min 7 sec) 
Heartbeat CPU 0 instructions: 125000000 cycles: 183765685 heartbeat IPC: 0.59827 cumulative IPC: 0.488702 (Simulation time: 1 hr 31 min 13 sec) 
Heartbeat CPU 0 instructions: 126000002 cycles: 190208827 heartbeat IPC: 0.155204 cumulative IPC: 0.475265 (Simulation time: 1 hr 31 min 19 sec) 
Heartbeat CPU 0 instructions: 127000002 cycles: 192199465 heartbeat IPC: 0.502352 cumulative IPC: 0.475598 (Simulation time: 1 hr 31 min 25 sec) 
Heartbeat CPU 0 instructions: 128000000 cycles: 193928334 heartbeat IPC: 0.578412 cumulative IPC: 0.476684 (Simulation time: 1 hr 31 min 31 sec) 
Heartbeat CPU 0 instructions: 129000001 cycles: 195578810 heartbeat IPC: 0.605886 cumulative IPC: 0.477974 (Simulation time: 1 hr 31 min 35 sec) 
Heartbeat CPU 0 instructions: 130000001 cycles: 197300509 heartbeat IPC: 0.580822 cumulative IPC: 0.479035 (Simulation time: 1 hr 31 min 40 sec) 
Heartbeat CPU 0 instructions: 131000002 cycles: 199039262 heartbeat IPC: 0.575125 cumulative IPC: 0.480025 (Simulation time: 1 hr 31 min 45 sec) 
Heartbeat CPU 0 instructions: 132000000 cycles: 200777324 heartbeat IPC: 0.575352 cumulative IPC: 0.480997 (Simulation time: 1 hr 31 min 50 sec) 
Heartbeat CPU 0 instructions: 133000002 cycles: 202477476 heartbeat IPC: 0.588184 cumulative IPC: 0.482055 (Simulation time: 1 hr 31 min 55 sec) 
Heartbeat CPU 0 instructions: 134000000 cycles: 204142172 heartbeat IPC: 0.600709 cumulative IPC: 0.483191 (Simulation time: 1 hr 31 min 59 sec) 
Heartbeat CPU 0 instructions: 135000003 cycles: 205877686 heartbeat IPC: 0.5762 cumulative IPC: 0.484111 (Simulation time: 1 hr 32 min 4 sec) 
Heartbeat CPU 0 instructions: 136000000 cycles: 207616292 heartbeat IPC: 0.575172 cumulative IPC: 0.485003 (Simulation time: 1 hr 32 min 9 sec) 
Heartbeat CPU 0 instructions: 137000003 cycles: 209353993 heartbeat IPC: 0.575475 cumulative IPC: 0.485881 (Simulation time: 1 hr 32 min 14 sec) 
Heartbeat CPU 0 instructions: 138000003 cycles: 211026166 heartbeat IPC: 0.598024 cumulative IPC: 0.486919 (Simulation time: 1 hr 32 min 18 sec) 
Heartbeat CPU 0 instructions: 139000000 cycles: 216423413 heartbeat IPC: 0.185279 cumulative IPC: 0.478172 (Simulation time: 1 hr 32 min 23 sec) 
Heartbeat CPU 0 instructions: 140000000 cycles: 219387798 heartbeat IPC: 0.337338 cumulative IPC: 0.475964 (Simulation time: 1 hr 32 min 28 sec) 
Heartbeat CPU 0 instructions: 141000001 cycles: 221125207 heartbeat IPC: 0.57557 cumulative IPC: 0.476871 (Simulation time: 1 hr 32 min 32 sec) 
Heartbeat CPU 0 instructions: 142000000 cycles: 222832008 heartbeat IPC: 0.585891 cumulative IPC: 0.477838 (Simulation time: 1 hr 32 min 37 sec) 
Heartbeat CPU 0 instructions: 143000003 cycles: 224493548 heartbeat IPC: 0.601853 cumulative IPC: 0.478899 (Simulation time: 1 hr 32 min 41 sec) 
Heartbeat CPU 0 instructions: 144000000 cycles: 226225602 heartbeat IPC: 0.577347 cumulative IPC: 0.479769 (Simulation time: 1 hr 32 min 46 sec) 
Heartbeat CPU 0 instructions: 145000002 cycles: 227979719 heartbeat IPC: 0.570089 cumulative IPC: 0.48057 (Simulation time: 1 hr 32 min 50 sec) 
Heartbeat CPU 0 instructions: 146000001 cycles: 229716268 heartbeat IPC: 0.575854 cumulative IPC: 0.4814 (Simulation time: 1 hr 32 min 55 sec) 
Heartbeat CPU 0 instructions: 147000000 cycles: 231389585 heartbeat IPC: 0.597615 cumulative IPC: 0.482367 (Simulation time: 1 hr 32 min 59 sec) 
Heartbeat CPU 0 instructions: 148000000 cycles: 233077855 heartbeat IPC: 0.592322 cumulative IPC: 0.483283 (Simulation time: 1 hr 33 min 4 sec) 
Heartbeat CPU 0 instructions: 149000000 cycles: 234832223 heartbeat IPC: 0.570006 cumulative IPC: 0.484026 (Simulation time: 1 hr 33 min 8 sec) 
Heartbeat CPU 0 instructions: 150000002 cycles: 236591490 heartbeat IPC: 0.56842 cumulative IPC: 0.484746 (Simulation time: 1 hr 33 min 12 sec) 
Finished CPU 0 instructions: 100000003 cycles: 206293520 cummulative IPC: 0.484746 (Simulation time: 1 hr 33 min 12 sec) 

ChampSim completed all CPUs

Region of Interest Statistics

CPU 0 cummulative IPC: 0.484746 instructions: 100000003 cycles: 206293520
LLC TOTAL     ACCESS:    1106974  HIT:     311590  MISS:     795384
LLC LOAD      ACCESS:      21703  HIT:       3238  MISS:      18465
LLC RFO       ACCESS:     245174  HIT:      87547  MISS:     157627
LLC PREFETCH  ACCESS:     594534  HIT:     111274  MISS:     483260
LLC WRITEBACK ACCESS:     245563  HIT:     109531  MISS:     136032
OPTgen accesses: 6532
OPTgen hits: 2353
OPTgen hit rate: 36.0227


