
*** ChampSim Multicore Out-of-Order Simulator ***

Warmup Instructions: 50000000
Simulation Instructions: 100000000
Configuration: 2
Number of CPUs: 1
LLC sets: 2048
LLC ways: 16
Off-chip DRAM Channels: 1 Width: 64-bit Data Rate: 1600 MT/s

CPU 0 runs /datasets/cs240c-wi22-a00-public/data/Assignment2-gz/bzip2_281B.trace.gz
CPU 0 L1D next line prefetcher
CPU 0 L2C IP-based stride prefetcher
Initialize Hawkeye state
Heartbeat CPU 0 instructions: 1000000 cycles: 445877 heartbeat IPC: 2.24277 cumulative IPC: 2.24277 (Simulation time: 0 hr 0 min 34 sec) 
Heartbeat CPU 0 instructions: 2000003 cycles: 900175 heartbeat IPC: 2.20121 cumulative IPC: 2.22179 (Simulation time: 0 hr 1 min 9 sec) 
Heartbeat CPU 0 instructions: 3000002 cycles: 1315067 heartbeat IPC: 2.41026 cumulative IPC: 2.28125 (Simulation time: 0 hr 1 min 42 sec) 
Heartbeat CPU 0 instructions: 4000000 cycles: 1753556 heartbeat IPC: 2.28055 cumulative IPC: 2.28108 (Simulation time: 0 hr 2 min 14 sec) 
Heartbeat CPU 0 instructions: 5000002 cycles: 2175545 heartbeat IPC: 2.36973 cumulative IPC: 2.29828 (Simulation time: 0 hr 2 min 45 sec) 
Heartbeat CPU 0 instructions: 6000000 cycles: 2666194 heartbeat IPC: 2.03811 cumulative IPC: 2.2504 (Simulation time: 0 hr 3 min 23 sec) 
Heartbeat CPU 0 instructions: 7000001 cycles: 3193462 heartbeat IPC: 1.89657 cumulative IPC: 2.19198 (Simulation time: 0 hr 3 min 58 sec) 
Heartbeat CPU 0 instructions: 8000000 cycles: 3726055 heartbeat IPC: 1.8776 cumulative IPC: 2.14704 (Simulation time: 0 hr 4 min 33 sec) 
Heartbeat CPU 0 instructions: 9000000 cycles: 4232472 heartbeat IPC: 1.97466 cumulative IPC: 2.12642 (Simulation time: 0 hr 5 min 6 sec) 
Heartbeat CPU 0 instructions: 10000002 cycles: 4685414 heartbeat IPC: 2.20779 cumulative IPC: 2.13428 (Simulation time: 0 hr 5 min 41 sec) 
Heartbeat CPU 0 instructions: 11000000 cycles: 5132849 heartbeat IPC: 2.23496 cumulative IPC: 2.14306 (Simulation time: 0 hr 6 min 15 sec) 
Heartbeat CPU 0 instructions: 12000000 cycles: 5613926 heartbeat IPC: 2.07867 cumulative IPC: 2.13754 (Simulation time: 0 hr 6 min 48 sec) 
Heartbeat CPU 0 instructions: 13000001 cycles: 6025333 heartbeat IPC: 2.43069 cumulative IPC: 2.15756 (Simulation time: 0 hr 7 min 20 sec) 
Heartbeat CPU 0 instructions: 14000003 cycles: 6483790 heartbeat IPC: 2.18123 cumulative IPC: 2.15923 (Simulation time: 0 hr 7 min 52 sec) 
Heartbeat CPU 0 instructions: 15000003 cycles: 6944060 heartbeat IPC: 2.17264 cumulative IPC: 2.16012 (Simulation time: 0 hr 8 min 24 sec) 
Heartbeat CPU 0 instructions: 16000000 cycles: 7339811 heartbeat IPC: 2.52683 cumulative IPC: 2.17989 (Simulation time: 0 hr 8 min 55 sec) 
Heartbeat CPU 0 instructions: 17000000 cycles: 7728968 heartbeat IPC: 2.56966 cumulative IPC: 2.19952 (Simulation time: 0 hr 9 min 24 sec) 
Heartbeat CPU 0 instructions: 18000002 cycles: 8185058 heartbeat IPC: 2.19255 cumulative IPC: 2.19913 (Simulation time: 0 hr 9 min 53 sec) 
Heartbeat CPU 0 instructions: 19000000 cycles: 8630994 heartbeat IPC: 2.24247 cumulative IPC: 2.20137 (Simulation time: 0 hr 10 min 25 sec) 
Heartbeat CPU 0 instructions: 20000000 cycles: 9075978 heartbeat IPC: 2.24727 cumulative IPC: 2.20362 (Simulation time: 0 hr 10 min 58 sec) 
Heartbeat CPU 0 instructions: 21000000 cycles: 9463039 heartbeat IPC: 2.58357 cumulative IPC: 2.21916 (Simulation time: 0 hr 11 min 29 sec) 
Heartbeat CPU 0 instructions: 22000003 cycles: 9838784 heartbeat IPC: 2.66139 cumulative IPC: 2.23605 (Simulation time: 0 hr 11 min 59 sec) 
Heartbeat CPU 0 instructions: 23000001 cycles: 10291764 heartbeat IPC: 2.2076 cumulative IPC: 2.2348 (Simulation time: 0 hr 12 min 34 sec) 
Heartbeat CPU 0 instructions: 24000000 cycles: 10746363 heartbeat IPC: 2.19974 cumulative IPC: 2.23331 (Simulation time: 0 hr 13 min 6 sec) 
Heartbeat CPU 0 instructions: 25000001 cycles: 11089893 heartbeat IPC: 2.91096 cumulative IPC: 2.2543 (Simulation time: 0 hr 13 min 38 sec) 
Heartbeat CPU 0 instructions: 26000003 cycles: 11527519 heartbeat IPC: 2.28506 cumulative IPC: 2.25547 (Simulation time: 0 hr 14 min 10 sec) 
Heartbeat CPU 0 instructions: 27000003 cycles: 12000121 heartbeat IPC: 2.11595 cumulative IPC: 2.24998 (Simulation time: 0 hr 14 min 41 sec) 
Heartbeat CPU 0 instructions: 28000000 cycles: 12326622 heartbeat IPC: 3.06277 cumulative IPC: 2.27151 (Simulation time: 0 hr 15 min 8 sec) 
Heartbeat CPU 0 instructions: 29000001 cycles: 12623499 heartbeat IPC: 3.3684 cumulative IPC: 2.2973 (Simulation time: 0 hr 15 min 32 sec) 
Heartbeat CPU 0 instructions: 30000000 cycles: 12920373 heartbeat IPC: 3.36843 cumulative IPC: 2.32191 (Simulation time: 0 hr 15 min 56 sec) 
Heartbeat CPU 0 instructions: 31000000 cycles: 13262768 heartbeat IPC: 2.9206 cumulative IPC: 2.33737 (Simulation time: 0 hr 16 min 24 sec) 
Heartbeat CPU 0 instructions: 32000000 cycles: 13609310 heartbeat IPC: 2.88565 cumulative IPC: 2.35133 (Simulation time: 0 hr 16 min 49 sec) 
Heartbeat CPU 0 instructions: 33000001 cycles: 13967825 heartbeat IPC: 2.78929 cumulative IPC: 2.36257 (Simulation time: 0 hr 17 min 17 sec) 
Heartbeat CPU 0 instructions: 34000001 cycles: 14311423 heartbeat IPC: 2.91038 cumulative IPC: 2.37572 (Simulation time: 0 hr 17 min 43 sec) 
Heartbeat CPU 0 instructions: 35000003 cycles: 14652509 heartbeat IPC: 2.93182 cumulative IPC: 2.38867 (Simulation time: 0 hr 18 min 8 sec) 
Heartbeat CPU 0 instructions: 36000000 cycles: 14990876 heartbeat IPC: 2.95536 cumulative IPC: 2.40146 (Simulation time: 0 hr 18 min 32 sec) 
Heartbeat CPU 0 instructions: 37000000 cycles: 15329991 heartbeat IPC: 2.94885 cumulative IPC: 2.41357 (Simulation time: 0 hr 18 min 57 sec) 
Heartbeat CPU 0 instructions: 38000002 cycles: 15672048 heartbeat IPC: 2.9235 cumulative IPC: 2.4247 (Simulation time: 0 hr 19 min 21 sec) 
Heartbeat CPU 0 instructions: 39000001 cycles: 16011766 heartbeat IPC: 2.94361 cumulative IPC: 2.43571 (Simulation time: 0 hr 19 min 48 sec) 
Heartbeat CPU 0 instructions: 40000000 cycles: 16368098 heartbeat IPC: 2.80637 cumulative IPC: 2.44378 (Simulation time: 0 hr 20 min 13 sec) 
Heartbeat CPU 0 instructions: 41000000 cycles: 16711573 heartbeat IPC: 2.91142 cumulative IPC: 2.45339 (Simulation time: 0 hr 20 min 39 sec) 
Heartbeat CPU 0 instructions: 42000002 cycles: 17053197 heartbeat IPC: 2.9272 cumulative IPC: 2.46288 (Simulation time: 0 hr 21 min 3 sec) 
Heartbeat CPU 0 instructions: 43000000 cycles: 17389232 heartbeat IPC: 2.97587 cumulative IPC: 2.47279 (Simulation time: 0 hr 21 min 28 sec) 
Heartbeat CPU 0 instructions: 44000000 cycles: 17729993 heartbeat IPC: 2.93461 cumulative IPC: 2.48167 (Simulation time: 0 hr 21 min 52 sec) 
Heartbeat CPU 0 instructions: 45000001 cycles: 18066599 heartbeat IPC: 2.97084 cumulative IPC: 2.49078 (Simulation time: 0 hr 22 min 16 sec) 
Heartbeat CPU 0 instructions: 46000000 cycles: 18420040 heartbeat IPC: 2.82932 cumulative IPC: 2.49728 (Simulation time: 0 hr 22 min 44 sec) 
Heartbeat CPU 0 instructions: 47000003 cycles: 18769709 heartbeat IPC: 2.85986 cumulative IPC: 2.50403 (Simulation time: 0 hr 23 min 9 sec) 
Heartbeat CPU 0 instructions: 48000000 cycles: 19119632 heartbeat IPC: 2.85776 cumulative IPC: 2.51051 (Simulation time: 0 hr 23 min 35 sec) 
Heartbeat CPU 0 instructions: 49000003 cycles: 19475041 heartbeat IPC: 2.81367 cumulative IPC: 2.51604 (Simulation time: 0 hr 24 min 3 sec) 
Heartbeat CPU 0 instructions: 50000003 cycles: 19823313 heartbeat IPC: 2.87132 cumulative IPC: 2.52228 (Simulation time: 0 hr 24 min 27 sec) 

Warmup complete CPU 0 instructions: 50000003 cycles: 19823313 (Simulation time: 0 hr 24 min 27 sec) 

Heartbeat CPU 0 instructions: 51000002 cycles: 20780409 heartbeat IPC: 1.04483 cumulative IPC: 1.04483 (Simulation time: 0 hr 25 min 1 sec) 
Heartbeat CPU 0 instructions: 52000000 cycles: 21745658 heartbeat IPC: 1.036 cumulative IPC: 1.04039 (Simulation time: 0 hr 25 min 35 sec) 
Heartbeat CPU 0 instructions: 53000001 cycles: 22723910 heartbeat IPC: 1.02223 cumulative IPC: 1.03427 (Simulation time: 0 hr 26 min 6 sec) 
Heartbeat CPU 0 instructions: 54000003 cycles: 23704186 heartbeat IPC: 1.02012 cumulative IPC: 1.0307 (Simulation time: 0 hr 26 min 39 sec) 
Heartbeat CPU 0 instructions: 55000000 cycles: 24668016 heartbeat IPC: 1.03752 cumulative IPC: 1.03205 (Simulation time: 0 hr 27 min 9 sec) 
Heartbeat CPU 0 instructions: 56000000 cycles: 25644076 heartbeat IPC: 1.02453 cumulative IPC: 1.03079 (Simulation time: 0 hr 27 min 39 sec) 
Heartbeat CPU 0 instructions: 57000002 cycles: 26611308 heartbeat IPC: 1.03388 cumulative IPC: 1.03123 (Simulation time: 0 hr 28 min 9 sec) 
Heartbeat CPU 0 instructions: 58000003 cycles: 27583828 heartbeat IPC: 1.02826 cumulative IPC: 1.03086 (Simulation time: 0 hr 28 min 38 sec) 
Heartbeat CPU 0 instructions: 59000003 cycles: 28611904 heartbeat IPC: 0.972691 cumulative IPC: 1.02405 (Simulation time: 0 hr 29 min 9 sec) 
Heartbeat CPU 0 instructions: 60000000 cycles: 29820725 heartbeat IPC: 0.82725 cumulative IPC: 1.00026 (Simulation time: 0 hr 29 min 45 sec) 
Heartbeat CPU 0 instructions: 61000000 cycles: 31028151 heartbeat IPC: 0.828208 cumulative IPC: 0.981719 (Simulation time: 0 hr 30 min 21 sec) 
Heartbeat CPU 0 instructions: 62000003 cycles: 32253000 heartbeat IPC: 0.81643 cumulative IPC: 0.965431 (Simulation time: 0 hr 30 min 55 sec) 
Heartbeat CPU 0 instructions: 63000001 cycles: 33484596 heartbeat IPC: 0.811953 cumulative IPC: 0.951594 (Simulation time: 0 hr 31 min 30 sec) 
Heartbeat CPU 0 instructions: 64000000 cycles: 34805743 heartbeat IPC: 0.756917 cumulative IPC: 0.934428 (Simulation time: 0 hr 32 min 4 sec) 
Heartbeat CPU 0 instructions: 65000001 cycles: 36009797 heartbeat IPC: 0.830528 cumulative IPC: 0.926699 (Simulation time: 0 hr 32 min 41 sec) 
Heartbeat CPU 0 instructions: 66000003 cycles: 37211608 heartbeat IPC: 0.832079 cumulative IPC: 0.920159 (Simulation time: 0 hr 33 min 15 sec) 
Heartbeat CPU 0 instructions: 67000000 cycles: 38422877 heartbeat IPC: 0.825578 cumulative IPC: 0.914 (Simulation time: 0 hr 33 min 48 sec) 
Heartbeat CPU 0 instructions: 68000000 cycles: 39736519 heartbeat IPC: 0.761242 cumulative IPC: 0.903923 (Simulation time: 0 hr 34 min 20 sec) 
Heartbeat CPU 0 instructions: 69000000 cycles: 40932976 heartbeat IPC: 0.835801 cumulative IPC: 0.900062 (Simulation time: 0 hr 34 min 55 sec) 
Heartbeat CPU 0 instructions: 70000002 cycles: 42135190 heartbeat IPC: 0.8318 cumulative IPC: 0.896384 (Simulation time: 0 hr 35 min 30 sec) 
Heartbeat CPU 0 instructions: 71000003 cycles: 43341820 heartbeat IPC: 0.828755 cumulative IPC: 0.892914 (Simulation time: 0 hr 36 min 4 sec) 
Heartbeat CPU 0 instructions: 72000000 cycles: 44549821 heartbeat IPC: 0.827811 cumulative IPC: 0.889733 (Simulation time: 0 hr 36 min 37 sec) 
Heartbeat CPU 0 instructions: 73000002 cycles: 45853216 heartbeat IPC: 0.767229 cumulative IPC: 0.883599 (Simulation time: 0 hr 37 min 10 sec) 
Heartbeat CPU 0 instructions: 74000000 cycles: 47052705 heartbeat IPC: 0.833687 cumulative IPC: 0.8814 (Simulation time: 0 hr 37 min 45 sec) 
Heartbeat CPU 0 instructions: 75000001 cycles: 48254094 heartbeat IPC: 0.832371 cumulative IPC: 0.879329 (Simulation time: 0 hr 38 min 21 sec) 
Heartbeat CPU 0 instructions: 76000000 cycles: 49463391 heartbeat IPC: 0.826926 cumulative IPC: 0.877191 (Simulation time: 0 hr 39 min 0 sec) 
Heartbeat CPU 0 instructions: 77000001 cycles: 50720495 heartbeat IPC: 0.79548 cumulative IPC: 0.873866 (Simulation time: 0 hr 39 min 34 sec) 
Heartbeat CPU 0 instructions: 78000003 cycles: 51888174 heartbeat IPC: 0.856401 cumulative IPC: 0.87323 (Simulation time: 0 hr 39 min 59 sec) 
Heartbeat CPU 0 instructions: 79000000 cycles: 52807055 heartbeat IPC: 1.08828 cumulative IPC: 0.879221 (Simulation time: 0 hr 40 min 26 sec) 
Heartbeat CPU 0 instructions: 80000000 cycles: 53710503 heartbeat IPC: 1.10687 cumulative IPC: 0.88529 (Simulation time: 0 hr 40 min 53 sec) 
Heartbeat CPU 0 instructions: 81000000 cycles: 54556241 heartbeat IPC: 1.1824 cumulative IPC: 0.892525 (Simulation time: 0 hr 41 min 21 sec) 
Heartbeat CPU 0 instructions: 82000001 cycles: 55448266 heartbeat IPC: 1.12105 cumulative IPC: 0.898247 (Simulation time: 0 hr 41 min 48 sec) 
Heartbeat CPU 0 instructions: 83000000 cycles: 56372342 heartbeat IPC: 1.08216 cumulative IPC: 0.902897 (Simulation time: 0 hr 42 min 18 sec) 
Heartbeat CPU 0 instructions: 84000000 cycles: 57289169 heartbeat IPC: 1.09072 cumulative IPC: 0.907493 (Simulation time: 0 hr 42 min 44 sec) 
Heartbeat CPU 0 instructions: 85000002 cycles: 58224317 heartbeat IPC: 1.06935 cumulative IPC: 0.911434 (Simulation time: 0 hr 43 min 22 sec) 
Heartbeat CPU 0 instructions: 86000002 cycles: 59153345 heartbeat IPC: 1.07639 cumulative IPC: 0.915331 (Simulation time: 0 hr 43 min 59 sec) 
Heartbeat CPU 0 instructions: 87000002 cycles: 60082358 heartbeat IPC: 1.07641 cumulative IPC: 0.919048 (Simulation time: 0 hr 44 min 34 sec) 
Heartbeat CPU 0 instructions: 88000000 cycles: 61136026 heartbeat IPC: 0.949064 cumulative IPC: 0.919814 (Simulation time: 0 hr 45 min 8 sec) 
Heartbeat CPU 0 instructions: 89000002 cycles: 62233493 heartbeat IPC: 0.911191 cumulative IPC: 0.919591 (Simulation time: 0 hr 45 min 45 sec) 
Heartbeat CPU 0 instructions: 90000001 cycles: 63326479 heartbeat IPC: 0.914924 cumulative IPC: 0.919473 (Simulation time: 0 hr 46 min 23 sec) 
Heartbeat CPU 0 instructions: 91000001 cycles: 64430735 heartbeat IPC: 0.905587 cumulative IPC: 0.919129 (Simulation time: 0 hr 47 min 1 sec) 
Heartbeat CPU 0 instructions: 92000000 cycles: 65519489 heartbeat IPC: 0.91848 cumulative IPC: 0.919114 (Simulation time: 0 hr 47 min 40 sec) 
Heartbeat CPU 0 instructions: 93000001 cycles: 66604012 heartbeat IPC: 0.922065 cumulative IPC: 0.919182 (Simulation time: 0 hr 48 min 16 sec) 
Heartbeat CPU 0 instructions: 94000001 cycles: 67689953 heartbeat IPC: 0.92086 cumulative IPC: 0.919221 (Simulation time: 0 hr 48 min 52 sec) 
Heartbeat CPU 0 instructions: 95000000 cycles: 68781336 heartbeat IPC: 0.916268 cumulative IPC: 0.919155 (Simulation time: 0 hr 49 min 29 sec) 
Heartbeat CPU 0 instructions: 96000000 cycles: 69871663 heartbeat IPC: 0.917156 cumulative IPC: 0.919111 (Simulation time: 0 hr 50 min 5 sec) 
Heartbeat CPU 0 instructions: 97000002 cycles: 70961006 heartbeat IPC: 0.917986 cumulative IPC: 0.919087 (Simulation time: 0 hr 50 min 40 sec) 
Heartbeat CPU 0 instructions: 98000002 cycles: 72053179 heartbeat IPC: 0.915606 cumulative IPC: 0.919014 (Simulation time: 0 hr 51 min 16 sec) 
Heartbeat CPU 0 instructions: 99000000 cycles: 73143025 heartbeat IPC: 0.917559 cumulative IPC: 0.918985 (Simulation time: 0 hr 51 min 56 sec) 
Heartbeat CPU 0 instructions: 100000000 cycles: 74233669 heartbeat IPC: 0.916889 cumulative IPC: 0.918943 (Simulation time: 0 hr 52 min 32 sec) 
Heartbeat CPU 0 instructions: 101000000 cycles: 75327441 heartbeat IPC: 0.914267 cumulative IPC: 0.918851 (Simulation time: 0 hr 53 min 7 sec) 
Heartbeat CPU 0 instructions: 102000000 cycles: 76422103 heartbeat IPC: 0.913524 cumulative IPC: 0.918747 (Simulation time: 0 hr 53 min 42 sec) 
Heartbeat CPU 0 instructions: 103000002 cycles: 77514465 heartbeat IPC: 0.915449 cumulative IPC: 0.918685 (Simulation time: 0 hr 54 min 17 sec) 
Heartbeat CPU 0 instructions: 104000000 cycles: 78607792 heartbeat IPC: 0.914638 cumulative IPC: 0.91861 (Simulation time: 0 hr 54 min 54 sec) 
Heartbeat CPU 0 instructions: 105000003 cycles: 79703246 heartbeat IPC: 0.912866 cumulative IPC: 0.918505 (Simulation time: 0 hr 55 min 35 sec) 
Heartbeat CPU 0 instructions: 106000002 cycles: 80802318 heartbeat IPC: 0.909858 cumulative IPC: 0.918349 (Simulation time: 0 hr 56 min 17 sec) 
Heartbeat CPU 0 instructions: 107000001 cycles: 81889903 heartbeat IPC: 0.919467 cumulative IPC: 0.918368 (Simulation time: 0 hr 56 min 56 sec) 
Heartbeat CPU 0 instructions: 108000000 cycles: 82984273 heartbeat IPC: 0.913767 cumulative IPC: 0.918289 (Simulation time: 0 hr 57 min 34 sec) 
Heartbeat CPU 0 instructions: 109000001 cycles: 84079565 heartbeat IPC: 0.912999 cumulative IPC: 0.918199 (Simulation time: 0 hr 58 min 14 sec) 
Heartbeat CPU 0 instructions: 110000002 cycles: 85180989 heartbeat IPC: 0.907916 cumulative IPC: 0.918025 (Simulation time: 0 hr 58 min 55 sec) 
Heartbeat CPU 0 instructions: 111000000 cycles: 86269422 heartbeat IPC: 0.91875 cumulative IPC: 0.918037 (Simulation time: 0 hr 59 min 34 sec) 
Heartbeat CPU 0 instructions: 112000000 cycles: 87360370 heartbeat IPC: 0.916634 cumulative IPC: 0.918014 (Simulation time: 1 hr 0 min 7 sec) 
Heartbeat CPU 0 instructions: 113000002 cycles: 88450840 heartbeat IPC: 0.917038 cumulative IPC: 0.917999 (Simulation time: 1 hr 0 min 46 sec) 
Heartbeat CPU 0 instructions: 114000001 cycles: 89544476 heartbeat IPC: 0.91438 cumulative IPC: 0.917942 (Simulation time: 1 hr 1 min 25 sec) 
Heartbeat CPU 0 instructions: 115000001 cycles: 90631514 heartbeat IPC: 0.919931 cumulative IPC: 0.917973 (Simulation time: 1 hr 2 min 5 sec) 
Heartbeat CPU 0 instructions: 116000000 cycles: 91719609 heartbeat IPC: 0.919037 cumulative IPC: 0.917989 (Simulation time: 1 hr 2 min 43 sec) 
Heartbeat CPU 0 instructions: 117000001 cycles: 92807099 heartbeat IPC: 0.91955 cumulative IPC: 0.918012 (Simulation time: 1 hr 3 min 22 sec) 
Heartbeat CPU 0 instructions: 118000000 cycles: 93894611 heartbeat IPC: 0.919529 cumulative IPC: 0.918034 (Simulation time: 1 hr 4 min 1 sec) 
Heartbeat CPU 0 instructions: 119000000 cycles: 94983146 heartbeat IPC: 0.918666 cumulative IPC: 0.918043 (Simulation time: 1 hr 4 min 38 sec) 
Heartbeat CPU 0 instructions: 120000000 cycles: 96072602 heartbeat IPC: 0.917889 cumulative IPC: 0.918041 (Simulation time: 1 hr 5 min 15 sec) 
Heartbeat CPU 0 instructions: 121000000 cycles: 97161003 heartbeat IPC: 0.918779 cumulative IPC: 0.918052 (Simulation time: 1 hr 5 min 52 sec) 
Heartbeat CPU 0 instructions: 122000000 cycles: 98253965 heartbeat IPC: 0.914945 cumulative IPC: 0.918008 (Simulation time: 1 hr 6 min 33 sec) 
Heartbeat CPU 0 instructions: 123000001 cycles: 99348315 heartbeat IPC: 0.913785 cumulative IPC: 0.91795 (Simulation time: 1 hr 7 min 12 sec) 
Heartbeat CPU 0 instructions: 124000000 cycles: 100446707 heartbeat IPC: 0.910421 cumulative IPC: 0.917848 (Simulation time: 1 hr 7 min 50 sec) 
Heartbeat CPU 0 instructions: 125000002 cycles: 101539460 heartbeat IPC: 0.915122 cumulative IPC: 0.917811 (Simulation time: 1 hr 8 min 28 sec) 
Heartbeat CPU 0 instructions: 126000002 cycles: 102630227 heartbeat IPC: 0.916786 cumulative IPC: 0.917798 (Simulation time: 1 hr 9 min 4 sec) 
Heartbeat CPU 0 instructions: 127000003 cycles: 103719445 heartbeat IPC: 0.918091 cumulative IPC: 0.917802 (Simulation time: 1 hr 9 min 39 sec) 
Heartbeat CPU 0 instructions: 128000000 cycles: 104809117 heartbeat IPC: 0.917705 cumulative IPC: 0.9178 (Simulation time: 1 hr 10 min 12 sec) 
Heartbeat CPU 0 instructions: 129000001 cycles: 105899874 heartbeat IPC: 0.916795 cumulative IPC: 0.917788 (Simulation time: 1 hr 10 min 47 sec) 
Heartbeat CPU 0 instructions: 130000001 cycles: 106987875 heartbeat IPC: 0.919117 cumulative IPC: 0.917804 (Simulation time: 1 hr 11 min 19 sec) 
Heartbeat CPU 0 instructions: 131000001 cycles: 108079767 heartbeat IPC: 0.915842 cumulative IPC: 0.91778 (Simulation time: 1 hr 11 min 51 sec) 
Heartbeat CPU 0 instructions: 132000000 cycles: 109173316 heartbeat IPC: 0.914453 cumulative IPC: 0.917739 (Simulation time: 1 hr 12 min 28 sec) 
Heartbeat CPU 0 instructions: 133000002 cycles: 110278837 heartbeat IPC: 0.904553 cumulative IPC: 0.917578 (Simulation time: 1 hr 13 min 1 sec) 
Heartbeat CPU 0 instructions: 134000000 cycles: 111374580 heartbeat IPC: 0.912621 cumulative IPC: 0.917519 (Simulation time: 1 hr 13 min 34 sec) 
Heartbeat CPU 0 instructions: 135000003 cycles: 112475878 heartbeat IPC: 0.908022 cumulative IPC: 0.917406 (Simulation time: 1 hr 14 min 7 sec) 
Heartbeat CPU 0 instructions: 136000000 cycles: 113576152 heartbeat IPC: 0.908862 cumulative IPC: 0.917306 (Simulation time: 1 hr 14 min 42 sec) 
Heartbeat CPU 0 instructions: 137000001 cycles: 114673838 heartbeat IPC: 0.911008 cumulative IPC: 0.917233 (Simulation time: 1 hr 15 min 13 sec) 
Heartbeat CPU 0 instructions: 138000000 cycles: 115794138 heartbeat IPC: 0.892617 cumulative IPC: 0.916945 (Simulation time: 1 hr 15 min 46 sec) 
Heartbeat CPU 0 instructions: 139000002 cycles: 116428339 heartbeat IPC: 1.57679 cumulative IPC: 0.921277 (Simulation time: 1 hr 16 min 13 sec) 
Heartbeat CPU 0 instructions: 140000000 cycles: 117060273 heartbeat IPC: 1.58244 cumulative IPC: 0.925574 (Simulation time: 1 hr 16 min 38 sec) 
Heartbeat CPU 0 instructions: 141000000 cycles: 117691776 heartbeat IPC: 1.58352 cumulative IPC: 0.929819 (Simulation time: 1 hr 17 min 5 sec) 
Heartbeat CPU 0 instructions: 142000002 cycles: 118324849 heartbeat IPC: 1.5796 cumulative IPC: 0.933996 (Simulation time: 1 hr 17 min 32 sec) 
Heartbeat CPU 0 instructions: 143000002 cycles: 118963206 heartbeat IPC: 1.56652 cumulative IPC: 0.938068 (Simulation time: 1 hr 17 min 55 sec) 
Heartbeat CPU 0 instructions: 144000000 cycles: 119603648 heartbeat IPC: 1.56142 cumulative IPC: 0.942069 (Simulation time: 1 hr 18 min 19 sec) 
Heartbeat CPU 0 instructions: 145000001 cycles: 120242735 heartbeat IPC: 1.56473 cumulative IPC: 0.946032 (Simulation time: 1 hr 18 min 48 sec) 
Heartbeat CPU 0 instructions: 146000002 cycles: 120881418 heartbeat IPC: 1.56572 cumulative IPC: 0.949949 (Simulation time: 1 hr 19 min 18 sec) 
Heartbeat CPU 0 instructions: 147000002 cycles: 122217567 heartbeat IPC: 0.74842 cumulative IPC: 0.947319 (Simulation time: 1 hr 19 min 52 sec) 
Heartbeat CPU 0 instructions: 148000000 cycles: 122736361 heartbeat IPC: 1.92754 cumulative IPC: 0.95226 (Simulation time: 1 hr 20 min 15 sec) 
Heartbeat CPU 0 instructions: 149000000 cycles: 123247416 heartbeat IPC: 1.95674 cumulative IPC: 0.957224 (Simulation time: 1 hr 20 min 36 sec) 
Heartbeat CPU 0 instructions: 150000003 cycles: 123758434 heartbeat IPC: 1.95688 cumulative IPC: 0.962139 (Simulation time: 1 hr 20 min 56 sec) 
Finished CPU 0 instructions: 100000000 cycles: 103935121 cummulative IPC: 0.962139 (Simulation time: 1 hr 20 min 56 sec) 

ChampSim completed all CPUs

Region of Interest Statistics

CPU 0 cummulative IPC: 0.962139 instructions: 100000000 cycles: 103935121
LLC TOTAL     ACCESS:     678830  HIT:     552324  MISS:     126506
LLC LOAD      ACCESS:     201689  HIT:     200271  MISS:       1418
LLC RFO       ACCESS:      77430  HIT:      18378  MISS:      59052
LLC PREFETCH  ACCESS:     319040  HIT:     268501  MISS:      50539
LLC WRITEBACK ACCESS:      80671  HIT:      65174  MISS:      15497
OPTgen accesses: 19491
OPTgen hits: 22258
OPTgen hit rate: 114.196


