
*** ChampSim Multicore Out-of-Order Simulator ***

Warmup Instructions: 50000000
Simulation Instructions: 100000000
Configuration: 2
Number of CPUs: 1
LLC sets: 2048
LLC ways: 16
Off-chip DRAM Channels: 1 Width: 64-bit Data Rate: 1600 MT/s

CPU 0 runs /datasets/cs240c-wi22-a00-public/data/Assignment2-gz/leslie3d_94B.trace.gz
CPU 0 L1D next line prefetcher
CPU 0 L2C IP-based stride prefetcher
Initialize Hawkeye state
Heartbeat CPU 0 instructions: 1000003 cycles: 597056 heartbeat IPC: 1.67489 cumulative IPC: 1.67489 (Simulation time: 0 hr 0 min 40 sec) 
Heartbeat CPU 0 instructions: 2000002 cycles: 1215904 heartbeat IPC: 1.6159 cumulative IPC: 1.64487 (Simulation time: 0 hr 1 min 19 sec) 
Heartbeat CPU 0 instructions: 3000003 cycles: 1867668 heartbeat IPC: 1.5343 cumulative IPC: 1.60628 (Simulation time: 0 hr 2 min 0 sec) 
Heartbeat CPU 0 instructions: 4000000 cycles: 2518894 heartbeat IPC: 1.53556 cumulative IPC: 1.588 (Simulation time: 0 hr 2 min 39 sec) 
Heartbeat CPU 0 instructions: 5000002 cycles: 3083865 heartbeat IPC: 1.77001 cumulative IPC: 1.62134 (Simulation time: 0 hr 3 min 13 sec) 
Heartbeat CPU 0 instructions: 6000002 cycles: 3734525 heartbeat IPC: 1.5369 cumulative IPC: 1.60663 (Simulation time: 0 hr 3 min 49 sec) 
Heartbeat CPU 0 instructions: 7000000 cycles: 4385255 heartbeat IPC: 1.53673 cumulative IPC: 1.59626 (Simulation time: 0 hr 4 min 28 sec) 
Heartbeat CPU 0 instructions: 8000000 cycles: 4950260 heartbeat IPC: 1.7699 cumulative IPC: 1.61608 (Simulation time: 0 hr 5 min 4 sec) 
Heartbeat CPU 0 instructions: 9000000 cycles: 5601133 heartbeat IPC: 1.5364 cumulative IPC: 1.60682 (Simulation time: 0 hr 5 min 45 sec) 
Heartbeat CPU 0 instructions: 10000001 cycles: 6252369 heartbeat IPC: 1.53554 cumulative IPC: 1.59939 (Simulation time: 0 hr 6 min 24 sec) 
Heartbeat CPU 0 instructions: 11000000 cycles: 6878481 heartbeat IPC: 1.59716 cumulative IPC: 1.59919 (Simulation time: 0 hr 7 min 4 sec) 
Heartbeat CPU 0 instructions: 12000000 cycles: 7380906 heartbeat IPC: 1.99035 cumulative IPC: 1.62582 (Simulation time: 0 hr 7 min 40 sec) 
Heartbeat CPU 0 instructions: 13000000 cycles: 7881205 heartbeat IPC: 1.9988 cumulative IPC: 1.64949 (Simulation time: 0 hr 8 min 16 sec) 
Heartbeat CPU 0 instructions: 14000001 cycles: 8381646 heartbeat IPC: 1.99824 cumulative IPC: 1.67032 (Simulation time: 0 hr 8 min 53 sec) 
Heartbeat CPU 0 instructions: 15000001 cycles: 8881977 heartbeat IPC: 1.99868 cumulative IPC: 1.68881 (Simulation time: 0 hr 9 min 27 sec) 
Heartbeat CPU 0 instructions: 16000000 cycles: 9382271 heartbeat IPC: 1.99882 cumulative IPC: 1.70534 (Simulation time: 0 hr 10 min 7 sec) 
Heartbeat CPU 0 instructions: 17000001 cycles: 9882713 heartbeat IPC: 1.99824 cumulative IPC: 1.72018 (Simulation time: 0 hr 10 min 44 sec) 
Heartbeat CPU 0 instructions: 18000002 cycles: 10382834 heartbeat IPC: 1.99952 cumulative IPC: 1.73363 (Simulation time: 0 hr 11 min 21 sec) 
Heartbeat CPU 0 instructions: 19000000 cycles: 10883298 heartbeat IPC: 1.99814 cumulative IPC: 1.74579 (Simulation time: 0 hr 12 min 2 sec) 
Heartbeat CPU 0 instructions: 20000000 cycles: 11383236 heartbeat IPC: 2.00025 cumulative IPC: 1.75697 (Simulation time: 0 hr 12 min 45 sec) 
Heartbeat CPU 0 instructions: 21000002 cycles: 11883768 heartbeat IPC: 1.99788 cumulative IPC: 1.76712 (Simulation time: 0 hr 13 min 25 sec) 
Heartbeat CPU 0 instructions: 22000000 cycles: 12371550 heartbeat IPC: 2.05009 cumulative IPC: 1.77827 (Simulation time: 0 hr 14 min 2 sec) 
Heartbeat CPU 0 instructions: 23000000 cycles: 12858505 heartbeat IPC: 2.05358 cumulative IPC: 1.7887 (Simulation time: 0 hr 14 min 39 sec) 
Heartbeat CPU 0 instructions: 24000000 cycles: 13344855 heartbeat IPC: 2.05613 cumulative IPC: 1.79845 (Simulation time: 0 hr 15 min 14 sec) 
Heartbeat CPU 0 instructions: 25000000 cycles: 13852142 heartbeat IPC: 1.97127 cumulative IPC: 1.80477 (Simulation time: 0 hr 15 min 50 sec) 
Heartbeat CPU 0 instructions: 26000000 cycles: 14433287 heartbeat IPC: 1.72074 cumulative IPC: 1.80139 (Simulation time: 0 hr 16 min 28 sec) 
Heartbeat CPU 0 instructions: 27000000 cycles: 15014738 heartbeat IPC: 1.71984 cumulative IPC: 1.79823 (Simulation time: 0 hr 17 min 9 sec) 
Heartbeat CPU 0 instructions: 28000000 cycles: 15596137 heartbeat IPC: 1.71999 cumulative IPC: 1.79532 (Simulation time: 0 hr 17 min 49 sec) 
Heartbeat CPU 0 instructions: 29000000 cycles: 16177430 heartbeat IPC: 1.7203 cumulative IPC: 1.79262 (Simulation time: 0 hr 18 min 35 sec) 
Heartbeat CPU 0 instructions: 30000002 cycles: 16807762 heartbeat IPC: 1.58647 cumulative IPC: 1.78489 (Simulation time: 0 hr 19 min 14 sec) 
Heartbeat CPU 0 instructions: 31000000 cycles: 17438970 heartbeat IPC: 1.58426 cumulative IPC: 1.77763 (Simulation time: 0 hr 19 min 56 sec) 
Heartbeat CPU 0 instructions: 32000000 cycles: 18060688 heartbeat IPC: 1.60845 cumulative IPC: 1.7718 (Simulation time: 0 hr 20 min 37 sec) 
Heartbeat CPU 0 instructions: 33000001 cycles: 18693202 heartbeat IPC: 1.58099 cumulative IPC: 1.76535 (Simulation time: 0 hr 21 min 15 sec) 
Heartbeat CPU 0 instructions: 34000003 cycles: 19314866 heartbeat IPC: 1.60859 cumulative IPC: 1.7603 (Simulation time: 0 hr 21 min 54 sec) 
Heartbeat CPU 0 instructions: 35000001 cycles: 19946406 heartbeat IPC: 1.58343 cumulative IPC: 1.7547 (Simulation time: 0 hr 22 min 32 sec) 
Heartbeat CPU 0 instructions: 36000000 cycles: 20567613 heartbeat IPC: 1.60977 cumulative IPC: 1.75032 (Simulation time: 0 hr 23 min 11 sec) 
Heartbeat CPU 0 instructions: 37000003 cycles: 21199493 heartbeat IPC: 1.58258 cumulative IPC: 1.74532 (Simulation time: 0 hr 23 min 52 sec) 
Heartbeat CPU 0 instructions: 38000002 cycles: 21830523 heartbeat IPC: 1.58471 cumulative IPC: 1.74068 (Simulation time: 0 hr 24 min 30 sec) 
Heartbeat CPU 0 instructions: 39000002 cycles: 22453059 heartbeat IPC: 1.60633 cumulative IPC: 1.73696 (Simulation time: 0 hr 25 min 9 sec) 
Heartbeat CPU 0 instructions: 40000000 cycles: 23085515 heartbeat IPC: 1.58113 cumulative IPC: 1.73269 (Simulation time: 0 hr 25 min 47 sec) 
Heartbeat CPU 0 instructions: 41000000 cycles: 23707083 heartbeat IPC: 1.60883 cumulative IPC: 1.72944 (Simulation time: 0 hr 26 min 25 sec) 
Heartbeat CPU 0 instructions: 42000002 cycles: 24338494 heartbeat IPC: 1.58376 cumulative IPC: 1.72566 (Simulation time: 0 hr 27 min 7 sec) 
Heartbeat CPU 0 instructions: 43000002 cycles: 24960220 heartbeat IPC: 1.60843 cumulative IPC: 1.72274 (Simulation time: 0 hr 27 min 51 sec) 
Heartbeat CPU 0 instructions: 44000000 cycles: 25592381 heartbeat IPC: 1.58187 cumulative IPC: 1.71926 (Simulation time: 0 hr 28 min 34 sec) 
Heartbeat CPU 0 instructions: 45000002 cycles: 26222703 heartbeat IPC: 1.58649 cumulative IPC: 1.71607 (Simulation time: 0 hr 29 min 15 sec) 
Heartbeat CPU 0 instructions: 46000001 cycles: 26846221 heartbeat IPC: 1.6038 cumulative IPC: 1.71346 (Simulation time: 0 hr 29 min 53 sec) 
Heartbeat CPU 0 instructions: 47000001 cycles: 27477823 heartbeat IPC: 1.58328 cumulative IPC: 1.71047 (Simulation time: 0 hr 30 min 40 sec) 
Heartbeat CPU 0 instructions: 48000000 cycles: 28099399 heartbeat IPC: 1.60881 cumulative IPC: 1.70822 (Simulation time: 0 hr 31 min 26 sec) 
Heartbeat CPU 0 instructions: 49000000 cycles: 28731170 heartbeat IPC: 1.58285 cumulative IPC: 1.70546 (Simulation time: 0 hr 32 min 5 sec) 
Heartbeat CPU 0 instructions: 50000003 cycles: 29352933 heartbeat IPC: 1.60833 cumulative IPC: 1.70341 (Simulation time: 0 hr 32 min 44 sec) 

Warmup complete CPU 0 instructions: 50000003 cycles: 29352933 (Simulation time: 0 hr 32 min 44 sec) 

Heartbeat CPU 0 instructions: 51000003 cycles: 30627023 heartbeat IPC: 0.784874 cumulative IPC: 0.784874 (Simulation time: 0 hr 33 min 26 sec) 
Heartbeat CPU 0 instructions: 52000000 cycles: 31887492 heartbeat IPC: 0.793353 cumulative IPC: 0.789091 (Simulation time: 0 hr 34 min 8 sec) 
Heartbeat CPU 0 instructions: 53000002 cycles: 33194304 heartbeat IPC: 0.765223 cumulative IPC: 0.780971 (Simulation time: 0 hr 34 min 48 sec) 
Heartbeat CPU 0 instructions: 54000001 cycles: 34443082 heartbeat IPC: 0.800782 cumulative IPC: 0.785831 (Simulation time: 0 hr 35 min 27 sec) 
Heartbeat CPU 0 instructions: 55000000 cycles: 35736104 heartbeat IPC: 0.773381 cumulative IPC: 0.783309 (Simulation time: 0 hr 36 min 7 sec) 
Heartbeat CPU 0 instructions: 56000000 cycles: 37004112 heartbeat IPC: 0.788639 cumulative IPC: 0.784193 (Simulation time: 0 hr 36 min 47 sec) 
Heartbeat CPU 0 instructions: 57000000 cycles: 38291435 heartbeat IPC: 0.776806 cumulative IPC: 0.783129 (Simulation time: 0 hr 37 min 29 sec) 
Heartbeat CPU 0 instructions: 58000001 cycles: 39546341 heartbeat IPC: 0.796873 cumulative IPC: 0.784821 (Simulation time: 0 hr 38 min 8 sec) 
Heartbeat CPU 0 instructions: 59000000 cycles: 40792271 heartbeat IPC: 0.802612 cumulative IPC: 0.786759 (Simulation time: 0 hr 38 min 49 sec) 
Heartbeat CPU 0 instructions: 60000000 cycles: 42063266 heartbeat IPC: 0.786785 cumulative IPC: 0.786761 (Simulation time: 0 hr 39 min 28 sec) 
Heartbeat CPU 0 instructions: 61000001 cycles: 43318988 heartbeat IPC: 0.796355 cumulative IPC: 0.787624 (Simulation time: 0 hr 40 min 9 sec) 
Heartbeat CPU 0 instructions: 62000002 cycles: 44595938 heartbeat IPC: 0.783117 cumulative IPC: 0.787246 (Simulation time: 0 hr 40 min 50 sec) 
Heartbeat CPU 0 instructions: 63000000 cycles: 45850964 heartbeat IPC: 0.796795 cumulative IPC: 0.787973 (Simulation time: 0 hr 41 min 30 sec) 
Heartbeat CPU 0 instructions: 64000000 cycles: 47136345 heartbeat IPC: 0.777979 cumulative IPC: 0.78725 (Simulation time: 0 hr 42 min 9 sec) 
Heartbeat CPU 0 instructions: 65000000 cycles: 48397216 heartbeat IPC: 0.793103 cumulative IPC: 0.787638 (Simulation time: 0 hr 42 min 49 sec) 
Heartbeat CPU 0 instructions: 66000000 cycles: 49666348 heartbeat IPC: 0.78794 cumulative IPC: 0.787657 (Simulation time: 0 hr 43 min 30 sec) 
Heartbeat CPU 0 instructions: 67000003 cycles: 50929516 heartbeat IPC: 0.791663 cumulative IPC: 0.787891 (Simulation time: 0 hr 44 min 12 sec) 
Heartbeat CPU 0 instructions: 68000000 cycles: 52182795 heartbeat IPC: 0.797905 cumulative IPC: 0.788441 (Simulation time: 0 hr 44 min 52 sec) 
Heartbeat CPU 0 instructions: 69000000 cycles: 53462105 heartbeat IPC: 0.781671 cumulative IPC: 0.788082 (Simulation time: 0 hr 45 min 35 sec) 
Heartbeat CPU 0 instructions: 70000001 cycles: 54709414 heartbeat IPC: 0.801727 cumulative IPC: 0.788753 (Simulation time: 0 hr 46 min 13 sec) 
Heartbeat CPU 0 instructions: 71000002 cycles: 56002187 heartbeat IPC: 0.773532 cumulative IPC: 0.788015 (Simulation time: 0 hr 46 min 54 sec) 
Heartbeat CPU 0 instructions: 72000000 cycles: 57245488 heartbeat IPC: 0.804309 cumulative IPC: 0.788741 (Simulation time: 0 hr 47 min 33 sec) 
Heartbeat CPU 0 instructions: 73000000 cycles: 58517426 heartbeat IPC: 0.786202 cumulative IPC: 0.78863 (Simulation time: 0 hr 48 min 13 sec) 
Heartbeat CPU 0 instructions: 74000000 cycles: 59773747 heartbeat IPC: 0.795975 cumulative IPC: 0.788933 (Simulation time: 0 hr 48 min 55 sec) 
Heartbeat CPU 0 instructions: 75000002 cycles: 61021979 heartbeat IPC: 0.801135 cumulative IPC: 0.789414 (Simulation time: 0 hr 49 min 36 sec) 
Heartbeat CPU 0 instructions: 76000000 cycles: 62310248 heartbeat IPC: 0.776234 cumulative IPC: 0.788899 (Simulation time: 0 hr 50 min 16 sec) 
Heartbeat CPU 0 instructions: 77000000 cycles: 63552170 heartbeat IPC: 0.805204 cumulative IPC: 0.789491 (Simulation time: 0 hr 50 min 56 sec) 
Heartbeat CPU 0 instructions: 78000003 cycles: 64854181 heartbeat IPC: 0.768045 cumulative IPC: 0.788705 (Simulation time: 0 hr 51 min 36 sec) 
Heartbeat CPU 0 instructions: 79000000 cycles: 66370368 heartbeat IPC: 0.659547 cumulative IPC: 0.783415 (Simulation time: 0 hr 52 min 16 sec) 
Heartbeat CPU 0 instructions: 80000000 cycles: 68036968 heartbeat IPC: 0.600024 cumulative IPC: 0.775514 (Simulation time: 0 hr 52 min 56 sec) 
Heartbeat CPU 0 instructions: 81000002 cycles: 69634149 heartbeat IPC: 0.626104 cumulative IPC: 0.769589 (Simulation time: 0 hr 53 min 38 sec) 
Heartbeat CPU 0 instructions: 82000003 cycles: 71296474 heartbeat IPC: 0.601568 cumulative IPC: 0.76293 (Simulation time: 0 hr 54 min 19 sec) 
Heartbeat CPU 0 instructions: 83000003 cycles: 72959170 heartbeat IPC: 0.601433 cumulative IPC: 0.756772 (Simulation time: 0 hr 55 min 1 sec) 
Heartbeat CPU 0 instructions: 84000000 cycles: 74573054 heartbeat IPC: 0.619621 cumulative IPC: 0.751878 (Simulation time: 0 hr 55 min 44 sec) 
Heartbeat CPU 0 instructions: 85000001 cycles: 76219743 heartbeat IPC: 0.60728 cumulative IPC: 0.746797 (Simulation time: 0 hr 56 min 26 sec) 
Heartbeat CPU 0 instructions: 86000002 cycles: 77842303 heartbeat IPC: 0.616311 cumulative IPC: 0.742431 (Simulation time: 0 hr 57 min 9 sec) 
Heartbeat CPU 0 instructions: 87000000 cycles: 79483711 heartbeat IPC: 0.609232 cumulative IPC: 0.738069 (Simulation time: 0 hr 57 min 53 sec) 
Heartbeat CPU 0 instructions: 88000000 cycles: 81147513 heartbeat IPC: 0.601033 cumulative IPC: 0.733667 (Simulation time: 0 hr 58 min 37 sec) 
Heartbeat CPU 0 instructions: 89000002 cycles: 82777074 heartbeat IPC: 0.613663 cumulative IPC: 0.730007 (Simulation time: 0 hr 59 min 22 sec) 
Heartbeat CPU 0 instructions: 90000001 cycles: 84415779 heartbeat IPC: 0.610237 cumulative IPC: 0.726443 (Simulation time: 1 hr 0 min 3 sec) 
Heartbeat CPU 0 instructions: 91000003 cycles: 86052235 heartbeat IPC: 0.611078 cumulative IPC: 0.723113 (Simulation time: 1 hr 0 min 45 sec) 
Heartbeat CPU 0 instructions: 92000000 cycles: 87704140 heartbeat IPC: 0.60536 cumulative IPC: 0.719779 (Simulation time: 1 hr 1 min 28 sec) 
Heartbeat CPU 0 instructions: 93000001 cycles: 89383024 heartbeat IPC: 0.595634 cumulative IPC: 0.716307 (Simulation time: 1 hr 2 min 12 sec) 
Heartbeat CPU 0 instructions: 94000003 cycles: 91049902 heartbeat IPC: 0.599925 cumulative IPC: 0.713163 (Simulation time: 1 hr 2 min 52 sec) 
Heartbeat CPU 0 instructions: 95000002 cycles: 92760599 heartbeat IPC: 0.584556 cumulative IPC: 0.709693 (Simulation time: 1 hr 3 min 34 sec) 
Heartbeat CPU 0 instructions: 96000000 cycles: 94406698 heartbeat IPC: 0.607496 cumulative IPC: 0.707107 (Simulation time: 1 hr 4 min 16 sec) 
Heartbeat CPU 0 instructions: 97000003 cycles: 96500420 heartbeat IPC: 0.47762 cumulative IPC: 0.699952 (Simulation time: 1 hr 5 min 2 sec) 
Heartbeat CPU 0 instructions: 98000002 cycles: 102050365 heartbeat IPC: 0.180182 cumulative IPC: 0.660271 (Simulation time: 1 hr 6 min 27 sec) 
Heartbeat CPU 0 instructions: 99000000 cycles: 105069242 heartbeat IPC: 0.331248 cumulative IPC: 0.647152 (Simulation time: 1 hr 7 min 36 sec) 
Heartbeat CPU 0 instructions: 100000000 cycles: 106752864 heartbeat IPC: 0.593958 cumulative IPC: 0.645995 (Simulation time: 1 hr 8 min 12 sec) 
Heartbeat CPU 0 instructions: 101000002 cycles: 108020727 heartbeat IPC: 0.78873 cumulative IPC: 0.648296 (Simulation time: 1 hr 8 min 43 sec) 
Heartbeat CPU 0 instructions: 102000003 cycles: 109323959 heartbeat IPC: 0.767324 cumulative IPC: 0.650235 (Simulation time: 1 hr 9 min 14 sec) 
Heartbeat CPU 0 instructions: 103000002 cycles: 110672203 heartbeat IPC: 0.741705 cumulative IPC: 0.651752 (Simulation time: 1 hr 9 min 43 sec) 
Heartbeat CPU 0 instructions: 104000000 cycles: 112165178 heartbeat IPC: 0.669802 cumulative IPC: 0.652077 (Simulation time: 1 hr 10 min 17 sec) 
Heartbeat CPU 0 instructions: 105000001 cycles: 113692296 heartbeat IPC: 0.654829 cumulative IPC: 0.652127 (Simulation time: 1 hr 10 min 52 sec) 
Heartbeat CPU 0 instructions: 106000001 cycles: 115235384 heartbeat IPC: 0.648051 cumulative IPC: 0.652054 (Simulation time: 1 hr 11 min 25 sec) 
Heartbeat CPU 0 instructions: 107000001 cycles: 116775248 heartbeat IPC: 0.649408 cumulative IPC: 0.652007 (Simulation time: 1 hr 12 min 0 sec) 
Heartbeat CPU 0 instructions: 108000000 cycles: 118320806 heartbeat IPC: 0.647015 cumulative IPC: 0.651921 (Simulation time: 1 hr 12 min 35 sec) 
Heartbeat CPU 0 instructions: 109000001 cycles: 119846152 heartbeat IPC: 0.65559 cumulative IPC: 0.651983 (Simulation time: 1 hr 13 min 9 sec) 
Heartbeat CPU 0 instructions: 110000001 cycles: 121385825 heartbeat IPC: 0.649489 cumulative IPC: 0.651941 (Simulation time: 1 hr 13 min 43 sec) 
Heartbeat CPU 0 instructions: 111000003 cycles: 122919138 heartbeat IPC: 0.652184 cumulative IPC: 0.651945 (Simulation time: 1 hr 14 min 13 sec) 
Heartbeat CPU 0 instructions: 112000000 cycles: 124464959 heartbeat IPC: 0.646904 cumulative IPC: 0.651863 (Simulation time: 1 hr 14 min 47 sec) 
Heartbeat CPU 0 instructions: 113000002 cycles: 126105181 heartbeat IPC: 0.609675 cumulative IPC: 0.651148 (Simulation time: 1 hr 15 min 20 sec) 
Heartbeat CPU 0 instructions: 114000002 cycles: 128522730 heartbeat IPC: 0.413642 cumulative IPC: 0.645358 (Simulation time: 1 hr 15 min 58 sec) 
Heartbeat CPU 0 instructions: 115000003 cycles: 130971869 heartbeat IPC: 0.408307 cumulative IPC: 0.639645 (Simulation time: 1 hr 16 min 29 sec) 
Heartbeat CPU 0 instructions: 116000000 cycles: 133450777 heartbeat IPC: 0.403402 cumulative IPC: 0.634019 (Simulation time: 1 hr 17 min 0 sec) 
Heartbeat CPU 0 instructions: 117000003 cycles: 135885870 heartbeat IPC: 0.410663 cumulative IPC: 0.628913 (Simulation time: 1 hr 17 min 30 sec) 
Heartbeat CPU 0 instructions: 118000000 cycles: 138266870 heartbeat IPC: 0.41999 cumulative IPC: 0.624346 (Simulation time: 1 hr 18 min 5 sec) 
Heartbeat CPU 0 instructions: 119000000 cycles: 140646471 heartbeat IPC: 0.420239 cumulative IPC: 0.619982 (Simulation time: 1 hr 18 min 37 sec) 
Heartbeat CPU 0 instructions: 120000000 cycles: 143092378 heartbeat IPC: 0.408846 cumulative IPC: 0.615442 (Simulation time: 1 hr 19 min 10 sec) 
Heartbeat CPU 0 instructions: 121000001 cycles: 145502549 heartbeat IPC: 0.414909 cumulative IPC: 0.611281 (Simulation time: 1 hr 19 min 42 sec) 
Heartbeat CPU 0 instructions: 122000000 cycles: 147909452 heartbeat IPC: 0.415471 cumulative IPC: 0.607305 (Simulation time: 1 hr 20 min 14 sec) 
Heartbeat CPU 0 instructions: 123000003 cycles: 149290759 heartbeat IPC: 0.723954 cumulative IPC: 0.608649 (Simulation time: 1 hr 20 min 43 sec) 
Heartbeat CPU 0 instructions: 124000000 cycles: 150421340 heartbeat IPC: 0.884498 cumulative IPC: 0.611225 (Simulation time: 1 hr 21 min 7 sec) 
Heartbeat CPU 0 instructions: 125000000 cycles: 151520568 heartbeat IPC: 0.909729 cumulative IPC: 0.61391 (Simulation time: 1 hr 21 min 31 sec) 
Heartbeat CPU 0 instructions: 126000001 cycles: 152614872 heartbeat IPC: 0.913824 cumulative IPC: 0.616573 (Simulation time: 1 hr 21 min 54 sec) 
Heartbeat CPU 0 instructions: 127000002 cycles: 153633721 heartbeat IPC: 0.981501 cumulative IPC: 0.619565 (Simulation time: 1 hr 22 min 20 sec) 
Heartbeat CPU 0 instructions: 128000000 cycles: 154662110 heartbeat IPC: 0.972393 cumulative IPC: 0.62246 (Simulation time: 1 hr 22 min 46 sec) 
Heartbeat CPU 0 instructions: 129000002 cycles: 155752022 heartbeat IPC: 0.917507 cumulative IPC: 0.625004 (Simulation time: 1 hr 23 min 10 sec) 
Heartbeat CPU 0 instructions: 130000001 cycles: 156840685 heartbeat IPC: 0.918557 cumulative IPC: 0.627511 (Simulation time: 1 hr 23 min 34 sec) 
Heartbeat CPU 0 instructions: 131000000 cycles: 157909476 heartbeat IPC: 0.935636 cumulative IPC: 0.630073 (Simulation time: 1 hr 23 min 57 sec) 
Heartbeat CPU 0 instructions: 132000000 cycles: 158980264 heartbeat IPC: 0.933892 cumulative IPC: 0.632583 (Simulation time: 1 hr 24 min 18 sec) 
Heartbeat CPU 0 instructions: 133000001 cycles: 160043985 heartbeat IPC: 0.940097 cumulative IPC: 0.635086 (Simulation time: 1 hr 24 min 39 sec) 
Heartbeat CPU 0 instructions: 134000002 cycles: 161124884 heartbeat IPC: 0.925157 cumulative IPC: 0.637465 (Simulation time: 1 hr 25 min 1 sec) 
Heartbeat CPU 0 instructions: 135000000 cycles: 162178315 heartbeat IPC: 0.949277 cumulative IPC: 0.639938 (Simulation time: 1 hr 25 min 21 sec) 
Heartbeat CPU 0 instructions: 136000000 cycles: 163247130 heartbeat IPC: 0.935616 cumulative IPC: 0.642298 (Simulation time: 1 hr 25 min 41 sec) 
Heartbeat CPU 0 instructions: 137000001 cycles: 164328105 heartbeat IPC: 0.925092 cumulative IPC: 0.644563 (Simulation time: 1 hr 26 min 1 sec) 
Heartbeat CPU 0 instructions: 138000002 cycles: 165402576 heartbeat IPC: 0.930691 cumulative IPC: 0.646823 (Simulation time: 1 hr 26 min 20 sec) 
Heartbeat CPU 0 instructions: 139000001 cycles: 166489397 heartbeat IPC: 0.920114 cumulative IPC: 0.648989 (Simulation time: 1 hr 26 min 38 sec) 
Heartbeat CPU 0 instructions: 140000000 cycles: 167582715 heartbeat IPC: 0.914646 cumulative IPC: 0.65109 (Simulation time: 1 hr 26 min 55 sec) 
Heartbeat CPU 0 instructions: 141000001 cycles: 168654288 heartbeat IPC: 0.933208 cumulative IPC: 0.65326 (Simulation time: 1 hr 27 min 12 sec) 
Heartbeat CPU 0 instructions: 142000003 cycles: 169742860 heartbeat IPC: 0.918637 cumulative IPC: 0.655318 (Simulation time: 1 hr 27 min 28 sec) 
Heartbeat CPU 0 instructions: 143000003 cycles: 170815289 heartbeat IPC: 0.932463 cumulative IPC: 0.657419 (Simulation time: 1 hr 27 min 44 sec) 
Heartbeat CPU 0 instructions: 144000000 cycles: 171896601 heartbeat IPC: 0.9248 cumulative IPC: 0.659447 (Simulation time: 1 hr 28 min 1 sec) 
Heartbeat CPU 0 instructions: 145000000 cycles: 172975310 heartbeat IPC: 0.927034 cumulative IPC: 0.661457 (Simulation time: 1 hr 28 min 17 sec) 
Heartbeat CPU 0 instructions: 146000003 cycles: 174063718 heartbeat IPC: 0.918776 cumulative IPC: 0.663392 (Simulation time: 1 hr 28 min 32 sec) 
Heartbeat CPU 0 instructions: 147000001 cycles: 175150594 heartbeat IPC: 0.920066 cumulative IPC: 0.665306 (Simulation time: 1 hr 28 min 48 sec) 
Heartbeat CPU 0 instructions: 148000000 cycles: 176242661 heartbeat IPC: 0.915694 cumulative IPC: 0.667167 (Simulation time: 1 hr 29 min 3 sec) 
Heartbeat CPU 0 instructions: 149000000 cycles: 177324283 heartbeat IPC: 0.924537 cumulative IPC: 0.669048 (Simulation time: 1 hr 29 min 16 sec) 
Heartbeat CPU 0 instructions: 150000003 cycles: 178410146 heartbeat IPC: 0.920929 cumulative IPC: 0.670883 (Simulation time: 1 hr 29 min 30 sec) 
Finished CPU 0 instructions: 100000000 cycles: 149057213 cummulative IPC: 0.670883 (Simulation time: 1 hr 29 min 30 sec) 

ChampSim completed all CPUs

Region of Interest Statistics

CPU 0 cummulative IPC: 0.670883 instructions: 100000000 cycles: 149057213
LLC TOTAL     ACCESS:    4045254  HIT:     791006  MISS:    3254248
LLC LOAD      ACCESS:     356057  HIT:      71206  MISS:     284851
LLC RFO       ACCESS:     704378  HIT:      54250  MISS:     650128
LLC PREFETCH  ACCESS:    2008132  HIT:     293703  MISS:    1714429
LLC WRITEBACK ACCESS:     976687  HIT:     371847  MISS:     604840
OPTgen accesses: 23753
OPTgen hits: 9738
OPTgen hit rate: 40.9969


