
*** ChampSim Multicore Out-of-Order Simulator ***

Warmup Instructions: 50000000
Simulation Instructions: 100000000
Configuration: 2
Number of CPUs: 1
LLC sets: 2048
LLC ways: 16
Off-chip DRAM Channels: 1 Width: 64-bit Data Rate: 1600 MT/s

CPU 0 runs /datasets/cs240c-wi22-a00-public/data/Assignment2-gz/soplex_205B.trace.gz
CPU 0 L1D next line prefetcher
CPU 0 L2C IP-based stride prefetcher
Initialize Hawkeye state
Heartbeat CPU 0 instructions: 1000000 cycles: 395620 heartbeat IPC: 2.52768 cumulative IPC: 2.52768 (Simulation time: 0 hr 0 min 25 sec) 
Heartbeat CPU 0 instructions: 2000002 cycles: 928717 heartbeat IPC: 1.87583 cumulative IPC: 2.15351 (Simulation time: 0 hr 0 min 55 sec) 
Heartbeat CPU 0 instructions: 3000000 cycles: 1400487 heartbeat IPC: 2.11967 cumulative IPC: 2.14211 (Simulation time: 0 hr 1 min 33 sec) 
Heartbeat CPU 0 instructions: 4000000 cycles: 1761654 heartbeat IPC: 2.7688 cumulative IPC: 2.27059 (Simulation time: 0 hr 2 min 5 sec) 
Heartbeat CPU 0 instructions: 5000003 cycles: 2205047 heartbeat IPC: 2.25534 cumulative IPC: 2.26753 (Simulation time: 0 hr 2 min 38 sec) 
Heartbeat CPU 0 instructions: 6000003 cycles: 2624712 heartbeat IPC: 2.38285 cumulative IPC: 2.28597 (Simulation time: 0 hr 3 min 12 sec) 
Heartbeat CPU 0 instructions: 7000000 cycles: 3009146 heartbeat IPC: 2.60122 cumulative IPC: 2.32624 (Simulation time: 0 hr 3 min 40 sec) 
Heartbeat CPU 0 instructions: 8000000 cycles: 3401640 heartbeat IPC: 2.54781 cumulative IPC: 2.35181 (Simulation time: 0 hr 4 min 9 sec) 
Heartbeat CPU 0 instructions: 9000003 cycles: 3924159 heartbeat IPC: 1.91381 cumulative IPC: 2.29349 (Simulation time: 0 hr 4 min 43 sec) 
Heartbeat CPU 0 instructions: 10000000 cycles: 4409438 heartbeat IPC: 2.06066 cumulative IPC: 2.26786 (Simulation time: 0 hr 5 min 21 sec) 
Heartbeat CPU 0 instructions: 11000001 cycles: 4779380 heartbeat IPC: 2.70313 cumulative IPC: 2.30155 (Simulation time: 0 hr 5 min 50 sec) 
Heartbeat CPU 0 instructions: 12000000 cycles: 5216241 heartbeat IPC: 2.28906 cumulative IPC: 2.30051 (Simulation time: 0 hr 6 min 21 sec) 
Heartbeat CPU 0 instructions: 13000001 cycles: 5638692 heartbeat IPC: 2.36714 cumulative IPC: 2.3055 (Simulation time: 0 hr 6 min 53 sec) 
Heartbeat CPU 0 instructions: 14000003 cycles: 6023012 heartbeat IPC: 2.602 cumulative IPC: 2.32442 (Simulation time: 0 hr 7 min 18 sec) 
Heartbeat CPU 0 instructions: 15000000 cycles: 6433747 heartbeat IPC: 2.43465 cumulative IPC: 2.33146 (Simulation time: 0 hr 7 min 45 sec) 
Heartbeat CPU 0 instructions: 16000000 cycles: 6965772 heartbeat IPC: 1.87961 cumulative IPC: 2.29695 (Simulation time: 0 hr 8 min 18 sec) 
Heartbeat CPU 0 instructions: 17000001 cycles: 7522183 heartbeat IPC: 1.79723 cumulative IPC: 2.25998 (Simulation time: 0 hr 8 min 57 sec) 
Heartbeat CPU 0 instructions: 18000002 cycles: 8034252 heartbeat IPC: 1.95286 cumulative IPC: 2.24041 (Simulation time: 0 hr 9 min 32 sec) 
Heartbeat CPU 0 instructions: 19000002 cycles: 8709461 heartbeat IPC: 1.48102 cumulative IPC: 2.18154 (Simulation time: 0 hr 10 min 10 sec) 
Heartbeat CPU 0 instructions: 20000000 cycles: 9465552 heartbeat IPC: 1.32259 cumulative IPC: 2.11292 (Simulation time: 0 hr 10 min 46 sec) 
Heartbeat CPU 0 instructions: 21000001 cycles: 9911844 heartbeat IPC: 2.24069 cumulative IPC: 2.11868 (Simulation time: 0 hr 11 min 23 sec) 
Heartbeat CPU 0 instructions: 22000000 cycles: 10357245 heartbeat IPC: 2.24517 cumulative IPC: 2.12412 (Simulation time: 0 hr 12 min 4 sec) 
Heartbeat CPU 0 instructions: 23000000 cycles: 10798938 heartbeat IPC: 2.26402 cumulative IPC: 2.12984 (Simulation time: 0 hr 12 min 40 sec) 
Heartbeat CPU 0 instructions: 24000000 cycles: 11300262 heartbeat IPC: 1.99472 cumulative IPC: 2.12384 (Simulation time: 0 hr 13 min 19 sec) 
Heartbeat CPU 0 instructions: 25000002 cycles: 11841339 heartbeat IPC: 1.84817 cumulative IPC: 2.11125 (Simulation time: 0 hr 13 min 58 sec) 
Heartbeat CPU 0 instructions: 26000002 cycles: 12480920 heartbeat IPC: 1.56352 cumulative IPC: 2.08318 (Simulation time: 0 hr 14 min 41 sec) 
Heartbeat CPU 0 instructions: 27000003 cycles: 13067481 heartbeat IPC: 1.70485 cumulative IPC: 2.0662 (Simulation time: 0 hr 15 min 18 sec) 
Heartbeat CPU 0 instructions: 28000000 cycles: 13837514 heartbeat IPC: 1.29864 cumulative IPC: 2.02348 (Simulation time: 0 hr 16 min 0 sec) 
Heartbeat CPU 0 instructions: 29000002 cycles: 14419459 heartbeat IPC: 1.71838 cumulative IPC: 2.01117 (Simulation time: 0 hr 16 min 32 sec) 
Heartbeat CPU 0 instructions: 30000003 cycles: 14839755 heartbeat IPC: 2.37928 cumulative IPC: 2.0216 (Simulation time: 0 hr 17 min 1 sec) 
Heartbeat CPU 0 instructions: 31000003 cycles: 15306169 heartbeat IPC: 2.14402 cumulative IPC: 2.02533 (Simulation time: 0 hr 17 min 35 sec) 
Heartbeat CPU 0 instructions: 32000000 cycles: 15813430 heartbeat IPC: 1.97137 cumulative IPC: 2.0236 (Simulation time: 0 hr 18 min 12 sec) 
Heartbeat CPU 0 instructions: 33000000 cycles: 16346758 heartbeat IPC: 1.87502 cumulative IPC: 2.01875 (Simulation time: 0 hr 18 min 49 sec) 
Heartbeat CPU 0 instructions: 34000003 cycles: 16846083 heartbeat IPC: 2.00271 cumulative IPC: 2.01827 (Simulation time: 0 hr 19 min 22 sec) 
Heartbeat CPU 0 instructions: 35000003 cycles: 17213983 heartbeat IPC: 2.71813 cumulative IPC: 2.03323 (Simulation time: 0 hr 19 min 54 sec) 
Heartbeat CPU 0 instructions: 36000000 cycles: 17655495 heartbeat IPC: 2.26494 cumulative IPC: 2.03903 (Simulation time: 0 hr 20 min 26 sec) 
Heartbeat CPU 0 instructions: 37000000 cycles: 18076643 heartbeat IPC: 2.37446 cumulative IPC: 2.04684 (Simulation time: 0 hr 20 min 58 sec) 
Heartbeat CPU 0 instructions: 38000003 cycles: 18460674 heartbeat IPC: 2.60396 cumulative IPC: 2.05843 (Simulation time: 0 hr 21 min 23 sec) 
Heartbeat CPU 0 instructions: 39000003 cycles: 18851201 heartbeat IPC: 2.56064 cumulative IPC: 2.06883 (Simulation time: 0 hr 21 min 51 sec) 
Heartbeat CPU 0 instructions: 40000000 cycles: 19375360 heartbeat IPC: 1.90781 cumulative IPC: 2.06448 (Simulation time: 0 hr 22 min 23 sec) 
Heartbeat CPU 0 instructions: 41000000 cycles: 19770968 heartbeat IPC: 2.52775 cumulative IPC: 2.07375 (Simulation time: 0 hr 22 min 56 sec) 
Heartbeat CPU 0 instructions: 42000001 cycles: 20189265 heartbeat IPC: 2.39065 cumulative IPC: 2.08031 (Simulation time: 0 hr 23 min 26 sec) 
Heartbeat CPU 0 instructions: 43000001 cycles: 20613864 heartbeat IPC: 2.35516 cumulative IPC: 2.08597 (Simulation time: 0 hr 24 min 0 sec) 
Heartbeat CPU 0 instructions: 44000000 cycles: 21013087 heartbeat IPC: 2.50486 cumulative IPC: 2.09393 (Simulation time: 0 hr 24 min 28 sec) 
Heartbeat CPU 0 instructions: 45000001 cycles: 21397787 heartbeat IPC: 2.59943 cumulative IPC: 2.10302 (Simulation time: 0 hr 24 min 52 sec) 
Heartbeat CPU 0 instructions: 46000000 cycles: 21883236 heartbeat IPC: 2.05995 cumulative IPC: 2.10207 (Simulation time: 0 hr 25 min 21 sec) 
Heartbeat CPU 0 instructions: 47000000 cycles: 22338895 heartbeat IPC: 2.19462 cumulative IPC: 2.10395 (Simulation time: 0 hr 25 min 53 sec) 
Heartbeat CPU 0 instructions: 48000000 cycles: 22780669 heartbeat IPC: 2.2636 cumulative IPC: 2.10705 (Simulation time: 0 hr 26 min 24 sec) 
Heartbeat CPU 0 instructions: 49000001 cycles: 23196264 heartbeat IPC: 2.40619 cumulative IPC: 2.11241 (Simulation time: 0 hr 26 min 52 sec) 
Heartbeat CPU 0 instructions: 50000003 cycles: 23617534 heartbeat IPC: 2.37378 cumulative IPC: 2.11707 (Simulation time: 0 hr 27 min 23 sec) 

Warmup complete CPU 0 instructions: 50000003 cycles: 23617534 (Simulation time: 0 hr 27 min 23 sec) 

Heartbeat CPU 0 instructions: 51000003 cycles: 25866898 heartbeat IPC: 0.44457 cumulative IPC: 0.44457 (Simulation time: 0 hr 27 min 55 sec) 
Heartbeat CPU 0 instructions: 52000000 cycles: 26981162 heartbeat IPC: 0.897451 cumulative IPC: 0.594595 (Simulation time: 0 hr 28 min 22 sec) 
Heartbeat CPU 0 instructions: 53000003 cycles: 30057164 heartbeat IPC: 0.325098 cumulative IPC: 0.465865 (Simulation time: 0 hr 29 min 0 sec) 
Heartbeat CPU 0 instructions: 54000001 cycles: 33331498 heartbeat IPC: 0.305405 cumulative IPC: 0.411778 (Simulation time: 0 hr 29 min 43 sec) 
Heartbeat CPU 0 instructions: 55000001 cycles: 36393077 heartbeat IPC: 0.326629 cumulative IPC: 0.391373 (Simulation time: 0 hr 30 min 25 sec) 
Heartbeat CPU 0 instructions: 56000000 cycles: 38184895 heartbeat IPC: 0.558092 cumulative IPC: 0.411879 (Simulation time: 0 hr 31 min 0 sec) 
Heartbeat CPU 0 instructions: 57000000 cycles: 41465253 heartbeat IPC: 0.304845 cumulative IPC: 0.392207 (Simulation time: 0 hr 31 min 43 sec) 
Heartbeat CPU 0 instructions: 58000000 cycles: 43595698 heartbeat IPC: 0.469386 cumulative IPC: 0.400437 (Simulation time: 0 hr 32 min 15 sec) 
Heartbeat CPU 0 instructions: 59000001 cycles: 44698016 heartbeat IPC: 0.90718 cumulative IPC: 0.426935 (Simulation time: 0 hr 32 min 43 sec) 
Heartbeat CPU 0 instructions: 60000000 cycles: 47850062 heartbeat IPC: 0.317254 cumulative IPC: 0.412668 (Simulation time: 0 hr 33 min 24 sec) 
Heartbeat CPU 0 instructions: 61000003 cycles: 51109734 heartbeat IPC: 0.30678 cumulative IPC: 0.400113 (Simulation time: 0 hr 34 min 9 sec) 
Heartbeat CPU 0 instructions: 62000002 cycles: 54324135 heartbeat IPC: 0.3111 cumulative IPC: 0.390795 (Simulation time: 0 hr 34 min 53 sec) 
Heartbeat CPU 0 instructions: 63000001 cycles: 55901412 heartbeat IPC: 0.634003 cumulative IPC: 0.402678 (Simulation time: 0 hr 35 min 29 sec) 
Heartbeat CPU 0 instructions: 64000000 cycles: 59572256 heartbeat IPC: 0.272417 cumulative IPC: 0.389379 (Simulation time: 0 hr 36 min 17 sec) 
Heartbeat CPU 0 instructions: 65000001 cycles: 61342971 heartbeat IPC: 0.564744 cumulative IPC: 0.39761 (Simulation time: 0 hr 36 min 47 sec) 
Heartbeat CPU 0 instructions: 66000000 cycles: 62437249 heartbeat IPC: 0.913844 cumulative IPC: 0.412162 (Simulation time: 0 hr 37 min 13 sec) 
Heartbeat CPU 0 instructions: 67000003 cycles: 65448016 heartbeat IPC: 0.332142 cumulative IPC: 0.406402 (Simulation time: 0 hr 38 min 0 sec) 
Heartbeat CPU 0 instructions: 68000000 cycles: 68733597 heartbeat IPC: 0.304359 cumulative IPC: 0.398971 (Simulation time: 0 hr 38 min 50 sec) 
Heartbeat CPU 0 instructions: 69000001 cycles: 71610882 heartbeat IPC: 0.34755 cumulative IPC: 0.395888 (Simulation time: 0 hr 39 min 41 sec) 
Heartbeat CPU 0 instructions: 70000000 cycles: 73423103 heartbeat IPC: 0.551809 cumulative IPC: 0.401561 (Simulation time: 0 hr 40 min 26 sec) 
Heartbeat CPU 0 instructions: 71000001 cycles: 76766961 heartbeat IPC: 0.299056 cumulative IPC: 0.395112 (Simulation time: 0 hr 41 min 20 sec) 
Heartbeat CPU 0 instructions: 72000000 cycles: 78897925 heartbeat IPC: 0.469271 cumulative IPC: 0.397971 (Simulation time: 0 hr 41 min 58 sec) 
Heartbeat CPU 0 instructions: 73000000 cycles: 80008397 heartbeat IPC: 0.900518 cumulative IPC: 0.407867 (Simulation time: 0 hr 42 min 24 sec) 
Heartbeat CPU 0 instructions: 74000001 cycles: 82880943 heartbeat IPC: 0.348124 cumulative IPC: 0.404972 (Simulation time: 0 hr 43 min 6 sec) 
Heartbeat CPU 0 instructions: 75000003 cycles: 86167625 heartbeat IPC: 0.304259 cumulative IPC: 0.39968 (Simulation time: 0 hr 43 min 58 sec) 
Heartbeat CPU 0 instructions: 76000000 cycles: 89529682 heartbeat IPC: 0.297436 cumulative IPC: 0.394464 (Simulation time: 0 hr 44 min 42 sec) 
Heartbeat CPU 0 instructions: 77000000 cycles: 91048179 heartbeat IPC: 0.658546 cumulative IPC: 0.400411 (Simulation time: 0 hr 45 min 17 sec) 
Heartbeat CPU 0 instructions: 78000000 cycles: 94809137 heartbeat IPC: 0.26589 cumulative IPC: 0.393305 (Simulation time: 0 hr 46 min 5 sec) 
Heartbeat CPU 0 instructions: 79000002 cycles: 96496190 heartbeat IPC: 0.592751 cumulative IPC: 0.397922 (Simulation time: 0 hr 46 min 32 sec) 
Heartbeat CPU 0 instructions: 80000000 cycles: 97585561 heartbeat IPC: 0.917959 cumulative IPC: 0.405581 (Simulation time: 0 hr 46 min 56 sec) 
Heartbeat CPU 0 instructions: 81000000 cycles: 100803783 heartbeat IPC: 0.310731 cumulative IPC: 0.401626 (Simulation time: 0 hr 47 min 38 sec) 
Heartbeat CPU 0 instructions: 82000000 cycles: 104086110 heartbeat IPC: 0.304662 cumulative IPC: 0.397671 (Simulation time: 0 hr 48 min 23 sec) 
Heartbeat CPU 0 instructions: 83000000 cycles: 107440923 heartbeat IPC: 0.298079 cumulative IPC: 0.393685 (Simulation time: 0 hr 49 min 10 sec) 
Heartbeat CPU 0 instructions: 84000000 cycles: 109086168 heartbeat IPC: 0.607812 cumulative IPC: 0.397807 (Simulation time: 0 hr 49 min 47 sec) 
Heartbeat CPU 0 instructions: 85000000 cycles: 112919875 heartbeat IPC: 0.260844 cumulative IPC: 0.391927 (Simulation time: 0 hr 50 min 35 sec) 
Heartbeat CPU 0 instructions: 86000002 cycles: 114259394 heartbeat IPC: 0.746538 cumulative IPC: 0.397167 (Simulation time: 0 hr 51 min 2 sec) 
Heartbeat CPU 0 instructions: 87000002 cycles: 115344469 heartbeat IPC: 0.921595 cumulative IPC: 0.403371 (Simulation time: 0 hr 51 min 28 sec) 
Heartbeat CPU 0 instructions: 88000000 cycles: 118378915 heartbeat IPC: 0.329549 cumulative IPC: 0.401007 (Simulation time: 0 hr 52 min 9 sec) 
Heartbeat CPU 0 instructions: 89000001 cycles: 122096456 heartbeat IPC: 0.268995 cumulative IPC: 0.396024 (Simulation time: 0 hr 53 min 0 sec) 
Heartbeat CPU 0 instructions: 90000001 cycles: 125239556 heartbeat IPC: 0.318157 cumulative IPC: 0.393615 (Simulation time: 0 hr 53 min 42 sec) 
Heartbeat CPU 0 instructions: 91000003 cycles: 127037732 heartbeat IPC: 0.55612 cumulative IPC: 0.396441 (Simulation time: 0 hr 54 min 19 sec) 
Heartbeat CPU 0 instructions: 92000000 cycles: 130665824 heartbeat IPC: 0.275626 cumulative IPC: 0.392346 (Simulation time: 0 hr 55 min 4 sec) 
Heartbeat CPU 0 instructions: 93000000 cycles: 131853983 heartbeat IPC: 0.841638 cumulative IPC: 0.397278 (Simulation time: 0 hr 55 min 33 sec) 
Heartbeat CPU 0 instructions: 94000000 cycles: 133128211 heartbeat IPC: 0.784789 cumulative IPC: 0.401787 (Simulation time: 0 hr 56 min 2 sec) 
Heartbeat CPU 0 instructions: 95000002 cycles: 136503922 heartbeat IPC: 0.296234 cumulative IPC: 0.398631 (Simulation time: 0 hr 56 min 50 sec) 
Heartbeat CPU 0 instructions: 96000000 cycles: 139431650 heartbeat IPC: 0.341561 cumulative IPC: 0.397188 (Simulation time: 0 hr 57 min 34 sec) 
Heartbeat CPU 0 instructions: 97000003 cycles: 142159336 heartbeat IPC: 0.366612 cumulative IPC: 0.396485 (Simulation time: 0 hr 58 min 14 sec) 
Heartbeat CPU 0 instructions: 98000003 cycles: 144406393 heartbeat IPC: 0.445027 cumulative IPC: 0.397388 (Simulation time: 0 hr 58 min 57 sec) 
Heartbeat CPU 0 instructions: 99000000 cycles: 147587398 heartbeat IPC: 0.314365 cumulative IPC: 0.395257 (Simulation time: 0 hr 59 min 42 sec) 
Heartbeat CPU 0 instructions: 100000000 cycles: 148749108 heartbeat IPC: 0.8608 cumulative IPC: 0.399579 (Simulation time: 1 hr 0 min 8 sec) 
Heartbeat CPU 0 instructions: 101000003 cycles: 150605721 heartbeat IPC: 0.538617 cumulative IPC: 0.401612 (Simulation time: 1 hr 0 min 38 sec) 
Heartbeat CPU 0 instructions: 102000002 cycles: 153939859 heartbeat IPC: 0.299927 cumulative IPC: 0.399011 (Simulation time: 1 hr 1 min 27 sec) 
Heartbeat CPU 0 instructions: 103000000 cycles: 156040616 heartbeat IPC: 0.476018 cumulative IPC: 0.400232 (Simulation time: 1 hr 2 min 14 sec) 
Heartbeat CPU 0 instructions: 104000000 cycles: 164759557 heartbeat IPC: 0.114693 cumulative IPC: 0.382593 (Simulation time: 1 hr 3 min 16 sec) 
Heartbeat CPU 0 instructions: 105000000 cycles: 166794461 heartbeat IPC: 0.491424 cumulative IPC: 0.38414 (Simulation time: 1 hr 4 min 8 sec) 
Heartbeat CPU 0 instructions: 106000002 cycles: 170923866 heartbeat IPC: 0.242166 cumulative IPC: 0.38016 (Simulation time: 1 hr 4 min 55 sec) 
Heartbeat CPU 0 instructions: 107000003 cycles: 175242864 heartbeat IPC: 0.231535 cumulative IPC: 0.375927 (Simulation time: 1 hr 5 min 41 sec) 
Heartbeat CPU 0 instructions: 108000000 cycles: 178566110 heartbeat IPC: 0.30091 cumulative IPC: 0.374318 (Simulation time: 1 hr 6 min 24 sec) 
Heartbeat CPU 0 instructions: 109000000 cycles: 181966410 heartbeat IPC: 0.294092 cumulative IPC: 0.372595 (Simulation time: 1 hr 7 min 14 sec) 
Heartbeat CPU 0 instructions: 110000003 cycles: 185547629 heartbeat IPC: 0.279235 cumulative IPC: 0.37053 (Simulation time: 1 hr 7 min 48 sec) 
Heartbeat CPU 0 instructions: 111000002 cycles: 189108986 heartbeat IPC: 0.280792 cumulative IPC: 0.368599 (Simulation time: 1 hr 8 min 29 sec) 
Heartbeat CPU 0 instructions: 112000000 cycles: 191739923 heartbeat IPC: 0.380092 cumulative IPC: 0.368779 (Simulation time: 1 hr 9 min 8 sec) 
Heartbeat CPU 0 instructions: 113000001 cycles: 195082900 heartbeat IPC: 0.299135 cumulative IPC: 0.367421 (Simulation time: 1 hr 9 min 51 sec) 
Heartbeat CPU 0 instructions: 114000000 cycles: 197045098 heartbeat IPC: 0.509632 cumulative IPC: 0.36903 (Simulation time: 1 hr 10 min 27 sec) 
Heartbeat CPU 0 instructions: 115000002 cycles: 198357026 heartbeat IPC: 0.762239 cumulative IPC: 0.371982 (Simulation time: 1 hr 10 min 56 sec) 
Heartbeat CPU 0 instructions: 116000000 cycles: 199736047 heartbeat IPC: 0.725151 cumulative IPC: 0.374748 (Simulation time: 1 hr 11 min 25 sec) 
Heartbeat CPU 0 instructions: 117000001 cycles: 202410868 heartbeat IPC: 0.373857 cumulative IPC: 0.374734 (Simulation time: 1 hr 12 min 4 sec) 
Heartbeat CPU 0 instructions: 118000002 cycles: 205207115 heartbeat IPC: 0.357623 cumulative IPC: 0.374471 (Simulation time: 1 hr 12 min 50 sec) 
Heartbeat CPU 0 instructions: 119000001 cycles: 207152313 heartbeat IPC: 0.514086 cumulative IPC: 0.375951 (Simulation time: 1 hr 13 min 30 sec) 
Heartbeat CPU 0 instructions: 120000000 cycles: 209833204 heartbeat IPC: 0.37301 cumulative IPC: 0.375908 (Simulation time: 1 hr 14 min 5 sec) 
Heartbeat CPU 0 instructions: 121000000 cycles: 211569794 heartbeat IPC: 0.575841 cumulative IPC: 0.377755 (Simulation time: 1 hr 14 min 38 sec) 
Heartbeat CPU 0 instructions: 122000000 cycles: 215443435 heartbeat IPC: 0.258155 cumulative IPC: 0.37534 (Simulation time: 1 hr 15 min 17 sec) 
Heartbeat CPU 0 instructions: 123000001 cycles: 216664921 heartbeat IPC: 0.818676 cumulative IPC: 0.378145 (Simulation time: 1 hr 15 min 36 sec) 
Heartbeat CPU 0 instructions: 124000000 cycles: 217900212 heartbeat IPC: 0.809525 cumulative IPC: 0.380888 (Simulation time: 1 hr 15 min 55 sec) 
Heartbeat CPU 0 instructions: 125000000 cycles: 220887318 heartbeat IPC: 0.334772 cumulative IPC: 0.38019 (Simulation time: 1 hr 16 min 23 sec) 
Heartbeat CPU 0 instructions: 126000000 cycles: 224890960 heartbeat IPC: 0.249773 cumulative IPC: 0.377596 (Simulation time: 1 hr 16 min 56 sec) 
Heartbeat CPU 0 instructions: 127000003 cycles: 227270420 heartbeat IPC: 0.420265 cumulative IPC: 0.378094 (Simulation time: 1 hr 17 min 20 sec) 
Heartbeat CPU 0 instructions: 128000000 cycles: 230102754 heartbeat IPC: 0.353065 cumulative IPC: 0.377751 (Simulation time: 1 hr 17 min 50 sec) 
Heartbeat CPU 0 instructions: 129000000 cycles: 232782353 heartbeat IPC: 0.37319 cumulative IPC: 0.377693 (Simulation time: 1 hr 18 min 15 sec) 
Heartbeat CPU 0 instructions: 130000003 cycles: 233924485 heartbeat IPC: 0.875558 cumulative IPC: 0.380396 (Simulation time: 1 hr 18 min 32 sec) 
Heartbeat CPU 0 instructions: 131000001 cycles: 236465387 heartbeat IPC: 0.39356 cumulative IPC: 0.380554 (Simulation time: 1 hr 19 min 2 sec) 
Heartbeat CPU 0 instructions: 132000000 cycles: 239698338 heartbeat IPC: 0.309315 cumulative IPC: 0.379488 (Simulation time: 1 hr 19 min 37 sec) 
Heartbeat CPU 0 instructions: 133000000 cycles: 242506774 heartbeat IPC: 0.35607 cumulative IPC: 0.379187 (Simulation time: 1 hr 20 min 5 sec) 
Heartbeat CPU 0 instructions: 134000002 cycles: 244059855 heartbeat IPC: 0.643883 cumulative IPC: 0.381052 (Simulation time: 1 hr 20 min 26 sec) 
Heartbeat CPU 0 instructions: 135000002 cycles: 247817716 heartbeat IPC: 0.266109 cumulative IPC: 0.379125 (Simulation time: 1 hr 20 min 57 sec) 
Heartbeat CPU 0 instructions: 136000000 cycles: 249567097 heartbeat IPC: 0.57163 cumulative IPC: 0.380616 (Simulation time: 1 hr 21 min 13 sec) 
Heartbeat CPU 0 instructions: 137000000 cycles: 250664160 heartbeat IPC: 0.911525 cumulative IPC: 0.383181 (Simulation time: 1 hr 21 min 28 sec) 
Heartbeat CPU 0 instructions: 138000003 cycles: 253692494 heartbeat IPC: 0.330216 cumulative IPC: 0.382484 (Simulation time: 1 hr 21 min 52 sec) 
Heartbeat CPU 0 instructions: 139000000 cycles: 256910772 heartbeat IPC: 0.310724 cumulative IPC: 0.381494 (Simulation time: 1 hr 22 min 20 sec) 
Heartbeat CPU 0 instructions: 140000000 cycles: 259053482 heartbeat IPC: 0.466699 cumulative IPC: 0.38227 (Simulation time: 1 hr 22 min 44 sec) 
Heartbeat CPU 0 instructions: 141000002 cycles: 260757379 heartbeat IPC: 0.586891 cumulative IPC: 0.38374 (Simulation time: 1 hr 23 min 5 sec) 
Heartbeat CPU 0 instructions: 142000001 cycles: 264287233 heartbeat IPC: 0.283298 cumulative IPC: 0.382267 (Simulation time: 1 hr 23 min 33 sec) 
Heartbeat CPU 0 instructions: 143000003 cycles: 266263213 heartbeat IPC: 0.506079 cumulative IPC: 0.383275 (Simulation time: 1 hr 23 min 53 sec) 
Heartbeat CPU 0 instructions: 144000000 cycles: 267362781 heartbeat IPC: 0.909445 cumulative IPC: 0.385649 (Simulation time: 1 hr 24 min 7 sec) 
Heartbeat CPU 0 instructions: 145000000 cycles: 270355141 heartbeat IPC: 0.334184 cumulative IPC: 0.385024 (Simulation time: 1 hr 24 min 29 sec) 
Heartbeat CPU 0 instructions: 146000003 cycles: 273620187 heartbeat IPC: 0.306275 cumulative IPC: 0.383996 (Simulation time: 1 hr 24 min 53 sec) 
Heartbeat CPU 0 instructions: 147000000 cycles: 275629176 heartbeat IPC: 0.497761 cumulative IPC: 0.384903 (Simulation time: 1 hr 25 min 12 sec) 
Heartbeat CPU 0 instructions: 148000000 cycles: 277126752 heartbeat IPC: 0.667746 cumulative IPC: 0.386574 (Simulation time: 1 hr 25 min 30 sec) 
Heartbeat CPU 0 instructions: 149000001 cycles: 280971403 heartbeat IPC: 0.260102 cumulative IPC: 0.384684 (Simulation time: 1 hr 25 min 55 sec) 
Heartbeat CPU 0 instructions: 150000002 cycles: 282664195 heartbeat IPC: 0.590741 cumulative IPC: 0.386031 (Simulation time: 1 hr 26 min 8 sec) 
Finished CPU 0 instructions: 100000002 cycles: 259046663 cummulative IPC: 0.386031 (Simulation time: 1 hr 26 min 8 sec) 

ChampSim completed all CPUs

Region of Interest Statistics

CPU 0 cummulative IPC: 0.386031 instructions: 100000002 cycles: 259046663
LLC TOTAL     ACCESS:    8438921  HIT:    4598240  MISS:    3840681
LLC LOAD      ACCESS:    2160651  HIT:    1012251  MISS:    1148400
LLC RFO       ACCESS:     775964  HIT:     263285  MISS:     512679
LLC PREFETCH  ACCESS:    3416407  HIT:    1605786  MISS:    1810621
LLC WRITEBACK ACCESS:    2085899  HIT:    1716918  MISS:     368981
OPTgen accesses: 69967
OPTgen hits: 50388
OPTgen hit rate: 72.0168


