
*** ChampSim Multicore Out-of-Order Simulator ***

Warmup Instructions: 50000000
Simulation Instructions: 100000000
Configuration: 2
Number of CPUs: 1
LLC sets: 2048
LLC ways: 16
Off-chip DRAM Channels: 1 Width: 64-bit Data Rate: 1600 MT/s

CPU 0 runs /datasets/cs240c-wi22-a00-public/data/Assignment2-gz/astar_23B.trace.gz
CPU 0 L1D next line prefetcher
CPU 0 L2C IP-based stride prefetcher
Initialize Hawkeye state
Heartbeat CPU 0 instructions: 1000000 cycles: 359869 heartbeat IPC: 2.77879 cumulative IPC: 2.77879 (Simulation time: 0 hr 0 min 31 sec) 
Heartbeat CPU 0 instructions: 2000001 cycles: 720498 heartbeat IPC: 2.77294 cumulative IPC: 2.77586 (Simulation time: 0 hr 1 min 1 sec) 
Heartbeat CPU 0 instructions: 3000000 cycles: 1079245 heartbeat IPC: 2.78748 cumulative IPC: 2.77972 (Simulation time: 0 hr 1 min 31 sec) 
Heartbeat CPU 0 instructions: 4000000 cycles: 1440499 heartbeat IPC: 2.76814 cumulative IPC: 2.77682 (Simulation time: 0 hr 2 min 1 sec) 
Heartbeat CPU 0 instructions: 5000000 cycles: 1802439 heartbeat IPC: 2.76289 cumulative IPC: 2.77402 (Simulation time: 0 hr 2 min 31 sec) 
Heartbeat CPU 0 instructions: 6000002 cycles: 2163910 heartbeat IPC: 2.76648 cumulative IPC: 2.77276 (Simulation time: 0 hr 3 min 1 sec) 
Heartbeat CPU 0 instructions: 7000002 cycles: 2525202 heartbeat IPC: 2.76784 cumulative IPC: 2.77206 (Simulation time: 0 hr 3 min 31 sec) 
Heartbeat CPU 0 instructions: 8000000 cycles: 2887899 heartbeat IPC: 2.75712 cumulative IPC: 2.77018 (Simulation time: 0 hr 4 min 0 sec) 
Heartbeat CPU 0 instructions: 9000000 cycles: 3250621 heartbeat IPC: 2.75693 cumulative IPC: 2.7687 (Simulation time: 0 hr 4 min 33 sec) 
Heartbeat CPU 0 instructions: 10000003 cycles: 3615245 heartbeat IPC: 2.74256 cumulative IPC: 2.76607 (Simulation time: 0 hr 5 min 2 sec) 
Heartbeat CPU 0 instructions: 11000000 cycles: 3979319 heartbeat IPC: 2.74669 cumulative IPC: 2.76429 (Simulation time: 0 hr 5 min 31 sec) 
Heartbeat CPU 0 instructions: 12000000 cycles: 4343809 heartbeat IPC: 2.74356 cumulative IPC: 2.76255 (Simulation time: 0 hr 6 min 1 sec) 
Heartbeat CPU 0 instructions: 13000001 cycles: 4706262 heartbeat IPC: 2.75898 cumulative IPC: 2.76228 (Simulation time: 0 hr 6 min 31 sec) 
Heartbeat CPU 0 instructions: 14000003 cycles: 5069096 heartbeat IPC: 2.75609 cumulative IPC: 2.76183 (Simulation time: 0 hr 7 min 1 sec) 
Heartbeat CPU 0 instructions: 15000003 cycles: 5431707 heartbeat IPC: 2.75778 cumulative IPC: 2.76156 (Simulation time: 0 hr 7 min 33 sec) 
Heartbeat CPU 0 instructions: 16000000 cycles: 5794049 heartbeat IPC: 2.75982 cumulative IPC: 2.76145 (Simulation time: 0 hr 8 min 4 sec) 
Heartbeat CPU 0 instructions: 17000000 cycles: 6155188 heartbeat IPC: 2.76902 cumulative IPC: 2.7619 (Simulation time: 0 hr 8 min 33 sec) 
Heartbeat CPU 0 instructions: 18000001 cycles: 6515371 heartbeat IPC: 2.77637 cumulative IPC: 2.7627 (Simulation time: 0 hr 9 min 4 sec) 
Heartbeat CPU 0 instructions: 19000002 cycles: 6876050 heartbeat IPC: 2.77255 cumulative IPC: 2.76321 (Simulation time: 0 hr 9 min 35 sec) 
Heartbeat CPU 0 instructions: 20000000 cycles: 7236049 heartbeat IPC: 2.77778 cumulative IPC: 2.76394 (Simulation time: 0 hr 10 min 6 sec) 
Heartbeat CPU 0 instructions: 21000001 cycles: 7596965 heartbeat IPC: 2.77073 cumulative IPC: 2.76426 (Simulation time: 0 hr 10 min 40 sec) 
Heartbeat CPU 0 instructions: 22000000 cycles: 7958985 heartbeat IPC: 2.76228 cumulative IPC: 2.76417 (Simulation time: 0 hr 11 min 11 sec) 
Heartbeat CPU 0 instructions: 23000000 cycles: 8320214 heartbeat IPC: 2.76833 cumulative IPC: 2.76435 (Simulation time: 0 hr 11 min 43 sec) 
Heartbeat CPU 0 instructions: 24000000 cycles: 8681015 heartbeat IPC: 2.77161 cumulative IPC: 2.76465 (Simulation time: 0 hr 12 min 14 sec) 
Heartbeat CPU 0 instructions: 25000001 cycles: 9041604 heartbeat IPC: 2.77324 cumulative IPC: 2.765 (Simulation time: 0 hr 12 min 45 sec) 
Heartbeat CPU 0 instructions: 26000002 cycles: 9402713 heartbeat IPC: 2.76925 cumulative IPC: 2.76516 (Simulation time: 0 hr 13 min 18 sec) 
Heartbeat CPU 0 instructions: 27000000 cycles: 9763215 heartbeat IPC: 2.7739 cumulative IPC: 2.76548 (Simulation time: 0 hr 13 min 50 sec) 
Heartbeat CPU 0 instructions: 28000000 cycles: 10124496 heartbeat IPC: 2.76793 cumulative IPC: 2.76557 (Simulation time: 0 hr 14 min 21 sec) 
Heartbeat CPU 0 instructions: 29000000 cycles: 10485988 heartbeat IPC: 2.76631 cumulative IPC: 2.7656 (Simulation time: 0 hr 14 min 54 sec) 
Heartbeat CPU 0 instructions: 30000000 cycles: 10848150 heartbeat IPC: 2.7612 cumulative IPC: 2.76545 (Simulation time: 0 hr 15 min 24 sec) 
Heartbeat CPU 0 instructions: 31000001 cycles: 11209319 heartbeat IPC: 2.76879 cumulative IPC: 2.76556 (Simulation time: 0 hr 15 min 55 sec) 
Heartbeat CPU 0 instructions: 32000000 cycles: 11570039 heartbeat IPC: 2.77223 cumulative IPC: 2.76576 (Simulation time: 0 hr 16 min 30 sec) 
Heartbeat CPU 0 instructions: 33000002 cycles: 11930963 heartbeat IPC: 2.77067 cumulative IPC: 2.76591 (Simulation time: 0 hr 16 min 59 sec) 
Heartbeat CPU 0 instructions: 34000001 cycles: 12292587 heartbeat IPC: 2.7653 cumulative IPC: 2.76589 (Simulation time: 0 hr 17 min 30 sec) 
Heartbeat CPU 0 instructions: 35000000 cycles: 12653294 heartbeat IPC: 2.77233 cumulative IPC: 2.76608 (Simulation time: 0 hr 18 min 3 sec) 
Heartbeat CPU 0 instructions: 36000000 cycles: 13013133 heartbeat IPC: 2.77902 cumulative IPC: 2.76644 (Simulation time: 0 hr 18 min 36 sec) 
Heartbeat CPU 0 instructions: 37000000 cycles: 13372958 heartbeat IPC: 2.77913 cumulative IPC: 2.76678 (Simulation time: 0 hr 19 min 6 sec) 
Heartbeat CPU 0 instructions: 38000003 cycles: 13733011 heartbeat IPC: 2.77738 cumulative IPC: 2.76706 (Simulation time: 0 hr 19 min 38 sec) 
Heartbeat CPU 0 instructions: 39000003 cycles: 14093626 heartbeat IPC: 2.77304 cumulative IPC: 2.76721 (Simulation time: 0 hr 20 min 10 sec) 
Heartbeat CPU 0 instructions: 40000000 cycles: 14453877 heartbeat IPC: 2.77583 cumulative IPC: 2.76742 (Simulation time: 0 hr 20 min 42 sec) 
Heartbeat CPU 0 instructions: 41000002 cycles: 14813998 heartbeat IPC: 2.77685 cumulative IPC: 2.76765 (Simulation time: 0 hr 21 min 15 sec) 
Heartbeat CPU 0 instructions: 42000003 cycles: 15175810 heartbeat IPC: 2.76387 cumulative IPC: 2.76756 (Simulation time: 0 hr 21 min 46 sec) 
Heartbeat CPU 0 instructions: 43000003 cycles: 15537000 heartbeat IPC: 2.76863 cumulative IPC: 2.76759 (Simulation time: 0 hr 22 min 20 sec) 
Heartbeat CPU 0 instructions: 44000000 cycles: 15899924 heartbeat IPC: 2.75539 cumulative IPC: 2.76731 (Simulation time: 0 hr 22 min 53 sec) 
Heartbeat CPU 0 instructions: 45000002 cycles: 16264041 heartbeat IPC: 2.74638 cumulative IPC: 2.76684 (Simulation time: 0 hr 23 min 24 sec) 
Heartbeat CPU 0 instructions: 46000001 cycles: 16628067 heartbeat IPC: 2.74705 cumulative IPC: 2.76641 (Simulation time: 0 hr 23 min 55 sec) 
Heartbeat CPU 0 instructions: 47000002 cycles: 16991880 heartbeat IPC: 2.74867 cumulative IPC: 2.76603 (Simulation time: 0 hr 24 min 25 sec) 
Heartbeat CPU 0 instructions: 48000000 cycles: 17354259 heartbeat IPC: 2.75954 cumulative IPC: 2.76589 (Simulation time: 0 hr 24 min 57 sec) 
Heartbeat CPU 0 instructions: 49000000 cycles: 17716466 heartbeat IPC: 2.76085 cumulative IPC: 2.76579 (Simulation time: 0 hr 25 min 29 sec) 
Heartbeat CPU 0 instructions: 50000000 cycles: 18078275 heartbeat IPC: 2.76389 cumulative IPC: 2.76575 (Simulation time: 0 hr 26 min 3 sec) 

Warmup complete CPU 0 instructions: 50000004 cycles: 18078276 (Simulation time: 0 hr 26 min 3 sec) 

Heartbeat CPU 0 instructions: 51000001 cycles: 21806694 heartbeat IPC: 0.26821 cumulative IPC: 0.268209 (Simulation time: 0 hr 26 min 33 sec) 
Heartbeat CPU 0 instructions: 52000000 cycles: 25780257 heartbeat IPC: 0.251663 cumulative IPC: 0.259673 (Simulation time: 0 hr 27 min 6 sec) 
Heartbeat CPU 0 instructions: 53000000 cycles: 28588838 heartbeat IPC: 0.356052 cumulative IPC: 0.285427 (Simulation time: 0 hr 27 min 38 sec) 
Heartbeat CPU 0 instructions: 54000002 cycles: 31446832 heartbeat IPC: 0.349896 cumulative IPC: 0.299209 (Simulation time: 0 hr 28 min 10 sec) 
Heartbeat CPU 0 instructions: 55000002 cycles: 34260505 heartbeat IPC: 0.355407 cumulative IPC: 0.308981 (Simulation time: 0 hr 28 min 38 sec) 
Heartbeat CPU 0 instructions: 56000000 cycles: 37021780 heartbeat IPC: 0.362151 cumulative IPC: 0.316731 (Simulation time: 0 hr 29 min 6 sec) 
Heartbeat CPU 0 instructions: 57000000 cycles: 39612492 heartbeat IPC: 0.385994 cumulative IPC: 0.325064 (Simulation time: 0 hr 29 min 36 sec) 
Heartbeat CPU 0 instructions: 58000001 cycles: 42180583 heartbeat IPC: 0.389395 cumulative IPC: 0.331918 (Simulation time: 0 hr 30 min 4 sec) 
Heartbeat CPU 0 instructions: 59000000 cycles: 44950348 heartbeat IPC: 0.361041 cumulative IPC: 0.33492 (Simulation time: 0 hr 30 min 33 sec) 
Heartbeat CPU 0 instructions: 60000000 cycles: 47524578 heartbeat IPC: 0.388466 cumulative IPC: 0.339601 (Simulation time: 0 hr 31 min 2 sec) 
Heartbeat CPU 0 instructions: 61000000 cycles: 50017358 heartbeat IPC: 0.401159 cumulative IPC: 0.344406 (Simulation time: 0 hr 31 min 31 sec) 
Heartbeat CPU 0 instructions: 62000003 cycles: 52487000 heartbeat IPC: 0.404918 cumulative IPC: 0.348749 (Simulation time: 0 hr 32 min 2 sec) 
Heartbeat CPU 0 instructions: 63000000 cycles: 55105426 heartbeat IPC: 0.381908 cumulative IPC: 0.351094 (Simulation time: 0 hr 32 min 34 sec) 
Heartbeat CPU 0 instructions: 64000000 cycles: 57630334 heartbeat IPC: 0.396054 cumulative IPC: 0.353964 (Simulation time: 0 hr 33 min 5 sec) 
Heartbeat CPU 0 instructions: 65000000 cycles: 60074797 heartbeat IPC: 0.409088 cumulative IPC: 0.357172 (Simulation time: 0 hr 33 min 35 sec) 
Heartbeat CPU 0 instructions: 66000000 cycles: 62539470 heartbeat IPC: 0.405733 cumulative IPC: 0.359864 (Simulation time: 0 hr 34 min 5 sec) 
Heartbeat CPU 0 instructions: 67000000 cycles: 65012696 heartbeat IPC: 0.40433 cumulative IPC: 0.362207 (Simulation time: 0 hr 34 min 34 sec) 
Heartbeat CPU 0 instructions: 68000000 cycles: 67403724 heartbeat IPC: 0.41823 cumulative IPC: 0.364923 (Simulation time: 0 hr 35 min 3 sec) 
Heartbeat CPU 0 instructions: 69000000 cycles: 69986750 heartbeat IPC: 0.387143 cumulative IPC: 0.366029 (Simulation time: 0 hr 35 min 30 sec) 
Heartbeat CPU 0 instructions: 70000000 cycles: 72522924 heartbeat IPC: 0.394295 cumulative IPC: 0.367345 (Simulation time: 0 hr 36 min 0 sec) 
Heartbeat CPU 0 instructions: 71000001 cycles: 75120110 heartbeat IPC: 0.385033 cumulative IPC: 0.368151 (Simulation time: 0 hr 36 min 31 sec) 
Heartbeat CPU 0 instructions: 72000000 cycles: 77744044 heartbeat IPC: 0.381107 cumulative IPC: 0.368721 (Simulation time: 0 hr 37 min 4 sec) 
Heartbeat CPU 0 instructions: 73000001 cycles: 80246546 heartbeat IPC: 0.3996 cumulative IPC: 0.369964 (Simulation time: 0 hr 37 min 34 sec) 
Heartbeat CPU 0 instructions: 74000002 cycles: 82494564 heartbeat IPC: 0.444837 cumulative IPC: 0.372577 (Simulation time: 0 hr 38 min 3 sec) 
Heartbeat CPU 0 instructions: 75000002 cycles: 84983012 heartbeat IPC: 0.401857 cumulative IPC: 0.373666 (Simulation time: 0 hr 38 min 32 sec) 
Heartbeat CPU 0 instructions: 76000000 cycles: 87475996 heartbeat IPC: 0.401125 cumulative IPC: 0.374652 (Simulation time: 0 hr 39 min 1 sec) 
Heartbeat CPU 0 instructions: 77000000 cycles: 90535899 heartbeat IPC: 0.326808 cumulative IPC: 0.372632 (Simulation time: 0 hr 39 min 31 sec) 
Heartbeat CPU 0 instructions: 78000003 cycles: 93552183 heartbeat IPC: 0.331535 cumulative IPC: 0.370989 (Simulation time: 0 hr 40 min 0 sec) 
Heartbeat CPU 0 instructions: 79000001 cycles: 96000706 heartbeat IPC: 0.408409 cumulative IPC: 0.372165 (Simulation time: 0 hr 40 min 29 sec) 
Heartbeat CPU 0 instructions: 80000000 cycles: 98569956 heartbeat IPC: 0.389218 cumulative IPC: 0.372709 (Simulation time: 0 hr 41 min 0 sec) 
Heartbeat CPU 0 instructions: 81000001 cycles: 101168616 heartbeat IPC: 0.384814 cumulative IPC: 0.373088 (Simulation time: 0 hr 41 min 31 sec) 
Heartbeat CPU 0 instructions: 82000002 cycles: 103711345 heartbeat IPC: 0.393279 cumulative IPC: 0.373687 (Simulation time: 0 hr 42 min 4 sec) 
Heartbeat CPU 0 instructions: 83000002 cycles: 106146320 heartbeat IPC: 0.410682 cumulative IPC: 0.37471 (Simulation time: 0 hr 42 min 35 sec) 
Heartbeat CPU 0 instructions: 84000000 cycles: 108622141 heartbeat IPC: 0.403906 cumulative IPC: 0.375509 (Simulation time: 0 hr 43 min 4 sec) 
Heartbeat CPU 0 instructions: 85000000 cycles: 111122096 heartbeat IPC: 0.400007 cumulative IPC: 0.376167 (Simulation time: 0 hr 43 min 36 sec) 
Heartbeat CPU 0 instructions: 86000001 cycles: 113527380 heartbeat IPC: 0.415752 cumulative IPC: 0.377164 (Simulation time: 0 hr 44 min 5 sec) 
Heartbeat CPU 0 instructions: 87000000 cycles: 115896358 heartbeat IPC: 0.422123 cumulative IPC: 0.378253 (Simulation time: 0 hr 44 min 33 sec) 
Heartbeat CPU 0 instructions: 88000000 cycles: 118414913 heartbeat IPC: 0.397053 cumulative IPC: 0.378725 (Simulation time: 0 hr 45 min 0 sec) 
Heartbeat CPU 0 instructions: 89000000 cycles: 120958347 heartbeat IPC: 0.393169 cumulative IPC: 0.379082 (Simulation time: 0 hr 45 min 31 sec) 
Heartbeat CPU 0 instructions: 90000001 cycles: 123439801 heartbeat IPC: 0.40299 cumulative IPC: 0.379645 (Simulation time: 0 hr 46 min 0 sec) 
Heartbeat CPU 0 instructions: 91000000 cycles: 125878191 heartbeat IPC: 0.410106 cumulative IPC: 0.380334 (Simulation time: 0 hr 46 min 28 sec) 
Heartbeat CPU 0 instructions: 92000000 cycles: 128814189 heartbeat IPC: 0.3406 cumulative IPC: 0.379281 (Simulation time: 0 hr 46 min 57 sec) 
Heartbeat CPU 0 instructions: 93000000 cycles: 131345421 heartbeat IPC: 0.395065 cumulative IPC: 0.379633 (Simulation time: 0 hr 47 min 26 sec) 
Heartbeat CPU 0 instructions: 94000003 cycles: 133881913 heartbeat IPC: 0.394246 cumulative IPC: 0.379954 (Simulation time: 0 hr 47 min 54 sec) 
Heartbeat CPU 0 instructions: 95000000 cycles: 136310226 heartbeat IPC: 0.411807 cumulative IPC: 0.380608 (Simulation time: 0 hr 48 min 21 sec) 
Heartbeat CPU 0 instructions: 96000000 cycles: 138825032 heartbeat IPC: 0.397645 cumulative IPC: 0.380963 (Simulation time: 0 hr 48 min 49 sec) 
Heartbeat CPU 0 instructions: 97000000 cycles: 141253116 heartbeat IPC: 0.411847 cumulative IPC: 0.381571 (Simulation time: 0 hr 49 min 18 sec) 
Heartbeat CPU 0 instructions: 98000000 cycles: 143773061 heartbeat IPC: 0.396834 cumulative IPC: 0.381877 (Simulation time: 0 hr 49 min 51 sec) 
Heartbeat CPU 0 instructions: 99000002 cycles: 146729692 heartbeat IPC: 0.338223 cumulative IPC: 0.380874 (Simulation time: 0 hr 50 min 18 sec) 
Heartbeat CPU 0 instructions: 100000000 cycles: 149479652 heartbeat IPC: 0.363641 cumulative IPC: 0.380513 (Simulation time: 0 hr 50 min 47 sec) 
Heartbeat CPU 0 instructions: 101000000 cycles: 152410047 heartbeat IPC: 0.341251 cumulative IPC: 0.379657 (Simulation time: 0 hr 51 min 17 sec) 
Heartbeat CPU 0 instructions: 102000001 cycles: 155874393 heartbeat IPC: 0.288655 cumulative IPC: 0.377369 (Simulation time: 0 hr 51 min 46 sec) 
Heartbeat CPU 0 instructions: 103000002 cycles: 159348621 heartbeat IPC: 0.287834 cumulative IPC: 0.375167 (Simulation time: 0 hr 52 min 17 sec) 
Heartbeat CPU 0 instructions: 104000000 cycles: 162451875 heartbeat IPC: 0.322242 cumulative IPC: 0.37403 (Simulation time: 0 hr 52 min 46 sec) 
Heartbeat CPU 0 instructions: 105000001 cycles: 165255703 heartbeat IPC: 0.356656 cumulative IPC: 0.373699 (Simulation time: 0 hr 53 min 16 sec) 
Heartbeat CPU 0 instructions: 106000001 cycles: 167866545 heartbeat IPC: 0.383018 cumulative IPC: 0.373861 (Simulation time: 0 hr 53 min 46 sec) 
Heartbeat CPU 0 instructions: 107000002 cycles: 170637100 heartbeat IPC: 0.360939 cumulative IPC: 0.373626 (Simulation time: 0 hr 54 min 15 sec) 
Heartbeat CPU 0 instructions: 108000000 cycles: 173558506 heartbeat IPC: 0.3423 cumulative IPC: 0.373038 (Simulation time: 0 hr 54 min 45 sec) 
Heartbeat CPU 0 instructions: 109000003 cycles: 176612503 heartbeat IPC: 0.327441 cumulative IPC: 0.372159 (Simulation time: 0 hr 55 min 17 sec) 
Heartbeat CPU 0 instructions: 110000003 cycles: 179604481 heartbeat IPC: 0.334227 cumulative IPC: 0.371457 (Simulation time: 0 hr 55 min 53 sec) 
Heartbeat CPU 0 instructions: 111000001 cycles: 182743978 heartbeat IPC: 0.318522 cumulative IPC: 0.370447 (Simulation time: 0 hr 56 min 29 sec) 
Heartbeat CPU 0 instructions: 112000000 cycles: 185925949 heartbeat IPC: 0.31427 cumulative IPC: 0.369383 (Simulation time: 0 hr 57 min 1 sec) 
Heartbeat CPU 0 instructions: 113000001 cycles: 188808023 heartbeat IPC: 0.346973 cumulative IPC: 0.369004 (Simulation time: 0 hr 57 min 33 sec) 
Heartbeat CPU 0 instructions: 114000000 cycles: 191543912 heartbeat IPC: 0.365512 cumulative IPC: 0.368949 (Simulation time: 0 hr 58 min 5 sec) 
Heartbeat CPU 0 instructions: 115000000 cycles: 194284035 heartbeat IPC: 0.364947 cumulative IPC: 0.368887 (Simulation time: 0 hr 58 min 39 sec) 
Heartbeat CPU 0 instructions: 116000000 cycles: 196985513 heartbeat IPC: 0.370168 cumulative IPC: 0.368906 (Simulation time: 0 hr 59 min 11 sec) 
Heartbeat CPU 0 instructions: 117000001 cycles: 199334226 heartbeat IPC: 0.425766 cumulative IPC: 0.369643 (Simulation time: 0 hr 59 min 39 sec) 
Heartbeat CPU 0 instructions: 118000002 cycles: 201620543 heartbeat IPC: 0.437385 cumulative IPC: 0.370487 (Simulation time: 1 hr 0 min 9 sec) 
Heartbeat CPU 0 instructions: 119000002 cycles: 204140344 heartbeat IPC: 0.396857 cumulative IPC: 0.370844 (Simulation time: 1 hr 0 min 42 sec) 
Heartbeat CPU 0 instructions: 120000000 cycles: 206893800 heartbeat IPC: 0.363179 cumulative IPC: 0.370732 (Simulation time: 1 hr 1 min 14 sec) 
Heartbeat CPU 0 instructions: 121000002 cycles: 209599324 heartbeat IPC: 0.369615 cumulative IPC: 0.370716 (Simulation time: 1 hr 1 min 45 sec) 
Heartbeat CPU 0 instructions: 122000001 cycles: 212537914 heartbeat IPC: 0.340299 cumulative IPC: 0.370257 (Simulation time: 1 hr 2 min 15 sec) 
Heartbeat CPU 0 instructions: 123000000 cycles: 215803883 heartbeat IPC: 0.306188 cumulative IPC: 0.369199 (Simulation time: 1 hr 2 min 44 sec) 
Heartbeat CPU 0 instructions: 124000000 cycles: 219345305 heartbeat IPC: 0.282372 cumulative IPC: 0.367671 (Simulation time: 1 hr 3 min 15 sec) 
Heartbeat CPU 0 instructions: 125000002 cycles: 222893489 heartbeat IPC: 0.281835 cumulative IPC: 0.366184 (Simulation time: 1 hr 3 min 43 sec) 
Heartbeat CPU 0 instructions: 126000000 cycles: 226816880 heartbeat IPC: 0.254881 cumulative IPC: 0.364092 (Simulation time: 1 hr 4 min 15 sec) 
Heartbeat CPU 0 instructions: 127000002 cycles: 231008066 heartbeat IPC: 0.238596 cumulative IPC: 0.361622 (Simulation time: 1 hr 4 min 52 sec) 
Heartbeat CPU 0 instructions: 128000000 cycles: 235140451 heartbeat IPC: 0.241991 cumulative IPC: 0.359344 (Simulation time: 1 hr 5 min 24 sec) 
Heartbeat CPU 0 instructions: 129000003 cycles: 239334241 heartbeat IPC: 0.238449 cumulative IPC: 0.357053 (Simulation time: 1 hr 5 min 53 sec) 
Heartbeat CPU 0 instructions: 130000003 cycles: 243455458 heartbeat IPC: 0.242647 cumulative IPC: 0.354961 (Simulation time: 1 hr 6 min 24 sec) 
Heartbeat CPU 0 instructions: 131000000 cycles: 247363794 heartbeat IPC: 0.255863 cumulative IPC: 0.353271 (Simulation time: 1 hr 6 min 54 sec) 
Heartbeat CPU 0 instructions: 132000000 cycles: 251458236 heartbeat IPC: 0.244234 cumulative IPC: 0.351358 (Simulation time: 1 hr 7 min 23 sec) 
Heartbeat CPU 0 instructions: 133000002 cycles: 255443086 heartbeat IPC: 0.250951 cumulative IPC: 0.349673 (Simulation time: 1 hr 7 min 52 sec) 
Heartbeat CPU 0 instructions: 134000000 cycles: 259438974 heartbeat IPC: 0.250257 cumulative IPC: 0.348027 (Simulation time: 1 hr 8 min 20 sec) 
Heartbeat CPU 0 instructions: 135000001 cycles: 263641024 heartbeat IPC: 0.237979 cumulative IPC: 0.346144 (Simulation time: 1 hr 8 min 48 sec) 
Heartbeat CPU 0 instructions: 136000000 cycles: 268121551 heartbeat IPC: 0.223188 cumulative IPC: 0.34394 (Simulation time: 1 hr 9 min 15 sec) 
Heartbeat CPU 0 instructions: 137000000 cycles: 272749733 heartbeat IPC: 0.216068 cumulative IPC: 0.341617 (Simulation time: 1 hr 9 min 42 sec) 
Heartbeat CPU 0 instructions: 138000000 cycles: 276596717 heartbeat IPC: 0.259944 cumulative IPC: 0.340401 (Simulation time: 1 hr 10 min 8 sec) 
Heartbeat CPU 0 instructions: 139000001 cycles: 278881272 heartbeat IPC: 0.437722 cumulative IPC: 0.341254 (Simulation time: 1 hr 10 min 34 sec) 
Heartbeat CPU 0 instructions: 140000000 cycles: 281457252 heartbeat IPC: 0.388201 cumulative IPC: 0.341713 (Simulation time: 1 hr 10 min 59 sec) 
Heartbeat CPU 0 instructions: 141000000 cycles: 283606088 heartbeat IPC: 0.465368 cumulative IPC: 0.342714 (Simulation time: 1 hr 11 min 22 sec) 
Heartbeat CPU 0 instructions: 142000000 cycles: 285967441 heartbeat IPC: 0.423486 cumulative IPC: 0.343426 (Simulation time: 1 hr 11 min 46 sec) 
Heartbeat CPU 0 instructions: 143000000 cycles: 288534073 heartbeat IPC: 0.389616 cumulative IPC: 0.343864 (Simulation time: 1 hr 12 min 15 sec) 
Heartbeat CPU 0 instructions: 144000000 cycles: 291065365 heartbeat IPC: 0.395055 cumulative IPC: 0.344339 (Simulation time: 1 hr 12 min 44 sec) 
Heartbeat CPU 0 instructions: 145000000 cycles: 293476917 heartbeat IPC: 0.414671 cumulative IPC: 0.344954 (Simulation time: 1 hr 13 min 9 sec) 
Heartbeat CPU 0 instructions: 146000001 cycles: 296263537 heartbeat IPC: 0.358858 cumulative IPC: 0.345094 (Simulation time: 1 hr 13 min 35 sec) 
Heartbeat CPU 0 instructions: 147000001 cycles: 298925099 heartbeat IPC: 0.375719 cumulative IPC: 0.345384 (Simulation time: 1 hr 14 min 1 sec) 
Heartbeat CPU 0 instructions: 148000000 cycles: 301605937 heartbeat IPC: 0.373017 cumulative IPC: 0.345645 (Simulation time: 1 hr 14 min 27 sec) 
Heartbeat CPU 0 instructions: 149000002 cycles: 304192335 heartbeat IPC: 0.386639 cumulative IPC: 0.346016 (Simulation time: 1 hr 14 min 55 sec) 
Heartbeat CPU 0 instructions: 150000001 cycles: 307360265 heartbeat IPC: 0.315663 cumulative IPC: 0.345683 (Simulation time: 1 hr 15 min 22 sec) 
Finished CPU 0 instructions: 100000000 cycles: 289282007 cummulative IPC: 0.345683 (Simulation time: 1 hr 15 min 22 sec) 

ChampSim completed all CPUs

Region of Interest Statistics

CPU 0 cummulative IPC: 0.345683 instructions: 100000000 cycles: 289282007
LLC TOTAL     ACCESS:    5177835  HIT:    4881206  MISS:     296629
LLC LOAD      ACCESS:    2110908  HIT:    2001132  MISS:     109776
LLC RFO       ACCESS:      25553  HIT:      25055  MISS:        498
LLC PREFETCH  ACCESS:    2248615  HIT:    2064271  MISS:     184344
LLC WRITEBACK ACCESS:     792759  HIT:     790748  MISS:       2011
OPTgen accesses: 51963
OPTgen hits: 65850
OPTgen hit rate: 126.725


