
*** ChampSim Multicore Out-of-Order Simulator ***

Warmup Instructions: 50000000
Simulation Instructions: 100000000
Configuration: 2
Number of CPUs: 1
LLC sets: 2048
LLC ways: 16
Off-chip DRAM Channels: 1 Width: 64-bit Data Rate: 1600 MT/s

CPU 0 runs /datasets/cs240c-wi22-a00-public/data/Assignment2-gz/calculix_3812B.trace.gz
CPU 0 L1D next line prefetcher
CPU 0 L2C IP-based stride prefetcher
Initialize Hawkeye state
Heartbeat CPU 0 instructions: 1000001 cycles: 478689 heartbeat IPC: 2.08904 cumulative IPC: 2.08904 (Simulation time: 0 hr 0 min 32 sec) 
Heartbeat CPU 0 instructions: 2000002 cycles: 956483 heartbeat IPC: 2.09295 cumulative IPC: 2.091 (Simulation time: 0 hr 1 min 0 sec) 
Heartbeat CPU 0 instructions: 3000002 cycles: 1434999 heartbeat IPC: 2.08979 cumulative IPC: 2.0906 (Simulation time: 0 hr 1 min 31 sec) 
Heartbeat CPU 0 instructions: 4000000 cycles: 1907482 heartbeat IPC: 2.11647 cumulative IPC: 2.09701 (Simulation time: 0 hr 2 min 3 sec) 
Heartbeat CPU 0 instructions: 5000000 cycles: 2356307 heartbeat IPC: 2.22804 cumulative IPC: 2.12196 (Simulation time: 0 hr 2 min 30 sec) 
Heartbeat CPU 0 instructions: 6000003 cycles: 2761688 heartbeat IPC: 2.46682 cumulative IPC: 2.17259 (Simulation time: 0 hr 2 min 52 sec) 
Heartbeat CPU 0 instructions: 7000002 cycles: 3154798 heartbeat IPC: 2.54381 cumulative IPC: 2.21884 (Simulation time: 0 hr 3 min 12 sec) 
Heartbeat CPU 0 instructions: 8000000 cycles: 3547939 heartbeat IPC: 2.54361 cumulative IPC: 2.25483 (Simulation time: 0 hr 3 min 34 sec) 
Heartbeat CPU 0 instructions: 9000000 cycles: 3940928 heartbeat IPC: 2.5446 cumulative IPC: 2.28373 (Simulation time: 0 hr 3 min 56 sec) 
Heartbeat CPU 0 instructions: 10000003 cycles: 4334017 heartbeat IPC: 2.54396 cumulative IPC: 2.30733 (Simulation time: 0 hr 4 min 18 sec) 
Heartbeat CPU 0 instructions: 11000000 cycles: 4726964 heartbeat IPC: 2.54486 cumulative IPC: 2.32708 (Simulation time: 0 hr 4 min 40 sec) 
Heartbeat CPU 0 instructions: 12000000 cycles: 5120150 heartbeat IPC: 2.54333 cumulative IPC: 2.34368 (Simulation time: 0 hr 5 min 3 sec) 
Heartbeat CPU 0 instructions: 13000003 cycles: 5513237 heartbeat IPC: 2.54397 cumulative IPC: 2.35796 (Simulation time: 0 hr 5 min 26 sec) 
Heartbeat CPU 0 instructions: 14000001 cycles: 5942143 heartbeat IPC: 2.33151 cumulative IPC: 2.35605 (Simulation time: 0 hr 5 min 55 sec) 
Heartbeat CPU 0 instructions: 15000000 cycles: 6335382 heartbeat IPC: 2.54298 cumulative IPC: 2.36766 (Simulation time: 0 hr 6 min 19 sec) 
Heartbeat CPU 0 instructions: 16000000 cycles: 6728574 heartbeat IPC: 2.54329 cumulative IPC: 2.37792 (Simulation time: 0 hr 6 min 43 sec) 
Heartbeat CPU 0 instructions: 17000002 cycles: 7121750 heartbeat IPC: 2.5434 cumulative IPC: 2.38705 (Simulation time: 0 hr 7 min 6 sec) 
Heartbeat CPU 0 instructions: 18000001 cycles: 7515077 heartbeat IPC: 2.54241 cumulative IPC: 2.39519 (Simulation time: 0 hr 7 min 28 sec) 
Heartbeat CPU 0 instructions: 19000001 cycles: 7908294 heartbeat IPC: 2.54313 cumulative IPC: 2.40254 (Simulation time: 0 hr 7 min 50 sec) 
Heartbeat CPU 0 instructions: 20000000 cycles: 8301268 heartbeat IPC: 2.5447 cumulative IPC: 2.40927 (Simulation time: 0 hr 8 min 12 sec) 
Heartbeat CPU 0 instructions: 21000000 cycles: 8694479 heartbeat IPC: 2.54316 cumulative IPC: 2.41533 (Simulation time: 0 hr 8 min 36 sec) 
Heartbeat CPU 0 instructions: 22000003 cycles: 9087728 heartbeat IPC: 2.54293 cumulative IPC: 2.42085 (Simulation time: 0 hr 9 min 1 sec) 
Heartbeat CPU 0 instructions: 23000002 cycles: 9480995 heartbeat IPC: 2.5428 cumulative IPC: 2.42591 (Simulation time: 0 hr 9 min 25 sec) 
Heartbeat CPU 0 instructions: 24000000 cycles: 9874253 heartbeat IPC: 2.54285 cumulative IPC: 2.43056 (Simulation time: 0 hr 9 min 48 sec) 
Heartbeat CPU 0 instructions: 25000003 cycles: 10262723 heartbeat IPC: 2.57421 cumulative IPC: 2.436 (Simulation time: 0 hr 10 min 14 sec) 
Heartbeat CPU 0 instructions: 26000003 cycles: 10649332 heartbeat IPC: 2.58659 cumulative IPC: 2.44147 (Simulation time: 0 hr 10 min 38 sec) 
Heartbeat CPU 0 instructions: 27000000 cycles: 11035434 heartbeat IPC: 2.58998 cumulative IPC: 2.44666 (Simulation time: 0 hr 11 min 4 sec) 
Heartbeat CPU 0 instructions: 28000000 cycles: 11422756 heartbeat IPC: 2.58183 cumulative IPC: 2.45125 (Simulation time: 0 hr 11 min 30 sec) 
Heartbeat CPU 0 instructions: 29000003 cycles: 11815304 heartbeat IPC: 2.54747 cumulative IPC: 2.45444 (Simulation time: 0 hr 11 min 54 sec) 
Heartbeat CPU 0 instructions: 30000001 cycles: 12202094 heartbeat IPC: 2.58538 cumulative IPC: 2.45859 (Simulation time: 0 hr 12 min 22 sec) 
Heartbeat CPU 0 instructions: 31000001 cycles: 12567509 heartbeat IPC: 2.73661 cumulative IPC: 2.46668 (Simulation time: 0 hr 12 min 50 sec) 
Heartbeat CPU 0 instructions: 32000000 cycles: 13033830 heartbeat IPC: 2.14444 cumulative IPC: 2.45515 (Simulation time: 0 hr 13 min 23 sec) 
Heartbeat CPU 0 instructions: 33000003 cycles: 13513411 heartbeat IPC: 2.08516 cumulative IPC: 2.44202 (Simulation time: 0 hr 14 min 0 sec) 
Heartbeat CPU 0 instructions: 34000000 cycles: 13993161 heartbeat IPC: 2.08441 cumulative IPC: 2.42976 (Simulation time: 0 hr 14 min 34 sec) 
Heartbeat CPU 0 instructions: 35000000 cycles: 14471852 heartbeat IPC: 2.08903 cumulative IPC: 2.41849 (Simulation time: 0 hr 15 min 4 sec) 
Heartbeat CPU 0 instructions: 36000000 cycles: 14948720 heartbeat IPC: 2.09702 cumulative IPC: 2.40823 (Simulation time: 0 hr 15 min 36 sec) 
Heartbeat CPU 0 instructions: 37000003 cycles: 15427171 heartbeat IPC: 2.09008 cumulative IPC: 2.39837 (Simulation time: 0 hr 16 min 8 sec) 
Heartbeat CPU 0 instructions: 38000003 cycles: 15900976 heartbeat IPC: 2.11057 cumulative IPC: 2.38979 (Simulation time: 0 hr 16 min 42 sec) 
Heartbeat CPU 0 instructions: 39000001 cycles: 16324328 heartbeat IPC: 2.3621 cumulative IPC: 2.38907 (Simulation time: 0 hr 17 min 11 sec) 
Heartbeat CPU 0 instructions: 40000000 cycles: 16759419 heartbeat IPC: 2.29837 cumulative IPC: 2.38672 (Simulation time: 0 hr 17 min 41 sec) 
Heartbeat CPU 0 instructions: 41000002 cycles: 17202702 heartbeat IPC: 2.2559 cumulative IPC: 2.38335 (Simulation time: 0 hr 18 min 9 sec) 
Heartbeat CPU 0 instructions: 42000003 cycles: 17578922 heartbeat IPC: 2.65802 cumulative IPC: 2.38923 (Simulation time: 0 hr 18 min 38 sec) 
Heartbeat CPU 0 instructions: 43000000 cycles: 17974086 heartbeat IPC: 2.53059 cumulative IPC: 2.39233 (Simulation time: 0 hr 19 min 3 sec) 
Heartbeat CPU 0 instructions: 44000000 cycles: 18451873 heartbeat IPC: 2.09298 cumulative IPC: 2.38458 (Simulation time: 0 hr 19 min 34 sec) 
Heartbeat CPU 0 instructions: 45000002 cycles: 18927212 heartbeat IPC: 2.10377 cumulative IPC: 2.37753 (Simulation time: 0 hr 20 min 7 sec) 
Heartbeat CPU 0 instructions: 46000002 cycles: 19405116 heartbeat IPC: 2.09247 cumulative IPC: 2.37051 (Simulation time: 0 hr 20 min 38 sec) 
Heartbeat CPU 0 instructions: 47000002 cycles: 19841085 heartbeat IPC: 2.29374 cumulative IPC: 2.36882 (Simulation time: 0 hr 21 min 3 sec) 
Heartbeat CPU 0 instructions: 48000000 cycles: 20234999 heartbeat IPC: 2.53862 cumulative IPC: 2.37213 (Simulation time: 0 hr 21 min 26 sec) 
Heartbeat CPU 0 instructions: 49000001 cycles: 20628492 heartbeat IPC: 2.54134 cumulative IPC: 2.37536 (Simulation time: 0 hr 21 min 50 sec) 
Heartbeat CPU 0 instructions: 50000000 cycles: 21023588 heartbeat IPC: 2.53103 cumulative IPC: 2.37828 (Simulation time: 0 hr 22 min 11 sec) 

Warmup complete CPU 0 instructions: 50000004 cycles: 21023589 (Simulation time: 0 hr 22 min 11 sec) 

Heartbeat CPU 0 instructions: 51000000 cycles: 21625016 heartbeat IPC: 1.66271 cumulative IPC: 1.66271 (Simulation time: 0 hr 22 min 39 sec) 
Heartbeat CPU 0 instructions: 52000000 cycles: 22210941 heartbeat IPC: 1.7067 cumulative IPC: 1.68442 (Simulation time: 0 hr 23 min 4 sec) 
Heartbeat CPU 0 instructions: 53000000 cycles: 22671122 heartbeat IPC: 2.17306 cumulative IPC: 1.8209 (Simulation time: 0 hr 23 min 31 sec) 
Heartbeat CPU 0 instructions: 54000003 cycles: 23117439 heartbeat IPC: 2.24057 cumulative IPC: 1.91036 (Simulation time: 0 hr 23 min 57 sec) 
Heartbeat CPU 0 instructions: 55000001 cycles: 23556971 heartbeat IPC: 2.27514 cumulative IPC: 1.97365 (Simulation time: 0 hr 24 min 22 sec) 
Heartbeat CPU 0 instructions: 56000000 cycles: 23996831 heartbeat IPC: 2.27345 cumulative IPC: 2.018 (Simulation time: 0 hr 24 min 49 sec) 
Heartbeat CPU 0 instructions: 57000003 cycles: 24437472 heartbeat IPC: 2.26943 cumulative IPC: 2.05045 (Simulation time: 0 hr 25 min 15 sec) 
Heartbeat CPU 0 instructions: 58000002 cycles: 24899401 heartbeat IPC: 2.16483 cumulative IPC: 2.06408 (Simulation time: 0 hr 25 min 41 sec) 
Heartbeat CPU 0 instructions: 59000001 cycles: 25481979 heartbeat IPC: 1.71651 cumulative IPC: 2.01867 (Simulation time: 0 hr 26 min 8 sec) 
Heartbeat CPU 0 instructions: 60000000 cycles: 25918402 heartbeat IPC: 2.29135 cumulative IPC: 2.04298 (Simulation time: 0 hr 26 min 36 sec) 
Heartbeat CPU 0 instructions: 61000003 cycles: 26356085 heartbeat IPC: 2.28477 cumulative IPC: 2.06282 (Simulation time: 0 hr 27 min 3 sec) 
Heartbeat CPU 0 instructions: 62000002 cycles: 26793137 heartbeat IPC: 2.28805 cumulative IPC: 2.07989 (Simulation time: 0 hr 27 min 34 sec) 
Heartbeat CPU 0 instructions: 63000003 cycles: 27231256 heartbeat IPC: 2.28249 cumulative IPC: 2.09418 (Simulation time: 0 hr 28 min 3 sec) 
Heartbeat CPU 0 instructions: 64000000 cycles: 27668763 heartbeat IPC: 2.28567 cumulative IPC: 2.10679 (Simulation time: 0 hr 28 min 27 sec) 
Heartbeat CPU 0 instructions: 65000000 cycles: 28298279 heartbeat IPC: 1.58852 cumulative IPC: 2.06194 (Simulation time: 0 hr 28 min 55 sec) 
Heartbeat CPU 0 instructions: 66000002 cycles: 28858852 heartbeat IPC: 1.78389 cumulative IPC: 2.04205 (Simulation time: 0 hr 29 min 24 sec) 
Heartbeat CPU 0 instructions: 67000002 cycles: 29296548 heartbeat IPC: 2.28469 cumulative IPC: 2.05489 (Simulation time: 0 hr 29 min 50 sec) 
Heartbeat CPU 0 instructions: 68000000 cycles: 29732952 heartbeat IPC: 2.29145 cumulative IPC: 2.06674 (Simulation time: 0 hr 30 min 17 sec) 
Heartbeat CPU 0 instructions: 69000001 cycles: 30284947 heartbeat IPC: 1.81161 cumulative IPC: 2.05153 (Simulation time: 0 hr 30 min 43 sec) 
Heartbeat CPU 0 instructions: 70000000 cycles: 30723476 heartbeat IPC: 2.28035 cumulative IPC: 2.06188 (Simulation time: 0 hr 31 min 5 sec) 
Heartbeat CPU 0 instructions: 71000000 cycles: 31163964 heartbeat IPC: 2.27021 cumulative IPC: 2.07093 (Simulation time: 0 hr 31 min 29 sec) 
Heartbeat CPU 0 instructions: 72000000 cycles: 31645991 heartbeat IPC: 2.07457 cumulative IPC: 2.07109 (Simulation time: 0 hr 31 min 56 sec) 
Heartbeat CPU 0 instructions: 73000001 cycles: 32208899 heartbeat IPC: 1.77649 cumulative IPC: 2.05627 (Simulation time: 0 hr 32 min 22 sec) 
Heartbeat CPU 0 instructions: 74000002 cycles: 32851307 heartbeat IPC: 1.55664 cumulative IPC: 2.02913 (Simulation time: 0 hr 32 min 49 sec) 
Heartbeat CPU 0 instructions: 75000000 cycles: 33398779 heartbeat IPC: 1.82657 cumulative IPC: 2.02017 (Simulation time: 0 hr 33 min 13 sec) 
Heartbeat CPU 0 instructions: 76000000 cycles: 34144040 heartbeat IPC: 1.34181 cumulative IPC: 1.98164 (Simulation time: 0 hr 33 min 44 sec) 
Heartbeat CPU 0 instructions: 77000000 cycles: 34865003 heartbeat IPC: 1.38703 cumulative IPC: 1.95067 (Simulation time: 0 hr 34 min 17 sec) 
Heartbeat CPU 0 instructions: 78000003 cycles: 35583779 heartbeat IPC: 1.39126 cumulative IPC: 1.92305 (Simulation time: 0 hr 34 min 49 sec) 
Heartbeat CPU 0 instructions: 79000000 cycles: 36294680 heartbeat IPC: 1.40666 cumulative IPC: 1.89901 (Simulation time: 0 hr 35 min 21 sec) 
Heartbeat CPU 0 instructions: 80000000 cycles: 36979762 heartbeat IPC: 1.45968 cumulative IPC: 1.88015 (Simulation time: 0 hr 35 min 52 sec) 
Heartbeat CPU 0 instructions: 81000001 cycles: 37644094 heartbeat IPC: 1.50527 cumulative IPC: 1.86517 (Simulation time: 0 hr 36 min 25 sec) 
Heartbeat CPU 0 instructions: 82000002 cycles: 38287052 heartbeat IPC: 1.55531 cumulative IPC: 1.85363 (Simulation time: 0 hr 36 min 55 sec) 
Heartbeat CPU 0 instructions: 83000002 cycles: 39142956 heartbeat IPC: 1.16836 cumulative IPC: 1.82126 (Simulation time: 0 hr 37 min 23 sec) 
Heartbeat CPU 0 instructions: 84000000 cycles: 39732893 heartbeat IPC: 1.69509 cumulative IPC: 1.81728 (Simulation time: 0 hr 37 min 48 sec) 
Heartbeat CPU 0 instructions: 85000000 cycles: 40188252 heartbeat IPC: 2.19607 cumulative IPC: 1.82628 (Simulation time: 0 hr 38 min 14 sec) 
Heartbeat CPU 0 instructions: 86000001 cycles: 40640848 heartbeat IPC: 2.20948 cumulative IPC: 1.83512 (Simulation time: 0 hr 38 min 42 sec) 
Heartbeat CPU 0 instructions: 87000002 cycles: 41096489 heartbeat IPC: 2.19471 cumulative IPC: 1.84328 (Simulation time: 0 hr 39 min 8 sec) 
Heartbeat CPU 0 instructions: 88000000 cycles: 41547556 heartbeat IPC: 2.21696 cumulative IPC: 1.85149 (Simulation time: 0 hr 39 min 38 sec) 
Heartbeat CPU 0 instructions: 89000003 cycles: 41997101 heartbeat IPC: 2.22448 cumulative IPC: 1.85949 (Simulation time: 0 hr 40 min 5 sec) 
Heartbeat CPU 0 instructions: 90000003 cycles: 42447074 heartbeat IPC: 2.22236 cumulative IPC: 1.86711 (Simulation time: 0 hr 40 min 36 sec) 
Heartbeat CPU 0 instructions: 91000003 cycles: 42913824 heartbeat IPC: 2.14247 cumulative IPC: 1.87298 (Simulation time: 0 hr 41 min 4 sec) 
Heartbeat CPU 0 instructions: 92000000 cycles: 43412421 heartbeat IPC: 2.00562 cumulative IPC: 1.87594 (Simulation time: 0 hr 41 min 31 sec) 
Heartbeat CPU 0 instructions: 93000000 cycles: 43858314 heartbeat IPC: 2.24269 cumulative IPC: 1.8831 (Simulation time: 0 hr 42 min 1 sec) 
Heartbeat CPU 0 instructions: 94000003 cycles: 44303454 heartbeat IPC: 2.24649 cumulative IPC: 1.89005 (Simulation time: 0 hr 42 min 29 sec) 
Heartbeat CPU 0 instructions: 95000001 cycles: 44933773 heartbeat IPC: 1.5865 cumulative IPC: 1.88204 (Simulation time: 0 hr 42 min 59 sec) 
Heartbeat CPU 0 instructions: 96000000 cycles: 45537939 heartbeat IPC: 1.65517 cumulative IPC: 1.87645 (Simulation time: 0 hr 43 min 28 sec) 
Heartbeat CPU 0 instructions: 97000000 cycles: 46007567 heartbeat IPC: 2.12934 cumulative IPC: 1.88121 (Simulation time: 0 hr 43 min 55 sec) 
Heartbeat CPU 0 instructions: 98000003 cycles: 46447807 heartbeat IPC: 2.2715 cumulative IPC: 1.88796 (Simulation time: 0 hr 44 min 22 sec) 
Heartbeat CPU 0 instructions: 99000000 cycles: 46887453 heartbeat IPC: 2.27455 cumulative IPC: 1.89454 (Simulation time: 0 hr 44 min 49 sec) 
Heartbeat CPU 0 instructions: 100000000 cycles: 47327718 heartbeat IPC: 2.27136 cumulative IPC: 1.90084 (Simulation time: 0 hr 45 min 17 sec) 
Heartbeat CPU 0 instructions: 101000003 cycles: 47767302 heartbeat IPC: 2.27488 cumulative IPC: 1.90699 (Simulation time: 0 hr 45 min 43 sec) 
Heartbeat CPU 0 instructions: 102000002 cycles: 48315337 heartbeat IPC: 1.8247 cumulative IPC: 1.90534 (Simulation time: 0 hr 46 min 10 sec) 
Heartbeat CPU 0 instructions: 103000000 cycles: 48770286 heartbeat IPC: 2.19804 cumulative IPC: 1.91014 (Simulation time: 0 hr 46 min 36 sec) 
Heartbeat CPU 0 instructions: 104000000 cycles: 49208793 heartbeat IPC: 2.28047 cumulative IPC: 1.9159 (Simulation time: 0 hr 47 min 2 sec) 
Heartbeat CPU 0 instructions: 105000000 cycles: 49646219 heartbeat IPC: 2.2861 cumulative IPC: 1.92156 (Simulation time: 0 hr 47 min 27 sec) 
Heartbeat CPU 0 instructions: 106000003 cycles: 50083305 heartbeat IPC: 2.28789 cumulative IPC: 1.92707 (Simulation time: 0 hr 47 min 53 sec) 
Heartbeat CPU 0 instructions: 107000003 cycles: 50521266 heartbeat IPC: 2.28331 cumulative IPC: 1.93236 (Simulation time: 0 hr 48 min 21 sec) 
Heartbeat CPU 0 instructions: 108000000 cycles: 51034432 heartbeat IPC: 1.94868 cumulative IPC: 1.93263 (Simulation time: 0 hr 48 min 49 sec) 
Heartbeat CPU 0 instructions: 109000002 cycles: 51679445 heartbeat IPC: 1.55036 cumulative IPC: 1.92459 (Simulation time: 0 hr 49 min 18 sec) 
Heartbeat CPU 0 instructions: 110000003 cycles: 52114156 heartbeat IPC: 2.30038 cumulative IPC: 1.92985 (Simulation time: 0 hr 49 min 41 sec) 
Heartbeat CPU 0 instructions: 111000001 cycles: 52549909 heartbeat IPC: 2.29487 cumulative IPC: 1.93489 (Simulation time: 0 hr 50 min 5 sec) 
Heartbeat CPU 0 instructions: 112000000 cycles: 53036412 heartbeat IPC: 2.05548 cumulative IPC: 1.93672 (Simulation time: 0 hr 50 min 31 sec) 
Heartbeat CPU 0 instructions: 113000003 cycles: 53509866 heartbeat IPC: 2.11214 cumulative IPC: 1.93928 (Simulation time: 0 hr 50 min 58 sec) 
Heartbeat CPU 0 instructions: 114000003 cycles: 53947199 heartbeat IPC: 2.28659 cumulative IPC: 1.94389 (Simulation time: 0 hr 51 min 24 sec) 
Heartbeat CPU 0 instructions: 115000002 cycles: 54382771 heartbeat IPC: 2.29583 cumulative IPC: 1.94849 (Simulation time: 0 hr 51 min 51 sec) 
Heartbeat CPU 0 instructions: 116000000 cycles: 54884352 heartbeat IPC: 1.99369 cumulative IPC: 1.94916 (Simulation time: 0 hr 52 min 17 sec) 
Heartbeat CPU 0 instructions: 117000000 cycles: 55439977 heartbeat IPC: 1.79978 cumulative IPC: 1.94675 (Simulation time: 0 hr 52 min 44 sec) 
Heartbeat CPU 0 instructions: 118000001 cycles: 56066855 heartbeat IPC: 1.59521 cumulative IPC: 1.94046 (Simulation time: 0 hr 53 min 10 sec) 
Heartbeat CPU 0 instructions: 119000003 cycles: 56810167 heartbeat IPC: 1.34533 cumulative IPC: 1.9281 (Simulation time: 0 hr 53 min 39 sec) 
Heartbeat CPU 0 instructions: 120000000 cycles: 57527150 heartbeat IPC: 1.39473 cumulative IPC: 1.91762 (Simulation time: 0 hr 54 min 10 sec) 
Heartbeat CPU 0 instructions: 121000001 cycles: 58242135 heartbeat IPC: 1.39863 cumulative IPC: 1.90765 (Simulation time: 0 hr 54 min 40 sec) 
Heartbeat CPU 0 instructions: 122000002 cycles: 58947954 heartbeat IPC: 1.4168 cumulative IPC: 1.89852 (Simulation time: 0 hr 55 min 13 sec) 
Heartbeat CPU 0 instructions: 123000002 cycles: 59630400 heartbeat IPC: 1.46532 cumulative IPC: 1.89086 (Simulation time: 0 hr 55 min 48 sec) 
Heartbeat CPU 0 instructions: 124000000 cycles: 60293903 heartbeat IPC: 1.50715 cumulative IPC: 1.88437 (Simulation time: 0 hr 56 min 23 sec) 
Heartbeat CPU 0 instructions: 125000002 cycles: 60942061 heartbeat IPC: 1.54284 cumulative IPC: 1.87883 (Simulation time: 0 hr 56 min 56 sec) 
Heartbeat CPU 0 instructions: 126000001 cycles: 61872922 heartbeat IPC: 1.07427 cumulative IPC: 1.8605 (Simulation time: 0 hr 57 min 31 sec) 
Heartbeat CPU 0 instructions: 127000003 cycles: 62450591 heartbeat IPC: 1.7311 cumulative IPC: 1.85869 (Simulation time: 0 hr 58 min 4 sec) 
Heartbeat CPU 0 instructions: 128000000 cycles: 62911730 heartbeat IPC: 2.16854 cumulative IPC: 1.8621 (Simulation time: 0 hr 58 min 36 sec) 
Heartbeat CPU 0 instructions: 129000002 cycles: 63364442 heartbeat IPC: 2.20891 cumulative IPC: 1.86581 (Simulation time: 0 hr 59 min 6 sec) 
Heartbeat CPU 0 instructions: 130000001 cycles: 63813069 heartbeat IPC: 2.22902 cumulative IPC: 1.86962 (Simulation time: 0 hr 59 min 35 sec) 
Heartbeat CPU 0 instructions: 131000000 cycles: 64261520 heartbeat IPC: 2.2299 cumulative IPC: 1.87336 (Simulation time: 1 hr 0 min 2 sec) 
Heartbeat CPU 0 instructions: 132000000 cycles: 64715113 heartbeat IPC: 2.20462 cumulative IPC: 1.87679 (Simulation time: 1 hr 0 min 33 sec) 
Heartbeat CPU 0 instructions: 133000000 cycles: 65170648 heartbeat IPC: 2.19522 cumulative IPC: 1.88008 (Simulation time: 1 hr 1 min 0 sec) 
Heartbeat CPU 0 instructions: 134000000 cycles: 65704507 heartbeat IPC: 1.87315 cumulative IPC: 1.88 (Simulation time: 1 hr 1 min 30 sec) 
Heartbeat CPU 0 instructions: 135000003 cycles: 66214408 heartbeat IPC: 1.96117 cumulative IPC: 1.88091 (Simulation time: 1 hr 1 min 58 sec) 
Heartbeat CPU 0 instructions: 136000000 cycles: 66668822 heartbeat IPC: 2.20063 cumulative IPC: 1.8841 (Simulation time: 1 hr 2 min 25 sec) 
Heartbeat CPU 0 instructions: 137000002 cycles: 67120516 heartbeat IPC: 2.21389 cumulative IPC: 1.88733 (Simulation time: 1 hr 2 min 57 sec) 
Heartbeat CPU 0 instructions: 138000002 cycles: 67573494 heartbeat IPC: 2.20761 cumulative IPC: 1.89044 (Simulation time: 1 hr 3 min 27 sec) 
Heartbeat CPU 0 instructions: 139000000 cycles: 68030005 heartbeat IPC: 2.19052 cumulative IPC: 1.89336 (Simulation time: 1 hr 3 min 55 sec) 
Heartbeat CPU 0 instructions: 140000000 cycles: 68481700 heartbeat IPC: 2.21388 cumulative IPC: 1.89641 (Simulation time: 1 hr 4 min 23 sec) 
Heartbeat CPU 0 instructions: 141000000 cycles: 68934644 heartbeat IPC: 2.20778 cumulative IPC: 1.89935 (Simulation time: 1 hr 4 min 51 sec) 
Heartbeat CPU 0 instructions: 142000003 cycles: 69447572 heartbeat IPC: 1.9496 cumulative IPC: 1.89989 (Simulation time: 1 hr 5 min 19 sec) 
Heartbeat CPU 0 instructions: 143000002 cycles: 69891236 heartbeat IPC: 2.25396 cumulative IPC: 1.9031 (Simulation time: 1 hr 5 min 43 sec) 
Heartbeat CPU 0 instructions: 144000000 cycles: 70342456 heartbeat IPC: 2.21621 cumulative IPC: 1.90596 (Simulation time: 1 hr 6 min 10 sec) 
Heartbeat CPU 0 instructions: 145000001 cycles: 71000992 heartbeat IPC: 1.51852 cumulative IPC: 1.90086 (Simulation time: 1 hr 6 min 42 sec) 
Heartbeat CPU 0 instructions: 146000003 cycles: 71611291 heartbeat IPC: 1.63854 cumulative IPC: 1.89769 (Simulation time: 1 hr 7 min 12 sec) 
Heartbeat CPU 0 instructions: 147000002 cycles: 72062682 heartbeat IPC: 2.21537 cumulative IPC: 1.9005 (Simulation time: 1 hr 7 min 38 sec) 
Heartbeat CPU 0 instructions: 148000000 cycles: 72500438 heartbeat IPC: 2.28437 cumulative IPC: 1.90377 (Simulation time: 1 hr 8 min 2 sec) 
Heartbeat CPU 0 instructions: 149000002 cycles: 72939985 heartbeat IPC: 2.27507 cumulative IPC: 1.90691 (Simulation time: 1 hr 8 min 29 sec) 
Heartbeat CPU 0 instructions: 150000003 cycles: 73378995 heartbeat IPC: 2.27785 cumulative IPC: 1.91002 (Simulation time: 1 hr 8 min 55 sec) 
Finished CPU 0 instructions: 100000003 cycles: 52355407 cummulative IPC: 1.91002 (Simulation time: 1 hr 8 min 55 sec) 

ChampSim completed all CPUs

Region of Interest Statistics

CPU 0 cummulative IPC: 1.91002 instructions: 100000003 cycles: 52355407
LLC TOTAL     ACCESS:    1256070  HIT:    1163967  MISS:      92103
LLC LOAD      ACCESS:     149569  HIT:     140118  MISS:       9451
LLC RFO       ACCESS:      37522  HIT:      12808  MISS:      24714
LLC PREFETCH  ACCESS:     776634  HIT:     725326  MISS:      51308
LLC WRITEBACK ACCESS:     292345  HIT:     285715  MISS:       6630
OPTgen accesses: 4734
OPTgen hits: 12840
OPTgen hit rate: 271.229


