
*** ChampSim Multicore Out-of-Order Simulator ***

Warmup Instructions: 50000000
Simulation Instructions: 100000000
Configuration: 2
Number of CPUs: 1
LLC sets: 2048
LLC ways: 16
Off-chip DRAM Channels: 1 Width: 64-bit Data Rate: 1600 MT/s

CPU 0 runs /datasets/cs240c-wi22-a00-public/data/Assignment2-gz/zeusmp_300B.trace.gz
CPU 0 L1D next line prefetcher
CPU 0 L2C IP-based stride prefetcher
Initialize Hawkeye state
Heartbeat CPU 0 instructions: 1000003 cycles: 509580 heartbeat IPC: 1.96241 cumulative IPC: 1.96241 (Simulation time: 0 hr 0 min 32 sec) 
Heartbeat CPU 0 instructions: 2000003 cycles: 1062148 heartbeat IPC: 1.80973 cumulative IPC: 1.88298 (Simulation time: 0 hr 0 min 59 sec) 
Heartbeat CPU 0 instructions: 3000002 cycles: 1606419 heartbeat IPC: 1.83732 cumulative IPC: 1.86751 (Simulation time: 0 hr 1 min 28 sec) 
Heartbeat CPU 0 instructions: 4000000 cycles: 2093208 heartbeat IPC: 2.05427 cumulative IPC: 1.91094 (Simulation time: 0 hr 1 min 56 sec) 
Heartbeat CPU 0 instructions: 5000001 cycles: 2575890 heartbeat IPC: 2.07176 cumulative IPC: 1.94108 (Simulation time: 0 hr 2 min 24 sec) 
Heartbeat CPU 0 instructions: 6000000 cycles: 3062578 heartbeat IPC: 2.0547 cumulative IPC: 1.95913 (Simulation time: 0 hr 2 min 52 sec) 
Heartbeat CPU 0 instructions: 7000001 cycles: 3590722 heartbeat IPC: 1.89342 cumulative IPC: 1.94947 (Simulation time: 0 hr 3 min 24 sec) 
Heartbeat CPU 0 instructions: 8000000 cycles: 4144748 heartbeat IPC: 1.80497 cumulative IPC: 1.93015 (Simulation time: 0 hr 3 min 52 sec) 
Heartbeat CPU 0 instructions: 9000000 cycles: 4672634 heartbeat IPC: 1.89435 cumulative IPC: 1.92611 (Simulation time: 0 hr 4 min 19 sec) 
Heartbeat CPU 0 instructions: 10000002 cycles: 5158923 heartbeat IPC: 2.05639 cumulative IPC: 1.93839 (Simulation time: 0 hr 4 min 48 sec) 
Heartbeat CPU 0 instructions: 11000003 cycles: 5643379 heartbeat IPC: 2.06417 cumulative IPC: 1.94919 (Simulation time: 0 hr 5 min 18 sec) 
Heartbeat CPU 0 instructions: 12000000 cycles: 6129754 heartbeat IPC: 2.05602 cumulative IPC: 1.95766 (Simulation time: 0 hr 5 min 46 sec) 
Heartbeat CPU 0 instructions: 13000001 cycles: 6673156 heartbeat IPC: 1.84026 cumulative IPC: 1.9481 (Simulation time: 0 hr 6 min 13 sec) 
Heartbeat CPU 0 instructions: 14000002 cycles: 7228998 heartbeat IPC: 1.79907 cumulative IPC: 1.93664 (Simulation time: 0 hr 6 min 39 sec) 
Heartbeat CPU 0 instructions: 15000002 cycles: 7738479 heartbeat IPC: 1.96278 cumulative IPC: 1.93837 (Simulation time: 0 hr 7 min 6 sec) 
Heartbeat CPU 0 instructions: 16000000 cycles: 8224652 heartbeat IPC: 2.05688 cumulative IPC: 1.94537 (Simulation time: 0 hr 7 min 34 sec) 
Heartbeat CPU 0 instructions: 17000003 cycles: 8709904 heartbeat IPC: 2.06079 cumulative IPC: 1.9518 (Simulation time: 0 hr 8 min 2 sec) 
Heartbeat CPU 0 instructions: 18000003 cycles: 9197018 heartbeat IPC: 2.05291 cumulative IPC: 1.95716 (Simulation time: 0 hr 8 min 29 sec) 
Heartbeat CPU 0 instructions: 19000003 cycles: 9756258 heartbeat IPC: 1.78814 cumulative IPC: 1.94747 (Simulation time: 0 hr 8 min 55 sec) 
Heartbeat CPU 0 instructions: 20000000 cycles: 10314651 heartbeat IPC: 1.79085 cumulative IPC: 1.93899 (Simulation time: 0 hr 9 min 21 sec) 
Heartbeat CPU 0 instructions: 21000003 cycles: 10806449 heartbeat IPC: 2.03336 cumulative IPC: 1.94328 (Simulation time: 0 hr 9 min 53 sec) 
Heartbeat CPU 0 instructions: 22000002 cycles: 11292587 heartbeat IPC: 2.05703 cumulative IPC: 1.94818 (Simulation time: 0 hr 10 min 21 sec) 
Heartbeat CPU 0 instructions: 23000001 cycles: 11778514 heartbeat IPC: 2.05792 cumulative IPC: 1.95271 (Simulation time: 0 hr 10 min 49 sec) 
Heartbeat CPU 0 instructions: 24000000 cycles: 12282988 heartbeat IPC: 1.98226 cumulative IPC: 1.95392 (Simulation time: 0 hr 11 min 17 sec) 
Heartbeat CPU 0 instructions: 25000000 cycles: 12841465 heartbeat IPC: 1.79058 cumulative IPC: 1.94682 (Simulation time: 0 hr 11 min 45 sec) 
Heartbeat CPU 0 instructions: 26000000 cycles: 13389590 heartbeat IPC: 1.8244 cumulative IPC: 1.94181 (Simulation time: 0 hr 12 min 15 sec) 
Heartbeat CPU 0 instructions: 27000002 cycles: 13876423 heartbeat IPC: 2.0541 cumulative IPC: 1.94575 (Simulation time: 0 hr 12 min 43 sec) 
Heartbeat CPU 0 instructions: 28000000 cycles: 14362453 heartbeat IPC: 2.05748 cumulative IPC: 1.94953 (Simulation time: 0 hr 13 min 13 sec) 
Heartbeat CPU 0 instructions: 29000003 cycles: 14849317 heartbeat IPC: 2.05397 cumulative IPC: 1.95295 (Simulation time: 0 hr 13 min 42 sec) 
Heartbeat CPU 0 instructions: 30000001 cycles: 15371486 heartbeat IPC: 1.91508 cumulative IPC: 1.95167 (Simulation time: 0 hr 14 min 12 sec) 
Heartbeat CPU 0 instructions: 31000000 cycles: 15930986 heartbeat IPC: 1.78731 cumulative IPC: 1.94589 (Simulation time: 0 hr 14 min 40 sec) 
Heartbeat CPU 0 instructions: 32000000 cycles: 16464224 heartbeat IPC: 1.87534 cumulative IPC: 1.94361 (Simulation time: 0 hr 15 min 7 sec) 
Heartbeat CPU 0 instructions: 33000000 cycles: 16950395 heartbeat IPC: 2.05689 cumulative IPC: 1.94686 (Simulation time: 0 hr 15 min 35 sec) 
Heartbeat CPU 0 instructions: 34000000 cycles: 17436971 heartbeat IPC: 2.05518 cumulative IPC: 1.94988 (Simulation time: 0 hr 16 min 3 sec) 
Heartbeat CPU 0 instructions: 35000000 cycles: 17923453 heartbeat IPC: 2.05557 cumulative IPC: 1.95275 (Simulation time: 0 hr 16 min 32 sec) 
Heartbeat CPU 0 instructions: 36000000 cycles: 18462464 heartbeat IPC: 1.85525 cumulative IPC: 1.9499 (Simulation time: 0 hr 17 min 1 sec) 
Heartbeat CPU 0 instructions: 37000003 cycles: 19022909 heartbeat IPC: 1.7843 cumulative IPC: 1.94502 (Simulation time: 0 hr 17 min 26 sec) 
Heartbeat CPU 0 instructions: 38000000 cycles: 19539016 heartbeat IPC: 1.93758 cumulative IPC: 1.94483 (Simulation time: 0 hr 17 min 55 sec) 
Heartbeat CPU 0 instructions: 39000003 cycles: 20025891 heartbeat IPC: 2.05392 cumulative IPC: 1.94748 (Simulation time: 0 hr 18 min 27 sec) 
Heartbeat CPU 0 instructions: 40000000 cycles: 20512486 heartbeat IPC: 2.05509 cumulative IPC: 1.95003 (Simulation time: 0 hr 18 min 54 sec) 
Heartbeat CPU 0 instructions: 41000000 cycles: 20998730 heartbeat IPC: 2.05658 cumulative IPC: 1.9525 (Simulation time: 0 hr 19 min 18 sec) 
Heartbeat CPU 0 instructions: 42000002 cycles: 21555818 heartbeat IPC: 1.79505 cumulative IPC: 1.94843 (Simulation time: 0 hr 19 min 46 sec) 
Heartbeat CPU 0 instructions: 43000002 cycles: 22116846 heartbeat IPC: 1.78244 cumulative IPC: 1.94422 (Simulation time: 0 hr 20 min 13 sec) 
Heartbeat CPU 0 instructions: 44000000 cycles: 22615131 heartbeat IPC: 2.00688 cumulative IPC: 1.9456 (Simulation time: 0 hr 20 min 41 sec) 
Heartbeat CPU 0 instructions: 45000003 cycles: 23101737 heartbeat IPC: 2.05506 cumulative IPC: 1.94791 (Simulation time: 0 hr 21 min 8 sec) 
Heartbeat CPU 0 instructions: 46000001 cycles: 23588149 heartbeat IPC: 2.05587 cumulative IPC: 1.95013 (Simulation time: 0 hr 21 min 35 sec) 
Heartbeat CPU 0 instructions: 47000000 cycles: 24086525 heartbeat IPC: 2.00652 cumulative IPC: 1.9513 (Simulation time: 0 hr 22 min 2 sec) 
Heartbeat CPU 0 instructions: 48000000 cycles: 24649791 heartbeat IPC: 1.77536 cumulative IPC: 1.94728 (Simulation time: 0 hr 22 min 28 sec) 
Heartbeat CPU 0 instructions: 49000002 cycles: 25206048 heartbeat IPC: 1.79773 cumulative IPC: 1.94398 (Simulation time: 0 hr 22 min 55 sec) 
Heartbeat CPU 0 instructions: 50000000 cycles: 25692612 heartbeat IPC: 2.05522 cumulative IPC: 1.94608 (Simulation time: 0 hr 23 min 23 sec) 

Warmup complete CPU 0 instructions: 50000004 cycles: 25692613 (Simulation time: 0 hr 23 min 23 sec) 

Heartbeat CPU 0 instructions: 51000002 cycles: 26376458 heartbeat IPC: 1.46232 cumulative IPC: 1.46232 (Simulation time: 0 hr 23 min 53 sec) 
Heartbeat CPU 0 instructions: 52000000 cycles: 27064170 heartbeat IPC: 1.45409 cumulative IPC: 1.45819 (Simulation time: 0 hr 24 min 23 sec) 
Heartbeat CPU 0 instructions: 53000000 cycles: 27813733 heartbeat IPC: 1.33411 cumulative IPC: 1.41435 (Simulation time: 0 hr 24 min 54 sec) 
Heartbeat CPU 0 instructions: 54000002 cycles: 28625651 heartbeat IPC: 1.23165 cumulative IPC: 1.36377 (Simulation time: 0 hr 25 min 28 sec) 
Heartbeat CPU 0 instructions: 55000001 cycles: 29402714 heartbeat IPC: 1.2869 cumulative IPC: 1.34767 (Simulation time: 0 hr 25 min 58 sec) 
Heartbeat CPU 0 instructions: 56000000 cycles: 30086067 heartbeat IPC: 1.46337 cumulative IPC: 1.36567 (Simulation time: 0 hr 26 min 27 sec) 
Heartbeat CPU 0 instructions: 57000000 cycles: 30769420 heartbeat IPC: 1.46337 cumulative IPC: 1.37882 (Simulation time: 0 hr 26 min 56 sec) 
Heartbeat CPU 0 instructions: 58000000 cycles: 31456397 heartbeat IPC: 1.45565 cumulative IPC: 1.38798 (Simulation time: 0 hr 27 min 30 sec) 
Heartbeat CPU 0 instructions: 59000003 cycles: 32234794 heartbeat IPC: 1.2847 cumulative IPC: 1.37569 (Simulation time: 0 hr 28 min 1 sec) 
Heartbeat CPU 0 instructions: 60000000 cycles: 33047704 heartbeat IPC: 1.23014 cumulative IPC: 1.3596 (Simulation time: 0 hr 28 min 31 sec) 
Heartbeat CPU 0 instructions: 61000000 cycles: 33795154 heartbeat IPC: 1.33788 cumulative IPC: 1.3576 (Simulation time: 0 hr 29 min 1 sec) 
Heartbeat CPU 0 instructions: 62000002 cycles: 34476951 heartbeat IPC: 1.46672 cumulative IPC: 1.36607 (Simulation time: 0 hr 29 min 32 sec) 
Heartbeat CPU 0 instructions: 63000003 cycles: 35163789 heartbeat IPC: 1.45595 cumulative IPC: 1.37259 (Simulation time: 0 hr 30 min 1 sec) 
Heartbeat CPU 0 instructions: 64000000 cycles: 35846674 heartbeat IPC: 1.46437 cumulative IPC: 1.37876 (Simulation time: 0 hr 30 min 30 sec) 
Heartbeat CPU 0 instructions: 65000003 cycles: 36658662 heartbeat IPC: 1.23155 cumulative IPC: 1.36786 (Simulation time: 0 hr 31 min 1 sec) 
Heartbeat CPU 0 instructions: 66000003 cycles: 37471999 heartbeat IPC: 1.2295 cumulative IPC: 1.3583 (Simulation time: 0 hr 31 min 32 sec) 
Heartbeat CPU 0 instructions: 67000002 cycles: 38188127 heartbeat IPC: 1.3964 cumulative IPC: 1.36049 (Simulation time: 0 hr 32 min 5 sec) 
Heartbeat CPU 0 instructions: 68000000 cycles: 38868116 heartbeat IPC: 1.47061 cumulative IPC: 1.36617 (Simulation time: 0 hr 32 min 33 sec) 
Heartbeat CPU 0 instructions: 69000000 cycles: 39550311 heartbeat IPC: 1.46586 cumulative IPC: 1.37108 (Simulation time: 0 hr 33 min 4 sec) 
Heartbeat CPU 0 instructions: 70000001 cycles: 40259519 heartbeat IPC: 1.41003 cumulative IPC: 1.37297 (Simulation time: 0 hr 33 min 35 sec) 
Heartbeat CPU 0 instructions: 71000001 cycles: 41068719 heartbeat IPC: 1.23579 cumulative IPC: 1.36576 (Simulation time: 0 hr 34 min 5 sec) 
Heartbeat CPU 0 instructions: 72000000 cycles: 41880464 heartbeat IPC: 1.23191 cumulative IPC: 1.35904 (Simulation time: 0 hr 34 min 34 sec) 
Heartbeat CPU 0 instructions: 73000003 cycles: 42567805 heartbeat IPC: 1.45489 cumulative IPC: 1.36295 (Simulation time: 0 hr 35 min 3 sec) 
Heartbeat CPU 0 instructions: 74000001 cycles: 43250862 heartbeat IPC: 1.464 cumulative IPC: 1.36688 (Simulation time: 0 hr 35 min 32 sec) 
Heartbeat CPU 0 instructions: 75000003 cycles: 43932428 heartbeat IPC: 1.46721 cumulative IPC: 1.37063 (Simulation time: 0 hr 36 min 1 sec) 
Heartbeat CPU 0 instructions: 76000000 cycles: 44670756 heartbeat IPC: 1.35441 cumulative IPC: 1.37 (Simulation time: 0 hr 36 min 35 sec) 
Heartbeat CPU 0 instructions: 77000001 cycles: 45483516 heartbeat IPC: 1.23038 cumulative IPC: 1.36426 (Simulation time: 0 hr 37 min 4 sec) 
Heartbeat CPU 0 instructions: 78000003 cycles: 46268346 heartbeat IPC: 1.27416 cumulative IPC: 1.36083 (Simulation time: 0 hr 37 min 34 sec) 
Heartbeat CPU 0 instructions: 79000001 cycles: 46948249 heartbeat IPC: 1.4708 cumulative IPC: 1.36434 (Simulation time: 0 hr 38 min 4 sec) 
Heartbeat CPU 0 instructions: 80000000 cycles: 47629957 heartbeat IPC: 1.4669 cumulative IPC: 1.36753 (Simulation time: 0 hr 38 min 35 sec) 
Heartbeat CPU 0 instructions: 81000000 cycles: 48311746 heartbeat IPC: 1.46673 cumulative IPC: 1.37052 (Simulation time: 0 hr 39 min 5 sec) 
Heartbeat CPU 0 instructions: 82000002 cycles: 49078288 heartbeat IPC: 1.30456 cumulative IPC: 1.36836 (Simulation time: 0 hr 39 min 35 sec) 
Heartbeat CPU 0 instructions: 83000001 cycles: 49889672 heartbeat IPC: 1.23246 cumulative IPC: 1.3638 (Simulation time: 0 hr 40 min 6 sec) 
Heartbeat CPU 0 instructions: 84000000 cycles: 50644161 heartbeat IPC: 1.3254 cumulative IPC: 1.36264 (Simulation time: 0 hr 40 min 36 sec) 
Heartbeat CPU 0 instructions: 85000001 cycles: 51324104 heartbeat IPC: 1.47071 cumulative IPC: 1.36551 (Simulation time: 0 hr 41 min 4 sec) 
Heartbeat CPU 0 instructions: 86000002 cycles: 52006457 heartbeat IPC: 1.46552 cumulative IPC: 1.3681 (Simulation time: 0 hr 41 min 33 sec) 
Heartbeat CPU 0 instructions: 87000000 cycles: 52689833 heartbeat IPC: 1.46332 cumulative IPC: 1.37051 (Simulation time: 0 hr 42 min 3 sec) 
Heartbeat CPU 0 instructions: 88000000 cycles: 53486113 heartbeat IPC: 1.25584 cumulative IPC: 1.36723 (Simulation time: 0 hr 42 min 33 sec) 
Heartbeat CPU 0 instructions: 89000000 cycles: 54298952 heartbeat IPC: 1.23026 cumulative IPC: 1.36333 (Simulation time: 0 hr 43 min 7 sec) 
Heartbeat CPU 0 instructions: 90000002 cycles: 55026317 heartbeat IPC: 1.37483 cumulative IPC: 1.36362 (Simulation time: 0 hr 43 min 37 sec) 
Heartbeat CPU 0 instructions: 91000002 cycles: 55706961 heartbeat IPC: 1.4692 cumulative IPC: 1.36601 (Simulation time: 0 hr 44 min 7 sec) 
Heartbeat CPU 0 instructions: 92000000 cycles: 56391190 heartbeat IPC: 1.4615 cumulative IPC: 1.36814 (Simulation time: 0 hr 44 min 36 sec) 
Heartbeat CPU 0 instructions: 93000001 cycles: 57076413 heartbeat IPC: 1.45938 cumulative IPC: 1.37013 (Simulation time: 0 hr 45 min 5 sec) 
Heartbeat CPU 0 instructions: 94000000 cycles: 57901978 heartbeat IPC: 1.21129 cumulative IPC: 1.36606 (Simulation time: 0 hr 45 min 34 sec) 
Heartbeat CPU 0 instructions: 95000003 cycles: 58713842 heartbeat IPC: 1.23174 cumulative IPC: 1.36276 (Simulation time: 0 hr 46 min 5 sec) 
Heartbeat CPU 0 instructions: 96000000 cycles: 59411697 heartbeat IPC: 1.43296 cumulative IPC: 1.36421 (Simulation time: 0 hr 46 min 36 sec) 
Heartbeat CPU 0 instructions: 97000001 cycles: 60093385 heartbeat IPC: 1.46695 cumulative IPC: 1.36625 (Simulation time: 0 hr 47 min 9 sec) 
Heartbeat CPU 0 instructions: 98000000 cycles: 60779000 heartbeat IPC: 1.45854 cumulative IPC: 1.36805 (Simulation time: 0 hr 47 min 38 sec) 
Heartbeat CPU 0 instructions: 99000001 cycles: 61504696 heartbeat IPC: 1.37799 cumulative IPC: 1.36825 (Simulation time: 0 hr 48 min 7 sec) 
Heartbeat CPU 0 instructions: 100000000 cycles: 62317654 heartbeat IPC: 1.23007 cumulative IPC: 1.36519 (Simulation time: 0 hr 48 min 35 sec) 
Heartbeat CPU 0 instructions: 101000001 cycles: 63118774 heartbeat IPC: 1.24825 cumulative IPC: 1.36268 (Simulation time: 0 hr 49 min 8 sec) 
Heartbeat CPU 0 instructions: 102000003 cycles: 63798364 heartbeat IPC: 1.47148 cumulative IPC: 1.36462 (Simulation time: 0 hr 49 min 37 sec) 
Heartbeat CPU 0 instructions: 103000003 cycles: 64478400 heartbeat IPC: 1.47051 cumulative IPC: 1.36648 (Simulation time: 0 hr 50 min 9 sec) 
Heartbeat CPU 0 instructions: 104000000 cycles: 65160856 heartbeat IPC: 1.46529 cumulative IPC: 1.36819 (Simulation time: 0 hr 50 min 39 sec) 
Heartbeat CPU 0 instructions: 105000001 cycles: 65920255 heartbeat IPC: 1.31683 cumulative IPC: 1.36722 (Simulation time: 0 hr 51 min 8 sec) 
Heartbeat CPU 0 instructions: 106000002 cycles: 66728032 heartbeat IPC: 1.23797 cumulative IPC: 1.36467 (Simulation time: 0 hr 51 min 43 sec) 
Heartbeat CPU 0 instructions: 107000003 cycles: 67497147 heartbeat IPC: 1.3002 cumulative IPC: 1.36349 (Simulation time: 0 hr 52 min 15 sec) 
Heartbeat CPU 0 instructions: 108000000 cycles: 68177345 heartbeat IPC: 1.47016 cumulative IPC: 1.3652 (Simulation time: 0 hr 52 min 48 sec) 
Heartbeat CPU 0 instructions: 109000001 cycles: 68859358 heartbeat IPC: 1.46625 cumulative IPC: 1.36679 (Simulation time: 0 hr 53 min 19 sec) 
Heartbeat CPU 0 instructions: 110000000 cycles: 69540833 heartbeat IPC: 1.4674 cumulative IPC: 1.36836 (Simulation time: 0 hr 53 min 53 sec) 
Heartbeat CPU 0 instructions: 111000002 cycles: 70332140 heartbeat IPC: 1.26373 cumulative IPC: 1.3665 (Simulation time: 0 hr 54 min 24 sec) 
Heartbeat CPU 0 instructions: 112000000 cycles: 71144629 heartbeat IPC: 1.23078 cumulative IPC: 1.36408 (Simulation time: 0 hr 54 min 57 sec) 
Heartbeat CPU 0 instructions: 113000001 cycles: 71880658 heartbeat IPC: 1.35864 cumulative IPC: 1.36399 (Simulation time: 0 hr 55 min 36 sec) 
Heartbeat CPU 0 instructions: 114000002 cycles: 72560337 heartbeat IPC: 1.47128 cumulative IPC: 1.36555 (Simulation time: 0 hr 56 min 13 sec) 
Heartbeat CPU 0 instructions: 115000003 cycles: 73242394 heartbeat IPC: 1.46615 cumulative IPC: 1.36699 (Simulation time: 0 hr 56 min 44 sec) 
Heartbeat CPU 0 instructions: 116000000 cycles: 73926358 heartbeat IPC: 1.46206 cumulative IPC: 1.36834 (Simulation time: 0 hr 57 min 14 sec) 
Heartbeat CPU 0 instructions: 117000000 cycles: 74746201 heartbeat IPC: 1.21975 cumulative IPC: 1.36585 (Simulation time: 0 hr 57 min 45 sec) 
Heartbeat CPU 0 instructions: 118000002 cycles: 75559350 heartbeat IPC: 1.22979 cumulative IPC: 1.36363 (Simulation time: 0 hr 58 min 22 sec) 
Heartbeat CPU 0 instructions: 119000000 cycles: 76266856 heartbeat IPC: 1.41341 cumulative IPC: 1.36433 (Simulation time: 0 hr 58 min 55 sec) 
Heartbeat CPU 0 instructions: 120000000 cycles: 76948293 heartbeat IPC: 1.46749 cumulative IPC: 1.3657 (Simulation time: 0 hr 59 min 33 sec) 
Heartbeat CPU 0 instructions: 121000000 cycles: 77631698 heartbeat IPC: 1.46326 cumulative IPC: 1.36699 (Simulation time: 1 hr 0 min 5 sec) 
Heartbeat CPU 0 instructions: 122000003 cycles: 78344017 heartbeat IPC: 1.40387 cumulative IPC: 1.36748 (Simulation time: 1 hr 0 min 37 sec) 
Heartbeat CPU 0 instructions: 123000000 cycles: 79156183 heartbeat IPC: 1.23127 cumulative IPC: 1.36542 (Simulation time: 1 hr 1 min 7 sec) 
Heartbeat CPU 0 instructions: 124000000 cycles: 79965352 heartbeat IPC: 1.23584 cumulative IPC: 1.36348 (Simulation time: 1 hr 1 min 41 sec) 
Heartbeat CPU 0 instructions: 125000001 cycles: 80644920 heartbeat IPC: 1.47152 cumulative IPC: 1.36482 (Simulation time: 1 hr 2 min 17 sec) 
Heartbeat CPU 0 instructions: 126000000 cycles: 81324005 heartbeat IPC: 1.47257 cumulative IPC: 1.36614 (Simulation time: 1 hr 2 min 48 sec) 
Heartbeat CPU 0 instructions: 127000003 cycles: 82007162 heartbeat IPC: 1.4638 cumulative IPC: 1.36732 (Simulation time: 1 hr 3 min 23 sec) 
Heartbeat CPU 0 instructions: 128000000 cycles: 82749166 heartbeat IPC: 1.3477 cumulative IPC: 1.36706 (Simulation time: 1 hr 3 min 55 sec) 
Heartbeat CPU 0 instructions: 129000002 cycles: 83562587 heartbeat IPC: 1.22938 cumulative IPC: 1.36513 (Simulation time: 1 hr 4 min 26 sec) 
Heartbeat CPU 0 instructions: 130000002 cycles: 84343922 heartbeat IPC: 1.27986 cumulative IPC: 1.36399 (Simulation time: 1 hr 4 min 58 sec) 
Heartbeat CPU 0 instructions: 131000003 cycles: 85026139 heartbeat IPC: 1.46581 cumulative IPC: 1.36516 (Simulation time: 1 hr 5 min 30 sec) 
Heartbeat CPU 0 instructions: 132000000 cycles: 85711118 heartbeat IPC: 1.45989 cumulative IPC: 1.36625 (Simulation time: 1 hr 5 min 59 sec) 
Heartbeat CPU 0 instructions: 133000003 cycles: 86394521 heartbeat IPC: 1.46327 cumulative IPC: 1.36734 (Simulation time: 1 hr 6 min 32 sec) 
Heartbeat CPU 0 instructions: 134000001 cycles: 87167880 heartbeat IPC: 1.29306 cumulative IPC: 1.3664 (Simulation time: 1 hr 7 min 1 sec) 
Heartbeat CPU 0 instructions: 135000001 cycles: 87979767 heartbeat IPC: 1.2317 cumulative IPC: 1.36465 (Simulation time: 1 hr 7 min 34 sec) 
Heartbeat CPU 0 instructions: 136000000 cycles: 88731335 heartbeat IPC: 1.33055 cumulative IPC: 1.36424 (Simulation time: 1 hr 8 min 3 sec) 
Heartbeat CPU 0 instructions: 137000003 cycles: 89415782 heartbeat IPC: 1.46104 cumulative IPC: 1.36528 (Simulation time: 1 hr 8 min 32 sec) 
Heartbeat CPU 0 instructions: 138000000 cycles: 90100106 heartbeat IPC: 1.46129 cumulative IPC: 1.3663 (Simulation time: 1 hr 9 min 3 sec) 
Heartbeat CPU 0 instructions: 139000002 cycles: 90789399 heartbeat IPC: 1.45076 cumulative IPC: 1.3672 (Simulation time: 1 hr 9 min 32 sec) 
Heartbeat CPU 0 instructions: 140000000 cycles: 91591981 heartbeat IPC: 1.24598 cumulative IPC: 1.36572 (Simulation time: 1 hr 10 min 0 sec) 
Heartbeat CPU 0 instructions: 141000003 cycles: 92399425 heartbeat IPC: 1.23848 cumulative IPC: 1.36418 (Simulation time: 1 hr 10 min 29 sec) 
Heartbeat CPU 0 instructions: 142000000 cycles: 93123755 heartbeat IPC: 1.38058 cumulative IPC: 1.36435 (Simulation time: 1 hr 10 min 56 sec) 
Heartbeat CPU 0 instructions: 143000001 cycles: 93806685 heartbeat IPC: 1.46428 cumulative IPC: 1.36536 (Simulation time: 1 hr 11 min 29 sec) 
Heartbeat CPU 0 instructions: 144000000 cycles: 94490227 heartbeat IPC: 1.46297 cumulative IPC: 1.36633 (Simulation time: 1 hr 12 min 2 sec) 
Heartbeat CPU 0 instructions: 145000001 cycles: 95196254 heartbeat IPC: 1.41638 cumulative IPC: 1.36683 (Simulation time: 1 hr 12 min 31 sec) 
Heartbeat CPU 0 instructions: 146000003 cycles: 96008679 heartbeat IPC: 1.23089 cumulative IPC: 1.36526 (Simulation time: 1 hr 13 min 1 sec) 
Heartbeat CPU 0 instructions: 147000001 cycles: 96819495 heartbeat IPC: 1.23332 cumulative IPC: 1.36376 (Simulation time: 1 hr 13 min 27 sec) 
Heartbeat CPU 0 instructions: 148000000 cycles: 97510715 heartbeat IPC: 1.44672 cumulative IPC: 1.36456 (Simulation time: 1 hr 13 min 51 sec) 
Heartbeat CPU 0 instructions: 149000002 cycles: 98194035 heartbeat IPC: 1.46345 cumulative IPC: 1.36549 (Simulation time: 1 hr 14 min 19 sec) 
Heartbeat CPU 0 instructions: 150000002 cycles: 98879232 heartbeat IPC: 1.45943 cumulative IPC: 1.36637 (Simulation time: 1 hr 14 min 50 sec) 
Finished CPU 0 instructions: 100000002 cycles: 73186620 cummulative IPC: 1.36637 (Simulation time: 1 hr 14 min 50 sec) 

ChampSim completed all CPUs

Region of Interest Statistics

CPU 0 cummulative IPC: 1.36637 instructions: 100000002 cycles: 73186620
LLC TOTAL     ACCESS:     631177  HIT:     301633  MISS:     329544
LLC LOAD      ACCESS:      36746  HIT:      25072  MISS:      11674
LLC RFO       ACCESS:     152049  HIT:      75845  MISS:      76204
LLC PREFETCH  ACCESS:     286684  HIT:      98739  MISS:     187945
LLC WRITEBACK ACCESS:     155698  HIT:     101977  MISS:      53721
OPTgen accesses: 4424
OPTgen hits: 3159
OPTgen hit rate: 71.406


