
*** ChampSim Multicore Out-of-Order Simulator ***

Warmup Instructions: 50000000
Simulation Instructions: 100000000
Configuration: 2
Number of CPUs: 1
LLC sets: 2048
LLC ways: 16
Off-chip DRAM Channels: 1 Width: 64-bit Data Rate: 1600 MT/s

CPU 0 runs /datasets/cs240c-wi22-a00-public/data/Assignment2-gz/mcf_250B.trace.gz
CPU 0 L1D next line prefetcher
CPU 0 L2C IP-based stride prefetcher
Initialize Hawkeye state
Heartbeat CPU 0 instructions: 1000000 cycles: 532172 heartbeat IPC: 1.87909 cumulative IPC: 1.87909 (Simulation time: 0 hr 0 min 39 sec) 
Heartbeat CPU 0 instructions: 2000003 cycles: 1045408 heartbeat IPC: 1.94843 cumulative IPC: 1.91313 (Simulation time: 0 hr 1 min 18 sec) 
Heartbeat CPU 0 instructions: 3000002 cycles: 1542357 heartbeat IPC: 2.01228 cumulative IPC: 1.94508 (Simulation time: 0 hr 1 min 56 sec) 
Heartbeat CPU 0 instructions: 4000000 cycles: 2053806 heartbeat IPC: 1.95523 cumulative IPC: 1.9476 (Simulation time: 0 hr 2 min 36 sec) 
Heartbeat CPU 0 instructions: 5000002 cycles: 2560103 heartbeat IPC: 1.97513 cumulative IPC: 1.95305 (Simulation time: 0 hr 3 min 14 sec) 
Heartbeat CPU 0 instructions: 6000002 cycles: 3065823 heartbeat IPC: 1.97738 cumulative IPC: 1.95706 (Simulation time: 0 hr 3 min 55 sec) 
Heartbeat CPU 0 instructions: 7000002 cycles: 3605579 heartbeat IPC: 1.85269 cumulative IPC: 1.94144 (Simulation time: 0 hr 4 min 36 sec) 
Heartbeat CPU 0 instructions: 8000000 cycles: 4120541 heartbeat IPC: 1.94189 cumulative IPC: 1.94149 (Simulation time: 0 hr 5 min 16 sec) 
Heartbeat CPU 0 instructions: 9000002 cycles: 4635147 heartbeat IPC: 1.94324 cumulative IPC: 1.94169 (Simulation time: 0 hr 5 min 58 sec) 
Heartbeat CPU 0 instructions: 10000000 cycles: 5146402 heartbeat IPC: 1.95597 cumulative IPC: 1.94311 (Simulation time: 0 hr 6 min 40 sec) 
Heartbeat CPU 0 instructions: 11000001 cycles: 5658575 heartbeat IPC: 1.95247 cumulative IPC: 1.94395 (Simulation time: 0 hr 7 min 20 sec) 
Heartbeat CPU 0 instructions: 12000000 cycles: 6192682 heartbeat IPC: 1.87228 cumulative IPC: 1.93777 (Simulation time: 0 hr 7 min 59 sec) 
Heartbeat CPU 0 instructions: 13000001 cycles: 6712368 heartbeat IPC: 1.92424 cumulative IPC: 1.93672 (Simulation time: 0 hr 8 min 39 sec) 
Heartbeat CPU 0 instructions: 14000003 cycles: 7225295 heartbeat IPC: 1.9496 cumulative IPC: 1.93764 (Simulation time: 0 hr 9 min 25 sec) 
Heartbeat CPU 0 instructions: 15000002 cycles: 7738338 heartbeat IPC: 1.94915 cumulative IPC: 1.9384 (Simulation time: 0 hr 10 min 11 sec) 
Heartbeat CPU 0 instructions: 16000000 cycles: 8247503 heartbeat IPC: 1.964 cumulative IPC: 1.93998 (Simulation time: 0 hr 10 min 56 sec) 
Heartbeat CPU 0 instructions: 17000000 cycles: 8759354 heartbeat IPC: 1.95369 cumulative IPC: 1.94078 (Simulation time: 0 hr 11 min 38 sec) 
Heartbeat CPU 0 instructions: 18000002 cycles: 9268981 heartbeat IPC: 1.96222 cumulative IPC: 1.94196 (Simulation time: 0 hr 12 min 24 sec) 
Heartbeat CPU 0 instructions: 19000001 cycles: 9780741 heartbeat IPC: 1.95404 cumulative IPC: 1.94259 (Simulation time: 0 hr 13 min 7 sec) 
Heartbeat CPU 0 instructions: 20000000 cycles: 10291826 heartbeat IPC: 1.95662 cumulative IPC: 1.94329 (Simulation time: 0 hr 13 min 50 sec) 
Heartbeat CPU 0 instructions: 21000001 cycles: 10798730 heartbeat IPC: 1.97276 cumulative IPC: 1.94467 (Simulation time: 0 hr 14 min 34 sec) 
Heartbeat CPU 0 instructions: 22000000 cycles: 11303313 heartbeat IPC: 1.98183 cumulative IPC: 1.94633 (Simulation time: 0 hr 15 min 17 sec) 
Heartbeat CPU 0 instructions: 23000003 cycles: 11812140 heartbeat IPC: 1.96531 cumulative IPC: 1.94715 (Simulation time: 0 hr 15 min 58 sec) 
Heartbeat CPU 0 instructions: 24000000 cycles: 12319375 heartbeat IPC: 1.97147 cumulative IPC: 1.94815 (Simulation time: 0 hr 16 min 42 sec) 
Heartbeat CPU 0 instructions: 25000002 cycles: 12828835 heartbeat IPC: 1.96287 cumulative IPC: 1.94874 (Simulation time: 0 hr 17 min 25 sec) 
Heartbeat CPU 0 instructions: 26000000 cycles: 13342448 heartbeat IPC: 1.94699 cumulative IPC: 1.94867 (Simulation time: 0 hr 18 min 7 sec) 
Heartbeat CPU 0 instructions: 27000003 cycles: 13856765 heartbeat IPC: 1.94433 cumulative IPC: 1.94851 (Simulation time: 0 hr 18 min 49 sec) 
Heartbeat CPU 0 instructions: 28000000 cycles: 14370932 heartbeat IPC: 1.94489 cumulative IPC: 1.94838 (Simulation time: 0 hr 19 min 31 sec) 
Heartbeat CPU 0 instructions: 29000000 cycles: 14885478 heartbeat IPC: 1.94346 cumulative IPC: 1.94821 (Simulation time: 0 hr 20 min 15 sec) 
Heartbeat CPU 0 instructions: 30000000 cycles: 15400021 heartbeat IPC: 1.94347 cumulative IPC: 1.94805 (Simulation time: 0 hr 20 min 58 sec) 
Heartbeat CPU 0 instructions: 31000000 cycles: 15913654 heartbeat IPC: 1.94692 cumulative IPC: 1.94801 (Simulation time: 0 hr 21 min 41 sec) 
Heartbeat CPU 0 instructions: 32000000 cycles: 16422247 heartbeat IPC: 1.96621 cumulative IPC: 1.94858 (Simulation time: 0 hr 22 min 28 sec) 
Heartbeat CPU 0 instructions: 33000002 cycles: 16935378 heartbeat IPC: 1.94882 cumulative IPC: 1.94858 (Simulation time: 0 hr 23 min 12 sec) 
Heartbeat CPU 0 instructions: 34000000 cycles: 17449410 heartbeat IPC: 1.9454 cumulative IPC: 1.94849 (Simulation time: 0 hr 23 min 54 sec) 
Heartbeat CPU 0 instructions: 35000000 cycles: 17974291 heartbeat IPC: 1.90519 cumulative IPC: 1.94723 (Simulation time: 0 hr 24 min 37 sec) 
Heartbeat CPU 0 instructions: 36000000 cycles: 18502509 heartbeat IPC: 1.89316 cumulative IPC: 1.94568 (Simulation time: 0 hr 25 min 17 sec) 
Heartbeat CPU 0 instructions: 37000002 cycles: 19015713 heartbeat IPC: 1.94855 cumulative IPC: 1.94576 (Simulation time: 0 hr 26 min 2 sec) 
Heartbeat CPU 0 instructions: 38000000 cycles: 19529204 heartbeat IPC: 1.94745 cumulative IPC: 1.9458 (Simulation time: 0 hr 26 min 46 sec) 
Heartbeat CPU 0 instructions: 39000002 cycles: 20042492 heartbeat IPC: 1.94823 cumulative IPC: 1.94587 (Simulation time: 0 hr 27 min 29 sec) 
Heartbeat CPU 0 instructions: 40000000 cycles: 20557124 heartbeat IPC: 1.94313 cumulative IPC: 1.9458 (Simulation time: 0 hr 28 min 17 sec) 
Heartbeat CPU 0 instructions: 41000000 cycles: 21071622 heartbeat IPC: 1.94364 cumulative IPC: 1.94574 (Simulation time: 0 hr 29 min 1 sec) 
Heartbeat CPU 0 instructions: 42000001 cycles: 21586973 heartbeat IPC: 1.94043 cumulative IPC: 1.94562 (Simulation time: 0 hr 29 min 46 sec) 
Heartbeat CPU 0 instructions: 43000000 cycles: 22099863 heartbeat IPC: 1.94973 cumulative IPC: 1.94571 (Simulation time: 0 hr 30 min 29 sec) 
Heartbeat CPU 0 instructions: 44000000 cycles: 22612837 heartbeat IPC: 1.94942 cumulative IPC: 1.9458 (Simulation time: 0 hr 31 min 11 sec) 
Heartbeat CPU 0 instructions: 45000001 cycles: 23126881 heartbeat IPC: 1.94536 cumulative IPC: 1.94579 (Simulation time: 0 hr 31 min 56 sec) 
Heartbeat CPU 0 instructions: 46000002 cycles: 23641254 heartbeat IPC: 1.94412 cumulative IPC: 1.94575 (Simulation time: 0 hr 32 min 39 sec) 
Heartbeat CPU 0 instructions: 47000002 cycles: 24155545 heartbeat IPC: 1.94442 cumulative IPC: 1.94572 (Simulation time: 0 hr 33 min 23 sec) 
Heartbeat CPU 0 instructions: 48000000 cycles: 24669472 heartbeat IPC: 1.9458 cumulative IPC: 1.94572 (Simulation time: 0 hr 34 min 5 sec) 
Heartbeat CPU 0 instructions: 49000000 cycles: 25183547 heartbeat IPC: 1.94524 cumulative IPC: 1.94571 (Simulation time: 0 hr 34 min 49 sec) 
Heartbeat CPU 0 instructions: 50000002 cycles: 25697034 heartbeat IPC: 1.94747 cumulative IPC: 1.94575 (Simulation time: 0 hr 35 min 31 sec) 

Warmup complete CPU 0 instructions: 50000002 cycles: 25697034 (Simulation time: 0 hr 35 min 31 sec) 

Heartbeat CPU 0 instructions: 51000002 cycles: 34919128 heartbeat IPC: 0.108435 cumulative IPC: 0.108435 (Simulation time: 0 hr 36 min 28 sec) 
Heartbeat CPU 0 instructions: 52000000 cycles: 44168110 heartbeat IPC: 0.10812 cumulative IPC: 0.108277 (Simulation time: 0 hr 37 min 29 sec) 
Heartbeat CPU 0 instructions: 53000000 cycles: 53374184 heartbeat IPC: 0.108624 cumulative IPC: 0.108393 (Simulation time: 0 hr 38 min 25 sec) 
Heartbeat CPU 0 instructions: 54000000 cycles: 62594951 heartbeat IPC: 0.108451 cumulative IPC: 0.108407 (Simulation time: 0 hr 39 min 22 sec) 
Heartbeat CPU 0 instructions: 55000000 cycles: 71835091 heartbeat IPC: 0.108223 cumulative IPC: 0.10837 (Simulation time: 0 hr 40 min 20 sec) 
Heartbeat CPU 0 instructions: 56000000 cycles: 80958692 heartbeat IPC: 0.109606 cumulative IPC: 0.108574 (Simulation time: 0 hr 41 min 18 sec) 
Heartbeat CPU 0 instructions: 57000000 cycles: 90116535 heartbeat IPC: 0.109196 cumulative IPC: 0.108663 (Simulation time: 0 hr 42 min 13 sec) 
Heartbeat CPU 0 instructions: 58000000 cycles: 99273655 heartbeat IPC: 0.109205 cumulative IPC: 0.10873 (Simulation time: 0 hr 43 min 11 sec) 
Heartbeat CPU 0 instructions: 59000001 cycles: 108349219 heartbeat IPC: 0.110186 cumulative IPC: 0.10889 (Simulation time: 0 hr 44 min 8 sec) 
Heartbeat CPU 0 instructions: 60000000 cycles: 117400358 heartbeat IPC: 0.110483 cumulative IPC: 0.109047 (Simulation time: 0 hr 45 min 4 sec) 
Heartbeat CPU 0 instructions: 61000001 cycles: 126434687 heartbeat IPC: 0.110689 cumulative IPC: 0.109195 (Simulation time: 0 hr 46 min 1 sec) 
Heartbeat CPU 0 instructions: 62000000 cycles: 134112421 heartbeat IPC: 0.130247 cumulative IPC: 0.110685 (Simulation time: 0 hr 46 min 52 sec) 
Heartbeat CPU 0 instructions: 63000001 cycles: 142735890 heartbeat IPC: 0.115963 cumulative IPC: 0.111074 (Simulation time: 0 hr 47 min 45 sec) 
Heartbeat CPU 0 instructions: 64000000 cycles: 151828506 heartbeat IPC: 0.109979 cumulative IPC: 0.110995 (Simulation time: 0 hr 48 min 43 sec) 
Heartbeat CPU 0 instructions: 65000000 cycles: 160235312 heartbeat IPC: 0.118951 cumulative IPC: 0.111492 (Simulation time: 0 hr 49 min 40 sec) 
Heartbeat CPU 0 instructions: 66000000 cycles: 169109350 heartbeat IPC: 0.112688 cumulative IPC: 0.111566 (Simulation time: 0 hr 50 min 36 sec) 
Heartbeat CPU 0 instructions: 67000000 cycles: 178238510 heartbeat IPC: 0.109539 cumulative IPC: 0.111445 (Simulation time: 0 hr 51 min 34 sec) 
Heartbeat CPU 0 instructions: 68000000 cycles: 187304363 heartbeat IPC: 0.110304 cumulative IPC: 0.111381 (Simulation time: 0 hr 52 min 31 sec) 
Heartbeat CPU 0 instructions: 69000000 cycles: 196086094 heartbeat IPC: 0.113873 cumulative IPC: 0.111509 (Simulation time: 0 hr 53 min 28 sec) 
Heartbeat CPU 0 instructions: 70000000 cycles: 205205481 heartbeat IPC: 0.109656 cumulative IPC: 0.111415 (Simulation time: 0 hr 54 min 25 sec) 
Heartbeat CPU 0 instructions: 71000000 cycles: 214127056 heartbeat IPC: 0.112088 cumulative IPC: 0.111447 (Simulation time: 0 hr 55 min 23 sec) 
Heartbeat CPU 0 instructions: 72000000 cycles: 222929344 heartbeat IPC: 0.113607 cumulative IPC: 0.111544 (Simulation time: 0 hr 56 min 27 sec) 
Heartbeat CPU 0 instructions: 73000001 cycles: 232099994 heartbeat IPC: 0.109044 cumulative IPC: 0.111433 (Simulation time: 0 hr 57 min 34 sec) 
Heartbeat CPU 0 instructions: 74000001 cycles: 240844694 heartbeat IPC: 0.114355 cumulative IPC: 0.111551 (Simulation time: 0 hr 58 min 41 sec) 
Heartbeat CPU 0 instructions: 75000002 cycles: 249568086 heartbeat IPC: 0.114634 cumulative IPC: 0.111671 (Simulation time: 0 hr 59 min 38 sec) 
Heartbeat CPU 0 instructions: 76000000 cycles: 258636506 heartbeat IPC: 0.110273 cumulative IPC: 0.111617 (Simulation time: 1 hr 0 min 36 sec) 
Heartbeat CPU 0 instructions: 77000003 cycles: 272836904 heartbeat IPC: 0.0704208 cumulative IPC: 0.10925 (Simulation time: 1 hr 1 min 49 sec) 
Heartbeat CPU 0 instructions: 78000000 cycles: 283156925 heartbeat IPC: 0.0968987 cumulative IPC: 0.108755 (Simulation time: 1 hr 2 min 53 sec) 
Heartbeat CPU 0 instructions: 79000000 cycles: 291918921 heartbeat IPC: 0.114129 cumulative IPC: 0.108932 (Simulation time: 1 hr 3 min 50 sec) 
Heartbeat CPU 0 instructions: 80000000 cycles: 300688061 heartbeat IPC: 0.114036 cumulative IPC: 0.109094 (Simulation time: 1 hr 4 min 58 sec) 
Heartbeat CPU 0 instructions: 81000001 cycles: 309606072 heartbeat IPC: 0.112133 cumulative IPC: 0.10919 (Simulation time: 1 hr 5 min 53 sec) 
Heartbeat CPU 0 instructions: 82000001 cycles: 317703970 heartbeat IPC: 0.123489 cumulative IPC: 0.109586 (Simulation time: 1 hr 6 min 47 sec) 
Heartbeat CPU 0 instructions: 83000002 cycles: 325308339 heartbeat IPC: 0.131503 cumulative IPC: 0.110143 (Simulation time: 1 hr 7 min 36 sec) 
Heartbeat CPU 0 instructions: 84000000 cycles: 332681263 heartbeat IPC: 0.135631 cumulative IPC: 0.110755 (Simulation time: 1 hr 8 min 22 sec) 
Heartbeat CPU 0 instructions: 85000000 cycles: 340564955 heartbeat IPC: 0.126844 cumulative IPC: 0.111158 (Simulation time: 1 hr 9 min 13 sec) 
Heartbeat CPU 0 instructions: 86000001 cycles: 348223410 heartbeat IPC: 0.130575 cumulative IPC: 0.111619 (Simulation time: 1 hr 10 min 3 sec) 
Heartbeat CPU 0 instructions: 87000001 cycles: 361386002 heartbeat IPC: 0.0759729 cumulative IPC: 0.110221 (Simulation time: 1 hr 11 min 10 sec) 
Heartbeat CPU 0 instructions: 88000000 cycles: 371689069 heartbeat IPC: 0.0970584 cumulative IPC: 0.109829 (Simulation time: 1 hr 12 min 7 sec) 
Heartbeat CPU 0 instructions: 89000001 cycles: 379690888 heartbeat IPC: 0.124972 cumulative IPC: 0.110171 (Simulation time: 1 hr 13 min 3 sec) 
Heartbeat CPU 0 instructions: 90000001 cycles: 386321998 heartbeat IPC: 0.150804 cumulative IPC: 0.110919 (Simulation time: 1 hr 13 min 52 sec) 
Heartbeat CPU 0 instructions: 91000000 cycles: 396159460 heartbeat IPC: 0.101652 cumulative IPC: 0.110672 (Simulation time: 1 hr 14 min 50 sec) 
Heartbeat CPU 0 instructions: 92000000 cycles: 404100824 heartbeat IPC: 0.125923 cumulative IPC: 0.110993 (Simulation time: 1 hr 15 min 34 sec) 
Heartbeat CPU 0 instructions: 93000000 cycles: 413311832 heartbeat IPC: 0.108566 cumulative IPC: 0.110935 (Simulation time: 1 hr 16 min 18 sec) 
Heartbeat CPU 0 instructions: 94000000 cycles: 422356544 heartbeat IPC: 0.110562 cumulative IPC: 0.110926 (Simulation time: 1 hr 16 min 58 sec) 
Heartbeat CPU 0 instructions: 95000000 cycles: 431431366 heartbeat IPC: 0.110195 cumulative IPC: 0.11091 (Simulation time: 1 hr 17 min 39 sec) 
Heartbeat CPU 0 instructions: 96000000 cycles: 440715938 heartbeat IPC: 0.107706 cumulative IPC: 0.110838 (Simulation time: 1 hr 18 min 34 sec) 
Heartbeat CPU 0 instructions: 97000000 cycles: 449693800 heartbeat IPC: 0.111385 cumulative IPC: 0.11085 (Simulation time: 1 hr 19 min 13 sec) 
Heartbeat CPU 0 instructions: 98000000 cycles: 459033846 heartbeat IPC: 0.107066 cumulative IPC: 0.110768 (Simulation time: 1 hr 19 min 53 sec) 
Heartbeat CPU 0 instructions: 99000000 cycles: 468122555 heartbeat IPC: 0.110027 cumulative IPC: 0.110753 (Simulation time: 1 hr 20 min 35 sec) 
Heartbeat CPU 0 instructions: 100000000 cycles: 477197348 heartbeat IPC: 0.110195 cumulative IPC: 0.110742 (Simulation time: 1 hr 21 min 17 sec) 
Heartbeat CPU 0 instructions: 101000002 cycles: 486254284 heartbeat IPC: 0.110413 cumulative IPC: 0.110735 (Simulation time: 1 hr 21 min 55 sec) 
Heartbeat CPU 0 instructions: 102000000 cycles: 495540960 heartbeat IPC: 0.107681 cumulative IPC: 0.110675 (Simulation time: 1 hr 22 min 35 sec) 
Heartbeat CPU 0 instructions: 103000000 cycles: 504984860 heartbeat IPC: 0.105888 cumulative IPC: 0.110581 (Simulation time: 1 hr 23 min 14 sec) 
Heartbeat CPU 0 instructions: 104000000 cycles: 514356786 heartbeat IPC: 0.106702 cumulative IPC: 0.110506 (Simulation time: 1 hr 23 min 53 sec) 
Heartbeat CPU 0 instructions: 105000000 cycles: 523676038 heartbeat IPC: 0.107305 cumulative IPC: 0.110446 (Simulation time: 1 hr 24 min 29 sec) 
Heartbeat CPU 0 instructions: 106000003 cycles: 532844409 heartbeat IPC: 0.109071 cumulative IPC: 0.110422 (Simulation time: 1 hr 25 min 2 sec) 
Heartbeat CPU 0 instructions: 107000003 cycles: 541996266 heartbeat IPC: 0.109267 cumulative IPC: 0.110401 (Simulation time: 1 hr 25 min 35 sec) 
Heartbeat CPU 0 instructions: 108000000 cycles: 551155677 heartbeat IPC: 0.109177 cumulative IPC: 0.11038 (Simulation time: 1 hr 26 min 4 sec) 
Heartbeat CPU 0 instructions: 109000000 cycles: 560345282 heartbeat IPC: 0.108819 cumulative IPC: 0.110353 (Simulation time: 1 hr 26 min 33 sec) 
Heartbeat CPU 0 instructions: 110000000 cycles: 569416507 heartbeat IPC: 0.110239 cumulative IPC: 0.110351 (Simulation time: 1 hr 27 min 0 sec) 
Heartbeat CPU 0 instructions: 111000000 cycles: 578349129 heartbeat IPC: 0.111949 cumulative IPC: 0.110377 (Simulation time: 1 hr 27 min 29 sec) 
Heartbeat CPU 0 instructions: 112000000 cycles: 587332731 heartbeat IPC: 0.111314 cumulative IPC: 0.110392 (Simulation time: 1 hr 27 min 55 sec) 
Heartbeat CPU 0 instructions: 113000001 cycles: 596293149 heartbeat IPC: 0.111602 cumulative IPC: 0.110411 (Simulation time: 1 hr 28 min 22 sec) 
Heartbeat CPU 0 instructions: 114000000 cycles: 605312746 heartbeat IPC: 0.11087 cumulative IPC: 0.110418 (Simulation time: 1 hr 28 min 47 sec) 
Heartbeat CPU 0 instructions: 115000000 cycles: 614381103 heartbeat IPC: 0.110274 cumulative IPC: 0.110416 (Simulation time: 1 hr 29 min 10 sec) 
Heartbeat CPU 0 instructions: 116000000 cycles: 623523468 heartbeat IPC: 0.109381 cumulative IPC: 0.1104 (Simulation time: 1 hr 29 min 32 sec) 
Heartbeat CPU 0 instructions: 117000001 cycles: 632796095 heartbeat IPC: 0.107844 cumulative IPC: 0.110361 (Simulation time: 1 hr 29 min 53 sec) 
Heartbeat CPU 0 instructions: 118000000 cycles: 641769680 heartbeat IPC: 0.111438 cumulative IPC: 0.110377 (Simulation time: 1 hr 30 min 12 sec) 
Heartbeat CPU 0 instructions: 119000000 cycles: 650861921 heartbeat IPC: 0.109984 cumulative IPC: 0.110371 (Simulation time: 1 hr 30 min 30 sec) 
Heartbeat CPU 0 instructions: 120000000 cycles: 660026703 heartbeat IPC: 0.109113 cumulative IPC: 0.110353 (Simulation time: 1 hr 30 min 48 sec) 
Heartbeat CPU 0 instructions: 121000000 cycles: 668979613 heartbeat IPC: 0.111696 cumulative IPC: 0.110371 (Simulation time: 1 hr 31 min 2 sec) 
Heartbeat CPU 0 instructions: 122000001 cycles: 678045100 heartbeat IPC: 0.110309 cumulative IPC: 0.110371 (Simulation time: 1 hr 31 min 15 sec) 
Heartbeat CPU 0 instructions: 123000002 cycles: 687068833 heartbeat IPC: 0.110819 cumulative IPC: 0.110377 (Simulation time: 1 hr 31 min 27 sec) 
Heartbeat CPU 0 instructions: 124000000 cycles: 696296129 heartbeat IPC: 0.108374 cumulative IPC: 0.110349 (Simulation time: 1 hr 31 min 37 sec) 
Heartbeat CPU 0 instructions: 125000001 cycles: 705791309 heartbeat IPC: 0.105317 cumulative IPC: 0.110279 (Simulation time: 1 hr 31 min 46 sec) 
Heartbeat CPU 0 instructions: 126000002 cycles: 714961582 heartbeat IPC: 0.109048 cumulative IPC: 0.110262 (Simulation time: 1 hr 31 min 54 sec) 
Heartbeat CPU 0 instructions: 127000000 cycles: 724174129 heartbeat IPC: 0.108547 cumulative IPC: 0.11024 (Simulation time: 1 hr 32 min 3 sec) 
Heartbeat CPU 0 instructions: 128000000 cycles: 733541179 heartbeat IPC: 0.106757 cumulative IPC: 0.110194 (Simulation time: 1 hr 32 min 14 sec) 
Heartbeat CPU 0 instructions: 129000001 cycles: 743038337 heartbeat IPC: 0.105295 cumulative IPC: 0.110129 (Simulation time: 1 hr 32 min 24 sec) 
Heartbeat CPU 0 instructions: 130000000 cycles: 752521981 heartbeat IPC: 0.105445 cumulative IPC: 0.110068 (Simulation time: 1 hr 32 min 32 sec) 
Heartbeat CPU 0 instructions: 131000000 cycles: 761860099 heartbeat IPC: 0.107088 cumulative IPC: 0.11003 (Simulation time: 1 hr 32 min 40 sec) 
Heartbeat CPU 0 instructions: 132000000 cycles: 770824194 heartbeat IPC: 0.111556 cumulative IPC: 0.110048 (Simulation time: 1 hr 32 min 47 sec) 
Heartbeat CPU 0 instructions: 133000000 cycles: 779984036 heartbeat IPC: 0.109172 cumulative IPC: 0.110038 (Simulation time: 1 hr 32 min 55 sec) 
Heartbeat CPU 0 instructions: 134000002 cycles: 789125195 heartbeat IPC: 0.109396 cumulative IPC: 0.11003 (Simulation time: 1 hr 33 min 2 sec) 
Heartbeat CPU 0 instructions: 135000002 cycles: 798148242 heartbeat IPC: 0.110827 cumulative IPC: 0.110039 (Simulation time: 1 hr 33 min 10 sec) 
Heartbeat CPU 0 instructions: 136000000 cycles: 807478249 heartbeat IPC: 0.107181 cumulative IPC: 0.110005 (Simulation time: 1 hr 33 min 18 sec) 
Heartbeat CPU 0 instructions: 137000000 cycles: 816546679 heartbeat IPC: 0.110273 cumulative IPC: 0.110008 (Simulation time: 1 hr 33 min 26 sec) 
Heartbeat CPU 0 instructions: 138000000 cycles: 825537663 heartbeat IPC: 0.111223 cumulative IPC: 0.110022 (Simulation time: 1 hr 33 min 34 sec) 
Heartbeat CPU 0 instructions: 139000001 cycles: 834609173 heartbeat IPC: 0.110235 cumulative IPC: 0.110024 (Simulation time: 1 hr 33 min 41 sec) 
Heartbeat CPU 0 instructions: 140000000 cycles: 843693482 heartbeat IPC: 0.11008 cumulative IPC: 0.110025 (Simulation time: 1 hr 33 min 49 sec) 
Heartbeat CPU 0 instructions: 141000002 cycles: 857522907 heartbeat IPC: 0.0723097 cumulative IPC: 0.109398 (Simulation time: 1 hr 34 min 0 sec) 
Heartbeat CPU 0 instructions: 142000002 cycles: 868093335 heartbeat IPC: 0.0946035 cumulative IPC: 0.109212 (Simulation time: 1 hr 34 min 8 sec) 
Heartbeat CPU 0 instructions: 143000001 cycles: 877082755 heartbeat IPC: 0.111242 cumulative IPC: 0.109234 (Simulation time: 1 hr 34 min 16 sec) 
Heartbeat CPU 0 instructions: 144000000 cycles: 885984798 heartbeat IPC: 0.112334 cumulative IPC: 0.109266 (Simulation time: 1 hr 34 min 24 sec) 
Heartbeat CPU 0 instructions: 145000000 cycles: 895046404 heartbeat IPC: 0.110356 cumulative IPC: 0.109277 (Simulation time: 1 hr 34 min 31 sec) 
Heartbeat CPU 0 instructions: 146000001 cycles: 903732540 heartbeat IPC: 0.115126 cumulative IPC: 0.109335 (Simulation time: 1 hr 34 min 39 sec) 
Heartbeat CPU 0 instructions: 147000001 cycles: 912313244 heartbeat IPC: 0.116541 cumulative IPC: 0.109405 (Simulation time: 1 hr 34 min 45 sec) 
Heartbeat CPU 0 instructions: 148000000 cycles: 920841768 heartbeat IPC: 0.117253 cumulative IPC: 0.10948 (Simulation time: 1 hr 34 min 52 sec) 
Heartbeat CPU 0 instructions: 149000001 cycles: 929228151 heartbeat IPC: 0.119241 cumulative IPC: 0.10957 (Simulation time: 1 hr 34 min 58 sec) 
Heartbeat CPU 0 instructions: 150000001 cycles: 937939973 heartbeat IPC: 0.114787 cumulative IPC: 0.10962 (Simulation time: 1 hr 35 min 6 sec) 
Finished CPU 0 instructions: 100000001 cycles: 912242988 cummulative IPC: 0.10962 (Simulation time: 1 hr 35 min 6 sec) 

ChampSim completed all CPUs

Region of Interest Statistics

CPU 0 cummulative IPC: 0.10962 instructions: 100000001 cycles: 912242988
LLC TOTAL     ACCESS:   27038349  HIT:   15421108  MISS:   11617241
LLC LOAD      ACCESS:   11745599  HIT:    8840355  MISS:    2905244
LLC RFO       ACCESS:      20878  HIT:       6925  MISS:      13953
LLC PREFETCH  ACCESS:   14998442  HIT:    6381286  MISS:    8617156
LLC WRITEBACK ACCESS:     273430  HIT:     192542  MISS:      80888
OPTgen accesses: 279154
OPTgen hits: 291141
OPTgen hit rate: 104.294


