
*** ChampSim Multicore Out-of-Order Simulator ***

Warmup Instructions: 50000000
Simulation Instructions: 100000000
Configuration: 2
Number of CPUs: 1
LLC sets: 2048
LLC ways: 16
Off-chip DRAM Channels: 1 Width: 64-bit Data Rate: 1600 MT/s

CPU 0 runs /datasets/cs240c-wi22-a00-public/data/Assignment2-gz/leslie3d_1186B.trace.gz
CPU 0 L1D next line prefetcher
CPU 0 L2C IP-based stride prefetcher
Initialize Hawkeye state
Heartbeat CPU 0 instructions: 1000002 cycles: 564509 heartbeat IPC: 1.77145 cumulative IPC: 1.77145 (Simulation time: 0 hr 0 min 40 sec) 
Heartbeat CPU 0 instructions: 2000000 cycles: 1215810 heartbeat IPC: 1.53539 cumulative IPC: 1.64499 (Simulation time: 0 hr 1 min 21 sec) 
Heartbeat CPU 0 instructions: 3000000 cycles: 1867537 heartbeat IPC: 1.53438 cumulative IPC: 1.60639 (Simulation time: 0 hr 1 min 59 sec) 
Heartbeat CPU 0 instructions: 4000000 cycles: 2473072 heartbeat IPC: 1.65143 cumulative IPC: 1.61742 (Simulation time: 0 hr 2 min 37 sec) 
Heartbeat CPU 0 instructions: 5000000 cycles: 3083389 heartbeat IPC: 1.63849 cumulative IPC: 1.62159 (Simulation time: 0 hr 3 min 15 sec) 
Heartbeat CPU 0 instructions: 6000000 cycles: 3735110 heartbeat IPC: 1.5344 cumulative IPC: 1.60638 (Simulation time: 0 hr 3 min 54 sec) 
Heartbeat CPU 0 instructions: 7000001 cycles: 4386339 heartbeat IPC: 1.53556 cumulative IPC: 1.59586 (Simulation time: 0 hr 4 min 32 sec) 
Heartbeat CPU 0 instructions: 8000000 cycles: 4950911 heartbeat IPC: 1.77125 cumulative IPC: 1.61586 (Simulation time: 0 hr 5 min 9 sec) 
Heartbeat CPU 0 instructions: 9000003 cycles: 5602199 heartbeat IPC: 1.53542 cumulative IPC: 1.60651 (Simulation time: 0 hr 5 min 51 sec) 
Heartbeat CPU 0 instructions: 10000001 cycles: 6253364 heartbeat IPC: 1.53571 cumulative IPC: 1.59914 (Simulation time: 0 hr 6 min 28 sec) 
Heartbeat CPU 0 instructions: 11000000 cycles: 6820146 heartbeat IPC: 1.76435 cumulative IPC: 1.61287 (Simulation time: 0 hr 7 min 5 sec) 
Heartbeat CPU 0 instructions: 12000000 cycles: 7469237 heartbeat IPC: 1.54062 cumulative IPC: 1.60659 (Simulation time: 0 hr 7 min 44 sec) 
Heartbeat CPU 0 instructions: 13000002 cycles: 8120722 heartbeat IPC: 1.53496 cumulative IPC: 1.60084 (Simulation time: 0 hr 8 min 23 sec) 
Heartbeat CPU 0 instructions: 14000000 cycles: 8755149 heartbeat IPC: 1.57622 cumulative IPC: 1.59906 (Simulation time: 0 hr 9 min 4 sec) 
Heartbeat CPU 0 instructions: 15000000 cycles: 9336234 heartbeat IPC: 1.72092 cumulative IPC: 1.60664 (Simulation time: 0 hr 9 min 44 sec) 
Heartbeat CPU 0 instructions: 16000000 cycles: 9987798 heartbeat IPC: 1.53477 cumulative IPC: 1.60195 (Simulation time: 0 hr 10 min 24 sec) 
Heartbeat CPU 0 instructions: 17000000 cycles: 10638861 heartbeat IPC: 1.53595 cumulative IPC: 1.59792 (Simulation time: 0 hr 11 min 3 sec) 
Heartbeat CPU 0 instructions: 18000003 cycles: 11203333 heartbeat IPC: 1.77157 cumulative IPC: 1.60667 (Simulation time: 0 hr 11 min 39 sec) 
Heartbeat CPU 0 instructions: 19000003 cycles: 11854613 heartbeat IPC: 1.53544 cumulative IPC: 1.60275 (Simulation time: 0 hr 12 min 18 sec) 
Heartbeat CPU 0 instructions: 20000000 cycles: 12505779 heartbeat IPC: 1.5357 cumulative IPC: 1.59926 (Simulation time: 0 hr 12 min 56 sec) 
Heartbeat CPU 0 instructions: 21000001 cycles: 13101420 heartbeat IPC: 1.67887 cumulative IPC: 1.60288 (Simulation time: 0 hr 13 min 34 sec) 
Heartbeat CPU 0 instructions: 22000003 cycles: 13721400 heartbeat IPC: 1.61296 cumulative IPC: 1.60334 (Simulation time: 0 hr 14 min 15 sec) 
Heartbeat CPU 0 instructions: 23000001 cycles: 14372561 heartbeat IPC: 1.53572 cumulative IPC: 1.60027 (Simulation time: 0 hr 14 min 55 sec) 
Heartbeat CPU 0 instructions: 24000000 cycles: 15024199 heartbeat IPC: 1.53459 cumulative IPC: 1.59742 (Simulation time: 0 hr 15 min 33 sec) 
Heartbeat CPU 0 instructions: 25000000 cycles: 15588255 heartbeat IPC: 1.77287 cumulative IPC: 1.60377 (Simulation time: 0 hr 16 min 9 sec) 
Heartbeat CPU 0 instructions: 26000003 cycles: 16240230 heartbeat IPC: 1.53381 cumulative IPC: 1.60096 (Simulation time: 0 hr 16 min 48 sec) 
Heartbeat CPU 0 instructions: 27000000 cycles: 16891854 heartbeat IPC: 1.53462 cumulative IPC: 1.5984 (Simulation time: 0 hr 17 min 27 sec) 
Heartbeat CPU 0 instructions: 28000000 cycles: 17455989 heartbeat IPC: 1.77263 cumulative IPC: 1.60403 (Simulation time: 0 hr 18 min 3 sec) 
Heartbeat CPU 0 instructions: 29000002 cycles: 18107429 heartbeat IPC: 1.53506 cumulative IPC: 1.60155 (Simulation time: 0 hr 18 min 42 sec) 
Heartbeat CPU 0 instructions: 30000002 cycles: 18758777 heartbeat IPC: 1.53528 cumulative IPC: 1.59925 (Simulation time: 0 hr 19 min 20 sec) 
Heartbeat CPU 0 instructions: 31000002 cycles: 19382827 heartbeat IPC: 1.60244 cumulative IPC: 1.59935 (Simulation time: 0 hr 19 min 58 sec) 
Heartbeat CPU 0 instructions: 32000000 cycles: 19974301 heartbeat IPC: 1.69069 cumulative IPC: 1.60206 (Simulation time: 0 hr 20 min 35 sec) 
Heartbeat CPU 0 instructions: 33000000 cycles: 20625855 heartbeat IPC: 1.53479 cumulative IPC: 1.59993 (Simulation time: 0 hr 21 min 14 sec) 
Heartbeat CPU 0 instructions: 34000000 cycles: 21277888 heartbeat IPC: 1.53366 cumulative IPC: 1.5979 (Simulation time: 0 hr 21 min 52 sec) 
Heartbeat CPU 0 instructions: 35000000 cycles: 21842130 heartbeat IPC: 1.77229 cumulative IPC: 1.60241 (Simulation time: 0 hr 22 min 29 sec) 
Heartbeat CPU 0 instructions: 36000000 cycles: 22493696 heartbeat IPC: 1.53476 cumulative IPC: 1.60045 (Simulation time: 0 hr 23 min 11 sec) 
Heartbeat CPU 0 instructions: 37000003 cycles: 23145412 heartbeat IPC: 1.53442 cumulative IPC: 1.59859 (Simulation time: 0 hr 23 min 50 sec) 
Heartbeat CPU 0 instructions: 38000002 cycles: 23731088 heartbeat IPC: 1.70743 cumulative IPC: 1.60128 (Simulation time: 0 hr 24 min 30 sec) 
Heartbeat CPU 0 instructions: 39000000 cycles: 24361296 heartbeat IPC: 1.58677 cumulative IPC: 1.6009 (Simulation time: 0 hr 25 min 9 sec) 
Heartbeat CPU 0 instructions: 40000000 cycles: 25013104 heartbeat IPC: 1.53419 cumulative IPC: 1.59916 (Simulation time: 0 hr 25 min 49 sec) 
Heartbeat CPU 0 instructions: 41000000 cycles: 25664081 heartbeat IPC: 1.53615 cumulative IPC: 1.59756 (Simulation time: 0 hr 26 min 34 sec) 
Heartbeat CPU 0 instructions: 42000000 cycles: 26228903 heartbeat IPC: 1.77047 cumulative IPC: 1.60129 (Simulation time: 0 hr 27 min 12 sec) 
Heartbeat CPU 0 instructions: 43000002 cycles: 26880015 heartbeat IPC: 1.53584 cumulative IPC: 1.5997 (Simulation time: 0 hr 27 min 53 sec) 
Heartbeat CPU 0 instructions: 44000000 cycles: 27531584 heartbeat IPC: 1.53475 cumulative IPC: 1.59816 (Simulation time: 0 hr 28 min 32 sec) 
Heartbeat CPU 0 instructions: 45000001 cycles: 28090711 heartbeat IPC: 1.7885 cumulative IPC: 1.60195 (Simulation time: 0 hr 29 min 9 sec) 
Heartbeat CPU 0 instructions: 46000001 cycles: 28591456 heartbeat IPC: 1.99702 cumulative IPC: 1.60887 (Simulation time: 0 hr 29 min 45 sec) 
Heartbeat CPU 0 instructions: 47000001 cycles: 29092130 heartbeat IPC: 1.99731 cumulative IPC: 1.61556 (Simulation time: 0 hr 30 min 20 sec) 
Heartbeat CPU 0 instructions: 48000000 cycles: 29592985 heartbeat IPC: 1.99658 cumulative IPC: 1.62201 (Simulation time: 0 hr 30 min 56 sec) 
Heartbeat CPU 0 instructions: 49000002 cycles: 30093371 heartbeat IPC: 1.99846 cumulative IPC: 1.62827 (Simulation time: 0 hr 31 min 32 sec) 
Heartbeat CPU 0 instructions: 50000001 cycles: 30594298 heartbeat IPC: 1.9963 cumulative IPC: 1.63429 (Simulation time: 0 hr 32 min 11 sec) 

Warmup complete CPU 0 instructions: 50000001 cycles: 30594298 (Simulation time: 0 hr 32 min 11 sec) 

Heartbeat CPU 0 instructions: 51000000 cycles: 32242887 heartbeat IPC: 0.606579 cumulative IPC: 0.606579 (Simulation time: 0 hr 32 min 54 sec) 
Heartbeat CPU 0 instructions: 52000000 cycles: 33799548 heartbeat IPC: 0.642401 cumulative IPC: 0.623976 (Simulation time: 0 hr 33 min 37 sec) 
Heartbeat CPU 0 instructions: 53000003 cycles: 35446573 heartbeat IPC: 0.607157 cumulative IPC: 0.618267 (Simulation time: 0 hr 34 min 17 sec) 
Heartbeat CPU 0 instructions: 54000003 cycles: 37008450 heartbeat IPC: 0.640255 cumulative IPC: 0.623621 (Simulation time: 0 hr 34 min 57 sec) 
Heartbeat CPU 0 instructions: 55000001 cycles: 38863934 heartbeat IPC: 0.538942 cumulative IPC: 0.604622 (Simulation time: 0 hr 35 min 37 sec) 
Heartbeat CPU 0 instructions: 56000000 cycles: 41269725 heartbeat IPC: 0.415663 cumulative IPC: 0.562038 (Simulation time: 0 hr 36 min 20 sec) 
Heartbeat CPU 0 instructions: 57000003 cycles: 43583428 heartbeat IPC: 0.432209 cumulative IPC: 0.538912 (Simulation time: 0 hr 37 min 2 sec) 
Heartbeat CPU 0 instructions: 58000001 cycles: 45928642 heartbeat IPC: 0.426399 cumulative IPC: 0.521705 (Simulation time: 0 hr 37 min 45 sec) 
Heartbeat CPU 0 instructions: 59000003 cycles: 48279979 heartbeat IPC: 0.425291 cumulative IPC: 0.508886 (Simulation time: 0 hr 38 min 36 sec) 
Heartbeat CPU 0 instructions: 60000000 cycles: 50629837 heartbeat IPC: 0.425556 cumulative IPC: 0.499113 (Simulation time: 0 hr 39 min 27 sec) 
Heartbeat CPU 0 instructions: 61000003 cycles: 52969796 heartbeat IPC: 0.427359 cumulative IPC: 0.491609 (Simulation time: 0 hr 40 min 16 sec) 
Heartbeat CPU 0 instructions: 62000001 cycles: 55300152 heartbeat IPC: 0.429118 cumulative IPC: 0.485715 (Simulation time: 0 hr 41 min 9 sec) 
Heartbeat CPU 0 instructions: 63000000 cycles: 57279111 heartbeat IPC: 0.505316 cumulative IPC: 0.487168 (Simulation time: 0 hr 41 min 55 sec) 
Heartbeat CPU 0 instructions: 64000000 cycles: 58516984 heartbeat IPC: 0.807837 cumulative IPC: 0.501384 (Simulation time: 0 hr 42 min 40 sec) 
Heartbeat CPU 0 instructions: 65000000 cycles: 59776326 heartbeat IPC: 0.794065 cumulative IPC: 0.514015 (Simulation time: 0 hr 43 min 19 sec) 
Heartbeat CPU 0 instructions: 66000002 cycles: 61025140 heartbeat IPC: 0.800761 cumulative IPC: 0.525782 (Simulation time: 0 hr 43 min 58 sec) 
Heartbeat CPU 0 instructions: 67000001 cycles: 62263429 heartbeat IPC: 0.807565 cumulative IPC: 0.5368 (Simulation time: 0 hr 44 min 36 sec) 
Heartbeat CPU 0 instructions: 68000000 cycles: 63575755 heartbeat IPC: 0.762005 cumulative IPC: 0.545761 (Simulation time: 0 hr 45 min 15 sec) 
Heartbeat CPU 0 instructions: 69000000 cycles: 64810427 heartbeat IPC: 0.809932 cumulative IPC: 0.555294 (Simulation time: 0 hr 45 min 56 sec) 
Heartbeat CPU 0 instructions: 70000000 cycles: 66083642 heartbeat IPC: 0.785413 cumulative IPC: 0.563549 (Simulation time: 0 hr 46 min 37 sec) 
Heartbeat CPU 0 instructions: 71000000 cycles: 67324929 heartbeat IPC: 0.805615 cumulative IPC: 0.57173 (Simulation time: 0 hr 47 min 17 sec) 
Heartbeat CPU 0 instructions: 72000000 cycles: 68592055 heartbeat IPC: 0.789187 cumulative IPC: 0.578982 (Simulation time: 0 hr 48 min 1 sec) 
Heartbeat CPU 0 instructions: 73000000 cycles: 69859500 heartbeat IPC: 0.788989 cumulative IPC: 0.58576 (Simulation time: 0 hr 48 min 40 sec) 
Heartbeat CPU 0 instructions: 74000000 cycles: 71096601 heartbeat IPC: 0.808341 cumulative IPC: 0.592559 (Simulation time: 0 hr 49 min 21 sec) 
Heartbeat CPU 0 instructions: 75000003 cycles: 72382235 heartbeat IPC: 0.777829 cumulative IPC: 0.598259 (Simulation time: 0 hr 50 min 0 sec) 
Heartbeat CPU 0 instructions: 76000000 cycles: 73626668 heartbeat IPC: 0.803576 cumulative IPC: 0.604196 (Simulation time: 0 hr 50 min 41 sec) 
Heartbeat CPU 0 instructions: 77000000 cycles: 74914396 heartbeat IPC: 0.776561 cumulative IPC: 0.609204 (Simulation time: 0 hr 51 min 24 sec) 
Heartbeat CPU 0 instructions: 78000001 cycles: 76178122 heartbeat IPC: 0.791312 cumulative IPC: 0.614253 (Simulation time: 0 hr 52 min 5 sec) 
Heartbeat CPU 0 instructions: 79000001 cycles: 77464365 heartbeat IPC: 0.777458 cumulative IPC: 0.618732 (Simulation time: 0 hr 52 min 45 sec) 
Heartbeat CPU 0 instructions: 80000000 cycles: 78740957 heartbeat IPC: 0.783335 cumulative IPC: 0.623096 (Simulation time: 0 hr 53 min 23 sec) 
Heartbeat CPU 0 instructions: 81000000 cycles: 79986402 heartbeat IPC: 0.802926 cumulative IPC: 0.627631 (Simulation time: 0 hr 54 min 3 sec) 
Heartbeat CPU 0 instructions: 82000003 cycles: 81272907 heartbeat IPC: 0.777302 cumulative IPC: 0.63143 (Simulation time: 0 hr 54 min 43 sec) 
Heartbeat CPU 0 instructions: 83000001 cycles: 82529460 heartbeat IPC: 0.795826 cumulative IPC: 0.635408 (Simulation time: 0 hr 55 min 30 sec) 
Heartbeat CPU 0 instructions: 84000000 cycles: 83810662 heartbeat IPC: 0.780516 cumulative IPC: 0.638901 (Simulation time: 0 hr 56 min 13 sec) 
Heartbeat CPU 0 instructions: 85000001 cycles: 85065268 heartbeat IPC: 0.797064 cumulative IPC: 0.642544 (Simulation time: 0 hr 56 min 54 sec) 
Heartbeat CPU 0 instructions: 86000003 cycles: 86342207 heartbeat IPC: 0.783124 cumulative IPC: 0.645764 (Simulation time: 0 hr 57 min 35 sec) 
Heartbeat CPU 0 instructions: 87000001 cycles: 87600049 heartbeat IPC: 0.795011 cumulative IPC: 0.649057 (Simulation time: 0 hr 58 min 18 sec) 
Heartbeat CPU 0 instructions: 88000000 cycles: 88871426 heartbeat IPC: 0.786548 cumulative IPC: 0.652057 (Simulation time: 0 hr 59 min 0 sec) 
Heartbeat CPU 0 instructions: 89000001 cycles: 90162915 heartbeat IPC: 0.774301 cumulative IPC: 0.654707 (Simulation time: 0 hr 59 min 44 sec) 
Heartbeat CPU 0 instructions: 90000002 cycles: 91426906 heartbeat IPC: 0.791146 cumulative IPC: 0.657542 (Simulation time: 1 hr 0 min 22 sec) 
Heartbeat CPU 0 instructions: 91000000 cycles: 92721754 heartbeat IPC: 0.77229 cumulative IPC: 0.659934 (Simulation time: 1 hr 1 min 9 sec) 
Heartbeat CPU 0 instructions: 92000000 cycles: 93977560 heartbeat IPC: 0.796301 cumulative IPC: 0.662636 (Simulation time: 1 hr 1 min 52 sec) 
Heartbeat CPU 0 instructions: 93000002 cycles: 95280771 heartbeat IPC: 0.767337 cumulative IPC: 0.664745 (Simulation time: 1 hr 2 min 33 sec) 
Heartbeat CPU 0 instructions: 94000000 cycles: 96524590 heartbeat IPC: 0.803974 cumulative IPC: 0.667372 (Simulation time: 1 hr 3 min 17 sec) 
Heartbeat CPU 0 instructions: 95000003 cycles: 97772352 heartbeat IPC: 0.801437 cumulative IPC: 0.669862 (Simulation time: 1 hr 3 min 59 sec) 
Heartbeat CPU 0 instructions: 96000000 cycles: 99054069 heartbeat IPC: 0.780201 cumulative IPC: 0.671927 (Simulation time: 1 hr 4 min 43 sec) 
Heartbeat CPU 0 instructions: 97000001 cycles: 100293859 heartbeat IPC: 0.806589 cumulative IPC: 0.674323 (Simulation time: 1 hr 5 min 26 sec) 
Heartbeat CPU 0 instructions: 98000002 cycles: 101586358 heartbeat IPC: 0.773696 cumulative IPC: 0.676132 (Simulation time: 1 hr 6 min 9 sec) 
Heartbeat CPU 0 instructions: 99000000 cycles: 102826591 heartbeat IPC: 0.806298 cumulative IPC: 0.678367 (Simulation time: 1 hr 6 min 48 sec) 
Heartbeat CPU 0 instructions: 100000000 cycles: 104120405 heartbeat IPC: 0.772909 cumulative IPC: 0.680031 (Simulation time: 1 hr 7 min 31 sec) 
Heartbeat CPU 0 instructions: 101000000 cycles: 105370387 heartbeat IPC: 0.800012 cumulative IPC: 0.682036 (Simulation time: 1 hr 8 min 10 sec) 
Heartbeat CPU 0 instructions: 102000001 cycles: 106623058 heartbeat IPC: 0.798295 cumulative IPC: 0.683952 (Simulation time: 1 hr 8 min 54 sec) 
Heartbeat CPU 0 instructions: 103000002 cycles: 107924340 heartbeat IPC: 0.768474 cumulative IPC: 0.685374 (Simulation time: 1 hr 9 min 32 sec) 
Heartbeat CPU 0 instructions: 104000000 cycles: 109165464 heartbeat IPC: 0.80572 cumulative IPC: 0.687275 (Simulation time: 1 hr 10 min 12 sec) 
Heartbeat CPU 0 instructions: 105000001 cycles: 110464597 heartbeat IPC: 0.769745 cumulative IPC: 0.688616 (Simulation time: 1 hr 10 min 49 sec) 
Heartbeat CPU 0 instructions: 106000002 cycles: 111712224 heartbeat IPC: 0.801522 cumulative IPC: 0.690353 (Simulation time: 1 hr 11 min 30 sec) 
Heartbeat CPU 0 instructions: 107000000 cycles: 113002344 heartbeat IPC: 0.77512 cumulative IPC: 0.69168 (Simulation time: 1 hr 12 min 10 sec) 
Heartbeat CPU 0 instructions: 108000000 cycles: 114259808 heartbeat IPC: 0.795251 cumulative IPC: 0.693237 (Simulation time: 1 hr 12 min 50 sec) 
Heartbeat CPU 0 instructions: 109000003 cycles: 115506366 heartbeat IPC: 0.802211 cumulative IPC: 0.694836 (Simulation time: 1 hr 13 min 30 sec) 
Heartbeat CPU 0 instructions: 110000001 cycles: 116798003 heartbeat IPC: 0.77421 cumulative IPC: 0.696026 (Simulation time: 1 hr 14 min 3 sec) 
Heartbeat CPU 0 instructions: 111000001 cycles: 118033808 heartbeat IPC: 0.809189 cumulative IPC: 0.697625 (Simulation time: 1 hr 14 min 44 sec) 
Heartbeat CPU 0 instructions: 112000000 cycles: 119362967 heartbeat IPC: 0.752355 cumulative IPC: 0.698445 (Simulation time: 1 hr 15 min 21 sec) 
Heartbeat CPU 0 instructions: 113000000 cycles: 121030579 heartbeat IPC: 0.59966 cumulative IPC: 0.696623 (Simulation time: 1 hr 15 min 57 sec) 
Heartbeat CPU 0 instructions: 114000000 cycles: 122643142 heartbeat IPC: 0.620131 cumulative IPC: 0.695283 (Simulation time: 1 hr 16 min 28 sec) 
Heartbeat CPU 0 instructions: 115000000 cycles: 124262561 heartbeat IPC: 0.617505 cumulative IPC: 0.693938 (Simulation time: 1 hr 16 min 55 sec) 
Heartbeat CPU 0 instructions: 116000000 cycles: 125884525 heartbeat IPC: 0.616536 cumulative IPC: 0.692621 (Simulation time: 1 hr 17 min 30 sec) 
Heartbeat CPU 0 instructions: 117000002 cycles: 127510604 heartbeat IPC: 0.614977 cumulative IPC: 0.691318 (Simulation time: 1 hr 18 min 3 sec) 
Heartbeat CPU 0 instructions: 118000000 cycles: 129146777 heartbeat IPC: 0.611181 cumulative IPC: 0.689988 (Simulation time: 1 hr 18 min 30 sec) 
Heartbeat CPU 0 instructions: 119000001 cycles: 130781544 heartbeat IPC: 0.611709 cumulative IPC: 0.68871 (Simulation time: 1 hr 18 min 58 sec) 
Heartbeat CPU 0 instructions: 120000000 cycles: 132445344 heartbeat IPC: 0.601033 cumulative IPC: 0.687278 (Simulation time: 1 hr 19 min 24 sec) 
Heartbeat CPU 0 instructions: 121000002 cycles: 134102378 heartbeat IPC: 0.603489 cumulative IPC: 0.685937 (Simulation time: 1 hr 19 min 54 sec) 
Heartbeat CPU 0 instructions: 122000000 cycles: 135780012 heartbeat IPC: 0.596076 cumulative IPC: 0.684504 (Simulation time: 1 hr 20 min 22 sec) 
Heartbeat CPU 0 instructions: 123000002 cycles: 137428429 heartbeat IPC: 0.606644 cumulative IPC: 0.683302 (Simulation time: 1 hr 20 min 48 sec) 
Heartbeat CPU 0 instructions: 124000000 cycles: 139080266 heartbeat IPC: 0.605385 cumulative IPC: 0.682116 (Simulation time: 1 hr 21 min 15 sec) 
Heartbeat CPU 0 instructions: 125000003 cycles: 140739044 heartbeat IPC: 0.602855 cumulative IPC: 0.680922 (Simulation time: 1 hr 21 min 43 sec) 
Heartbeat CPU 0 instructions: 126000000 cycles: 142372286 heartbeat IPC: 0.612277 cumulative IPC: 0.679919 (Simulation time: 1 hr 22 min 9 sec) 
Heartbeat CPU 0 instructions: 127000001 cycles: 144065247 heartbeat IPC: 0.590682 cumulative IPC: 0.678588 (Simulation time: 1 hr 22 min 33 sec) 
Heartbeat CPU 0 instructions: 128000000 cycles: 145717401 heartbeat IPC: 0.60527 cumulative IPC: 0.677536 (Simulation time: 1 hr 23 min 1 sec) 
Heartbeat CPU 0 instructions: 129000001 cycles: 147355839 heartbeat IPC: 0.610338 cumulative IPC: 0.676593 (Simulation time: 1 hr 23 min 27 sec) 
Heartbeat CPU 0 instructions: 130000003 cycles: 149034930 heartbeat IPC: 0.595562 cumulative IPC: 0.675444 (Simulation time: 1 hr 23 min 52 sec) 
Heartbeat CPU 0 instructions: 131000001 cycles: 154434859 heartbeat IPC: 0.185187 cumulative IPC: 0.654067 (Simulation time: 1 hr 24 min 36 sec) 
Heartbeat CPU 0 instructions: 132000000 cycles: 157351066 heartbeat IPC: 0.342911 cumulative IPC: 0.646908 (Simulation time: 1 hr 25 min 13 sec) 
Heartbeat CPU 0 instructions: 133000002 cycles: 159926254 heartbeat IPC: 0.388322 cumulative IPC: 0.641759 (Simulation time: 1 hr 25 min 44 sec) 
Heartbeat CPU 0 instructions: 134000000 cycles: 161284091 heartbeat IPC: 0.736464 cumulative IPC: 0.642743 (Simulation time: 1 hr 25 min 59 sec) 
Heartbeat CPU 0 instructions: 135000001 cycles: 162545212 heartbeat IPC: 0.792946 cumulative IPC: 0.644179 (Simulation time: 1 hr 26 min 15 sec) 
Heartbeat CPU 0 instructions: 136000000 cycles: 163803910 heartbeat IPC: 0.794471 cumulative IPC: 0.645599 (Simulation time: 1 hr 26 min 31 sec) 
Heartbeat CPU 0 instructions: 137000001 cycles: 165230173 heartbeat IPC: 0.701134 cumulative IPC: 0.646187 (Simulation time: 1 hr 26 min 49 sec) 
Heartbeat CPU 0 instructions: 138000003 cycles: 166780101 heartbeat IPC: 0.645193 cumulative IPC: 0.646176 (Simulation time: 1 hr 27 min 6 sec) 
Heartbeat CPU 0 instructions: 139000001 cycles: 168283340 heartbeat IPC: 0.665229 cumulative IPC: 0.646384 (Simulation time: 1 hr 27 min 23 sec) 
Heartbeat CPU 0 instructions: 140000000 cycles: 169797423 heartbeat IPC: 0.660465 cumulative IPC: 0.646537 (Simulation time: 1 hr 27 min 39 sec) 
Heartbeat CPU 0 instructions: 141000003 cycles: 171315057 heartbeat IPC: 0.658922 cumulative IPC: 0.646671 (Simulation time: 1 hr 27 min 53 sec) 
Heartbeat CPU 0 instructions: 142000003 cycles: 172861136 heartbeat IPC: 0.646797 cumulative IPC: 0.646672 (Simulation time: 1 hr 28 min 10 sec) 
Heartbeat CPU 0 instructions: 143000000 cycles: 174368383 heartbeat IPC: 0.663459 cumulative IPC: 0.646848 (Simulation time: 1 hr 28 min 26 sec) 
Heartbeat CPU 0 instructions: 144000000 cycles: 175879781 heartbeat IPC: 0.661639 cumulative IPC: 0.647002 (Simulation time: 1 hr 28 min 42 sec) 
Heartbeat CPU 0 instructions: 145000001 cycles: 177425939 heartbeat IPC: 0.646765 cumulative IPC: 0.647 (Simulation time: 1 hr 28 min 56 sec) 
Heartbeat CPU 0 instructions: 146000003 cycles: 178948031 heartbeat IPC: 0.656992 cumulative IPC: 0.647102 (Simulation time: 1 hr 29 min 11 sec) 
Heartbeat CPU 0 instructions: 147000001 cycles: 180997623 heartbeat IPC: 0.487901 cumulative IPC: 0.644933 (Simulation time: 1 hr 29 min 27 sec) 
Heartbeat CPU 0 instructions: 148000000 cycles: 183460946 heartbeat IPC: 0.405955 cumulative IPC: 0.641082 (Simulation time: 1 hr 29 min 43 sec) 
Heartbeat CPU 0 instructions: 149000003 cycles: 185888048 heartbeat IPC: 0.412015 cumulative IPC: 0.637502 (Simulation time: 1 hr 29 min 58 sec) 
Heartbeat CPU 0 instructions: 150000001 cycles: 188171610 heartbeat IPC: 0.437911 cumulative IPC: 0.634609 (Simulation time: 1 hr 30 min 13 sec) 
Finished CPU 0 instructions: 100000000 cycles: 157577312 cummulative IPC: 0.634609 (Simulation time: 1 hr 30 min 13 sec) 

ChampSim completed all CPUs

Region of Interest Statistics

CPU 0 cummulative IPC: 0.634609 instructions: 100000000 cycles: 157577312
LLC TOTAL     ACCESS:    4660939  HIT:    1247973  MISS:    3412966
LLC LOAD      ACCESS:     475421  HIT:     126165  MISS:     349256
LLC RFO       ACCESS:     797323  HIT:      91304  MISS:     706019
LLC PREFETCH  ACCESS:    2243696  HIT:     520746  MISS:    1722950
LLC WRITEBACK ACCESS:    1144499  HIT:     509758  MISS:     634741
OPTgen accesses: 23882
OPTgen hits: 11337
OPTgen hit rate: 47.4709


