
*** ChampSim Multicore Out-of-Order Simulator ***

Warmup Instructions: 50000000
Simulation Instructions: 100000000
Configuration: 2
Number of CPUs: 1
LLC sets: 2048
LLC ways: 16
Off-chip DRAM Channels: 1 Width: 64-bit Data Rate: 1600 MT/s

CPU 0 runs /datasets/cs240c-wi22-a00-public/data/Assignment2-gz/libquantum_964B.trace.gz
CPU 0 L1D next line prefetcher
CPU 0 L2C IP-based stride prefetcher
Initialize Hawkeye state
Heartbeat CPU 0 instructions: 1000002 cycles: 333341 heartbeat IPC: 2.99994 cumulative IPC: 2.99994 (Simulation time: 0 hr 0 min 21 sec) 
Heartbeat CPU 0 instructions: 2000001 cycles: 666674 heartbeat IPC: 3 cumulative IPC: 2.99997 (Simulation time: 0 hr 0 min 41 sec) 
Heartbeat CPU 0 instructions: 3000000 cycles: 1000007 heartbeat IPC: 3 cumulative IPC: 2.99998 (Simulation time: 0 hr 1 min 1 sec) 
Heartbeat CPU 0 instructions: 4000000 cycles: 1333341 heartbeat IPC: 2.99999 cumulative IPC: 2.99998 (Simulation time: 0 hr 1 min 17 sec) 
Heartbeat CPU 0 instructions: 5000000 cycles: 1666674 heartbeat IPC: 3 cumulative IPC: 2.99999 (Simulation time: 0 hr 1 min 33 sec) 
Heartbeat CPU 0 instructions: 6000002 cycles: 2000008 heartbeat IPC: 3 cumulative IPC: 2.99999 (Simulation time: 0 hr 1 min 50 sec) 
Heartbeat CPU 0 instructions: 7000001 cycles: 2331518 heartbeat IPC: 3.0165 cumulative IPC: 3.00234 (Simulation time: 0 hr 2 min 7 sec) 
Heartbeat CPU 0 instructions: 8000000 cycles: 2662240 heartbeat IPC: 3.02368 cumulative IPC: 3.00499 (Simulation time: 0 hr 2 min 25 sec) 
Heartbeat CPU 0 instructions: 9000001 cycles: 2992962 heartbeat IPC: 3.02369 cumulative IPC: 3.00705 (Simulation time: 0 hr 2 min 41 sec) 
Heartbeat CPU 0 instructions: 10000001 cycles: 3323684 heartbeat IPC: 3.02369 cumulative IPC: 3.00871 (Simulation time: 0 hr 2 min 58 sec) 
Heartbeat CPU 0 instructions: 11000000 cycles: 3654406 heartbeat IPC: 3.02368 cumulative IPC: 3.01007 (Simulation time: 0 hr 3 min 15 sec) 
Heartbeat CPU 0 instructions: 12000000 cycles: 3985113 heartbeat IPC: 3.02382 cumulative IPC: 3.01121 (Simulation time: 0 hr 3 min 32 sec) 
Heartbeat CPU 0 instructions: 13000001 cycles: 4315818 heartbeat IPC: 3.02385 cumulative IPC: 3.01218 (Simulation time: 0 hr 3 min 50 sec) 
Heartbeat CPU 0 instructions: 14000000 cycles: 4646523 heartbeat IPC: 3.02384 cumulative IPC: 3.01301 (Simulation time: 0 hr 4 min 8 sec) 
Heartbeat CPU 0 instructions: 15000003 cycles: 4977229 heartbeat IPC: 3.02384 cumulative IPC: 3.01373 (Simulation time: 0 hr 4 min 27 sec) 
Heartbeat CPU 0 instructions: 16000000 cycles: 5307934 heartbeat IPC: 3.02383 cumulative IPC: 3.01436 (Simulation time: 0 hr 4 min 45 sec) 
Heartbeat CPU 0 instructions: 17000000 cycles: 5638642 heartbeat IPC: 3.02382 cumulative IPC: 3.01491 (Simulation time: 0 hr 5 min 4 sec) 
Heartbeat CPU 0 instructions: 18000003 cycles: 5969365 heartbeat IPC: 3.02369 cumulative IPC: 3.0154 (Simulation time: 0 hr 5 min 23 sec) 
Heartbeat CPU 0 instructions: 19000002 cycles: 6300087 heartbeat IPC: 3.02368 cumulative IPC: 3.01583 (Simulation time: 0 hr 5 min 41 sec) 
Heartbeat CPU 0 instructions: 20000000 cycles: 6630808 heartbeat IPC: 3.02369 cumulative IPC: 3.01622 (Simulation time: 0 hr 5 min 59 sec) 
Heartbeat CPU 0 instructions: 21000003 cycles: 6961531 heartbeat IPC: 3.02369 cumulative IPC: 3.01658 (Simulation time: 0 hr 6 min 18 sec) 
Heartbeat CPU 0 instructions: 22000002 cycles: 7292253 heartbeat IPC: 3.02368 cumulative IPC: 3.0169 (Simulation time: 0 hr 6 min 36 sec) 
Heartbeat CPU 0 instructions: 23000000 cycles: 7622968 heartbeat IPC: 3.02375 cumulative IPC: 3.0172 (Simulation time: 0 hr 6 min 53 sec) 
Heartbeat CPU 0 instructions: 24000000 cycles: 7953674 heartbeat IPC: 3.02383 cumulative IPC: 3.01747 (Simulation time: 0 hr 7 min 12 sec) 
Heartbeat CPU 0 instructions: 25000000 cycles: 8284379 heartbeat IPC: 3.02384 cumulative IPC: 3.01773 (Simulation time: 0 hr 7 min 30 sec) 
Heartbeat CPU 0 instructions: 26000002 cycles: 8675744 heartbeat IPC: 2.55516 cumulative IPC: 2.99686 (Simulation time: 0 hr 7 min 55 sec) 
Heartbeat CPU 0 instructions: 27000000 cycles: 9096050 heartbeat IPC: 2.37921 cumulative IPC: 2.96832 (Simulation time: 0 hr 8 min 24 sec) 
Heartbeat CPU 0 instructions: 28000000 cycles: 9516352 heartbeat IPC: 2.37924 cumulative IPC: 2.9423 (Simulation time: 0 hr 8 min 54 sec) 
Heartbeat CPU 0 instructions: 29000002 cycles: 9936683 heartbeat IPC: 2.37908 cumulative IPC: 2.91848 (Simulation time: 0 hr 9 min 21 sec) 
Heartbeat CPU 0 instructions: 30000002 cycles: 10356994 heartbeat IPC: 2.37919 cumulative IPC: 2.89659 (Simulation time: 0 hr 9 min 49 sec) 
Heartbeat CPU 0 instructions: 31000000 cycles: 10777300 heartbeat IPC: 2.37921 cumulative IPC: 2.87642 (Simulation time: 0 hr 10 min 18 sec) 
Heartbeat CPU 0 instructions: 32000000 cycles: 11197602 heartbeat IPC: 2.37924 cumulative IPC: 2.85775 (Simulation time: 0 hr 10 min 46 sec) 
Heartbeat CPU 0 instructions: 33000002 cycles: 11617933 heartbeat IPC: 2.37908 cumulative IPC: 2.84044 (Simulation time: 0 hr 11 min 15 sec) 
Heartbeat CPU 0 instructions: 34000002 cycles: 12038244 heartbeat IPC: 2.37919 cumulative IPC: 2.82433 (Simulation time: 0 hr 11 min 43 sec) 
Heartbeat CPU 0 instructions: 35000000 cycles: 12458550 heartbeat IPC: 2.37921 cumulative IPC: 2.80932 (Simulation time: 0 hr 12 min 11 sec) 
Heartbeat CPU 0 instructions: 36000000 cycles: 12862260 heartbeat IPC: 2.47703 cumulative IPC: 2.79889 (Simulation time: 0 hr 12 min 37 sec) 
Heartbeat CPU 0 instructions: 37000001 cycles: 13195593 heartbeat IPC: 3.00001 cumulative IPC: 2.80397 (Simulation time: 0 hr 12 min 55 sec) 
Heartbeat CPU 0 instructions: 38000000 cycles: 13528926 heartbeat IPC: 3 cumulative IPC: 2.8088 (Simulation time: 0 hr 13 min 14 sec) 
Heartbeat CPU 0 instructions: 39000003 cycles: 13862260 heartbeat IPC: 3 cumulative IPC: 2.81339 (Simulation time: 0 hr 13 min 32 sec) 
Heartbeat CPU 0 instructions: 40000000 cycles: 14195593 heartbeat IPC: 2.99999 cumulative IPC: 2.81778 (Simulation time: 0 hr 13 min 49 sec) 
Heartbeat CPU 0 instructions: 41000001 cycles: 14528926 heartbeat IPC: 3.00001 cumulative IPC: 2.82196 (Simulation time: 0 hr 14 min 7 sec) 
Heartbeat CPU 0 instructions: 42000000 cycles: 14862259 heartbeat IPC: 3 cumulative IPC: 2.82595 (Simulation time: 0 hr 14 min 24 sec) 
Heartbeat CPU 0 instructions: 43000001 cycles: 15195593 heartbeat IPC: 3 cumulative IPC: 2.82977 (Simulation time: 0 hr 14 min 42 sec) 
Heartbeat CPU 0 instructions: 44000000 cycles: 15528926 heartbeat IPC: 3 cumulative IPC: 2.83342 (Simulation time: 0 hr 15 min 2 sec) 
Heartbeat CPU 0 instructions: 45000002 cycles: 15862260 heartbeat IPC: 3 cumulative IPC: 2.83692 (Simulation time: 0 hr 15 min 20 sec) 
Heartbeat CPU 0 instructions: 46000001 cycles: 16195593 heartbeat IPC: 3 cumulative IPC: 2.84028 (Simulation time: 0 hr 15 min 37 sec) 
Heartbeat CPU 0 instructions: 47000000 cycles: 16528926 heartbeat IPC: 3 cumulative IPC: 2.8435 (Simulation time: 0 hr 15 min 53 sec) 
Heartbeat CPU 0 instructions: 48000000 cycles: 16862260 heartbeat IPC: 2.99999 cumulative IPC: 2.84659 (Simulation time: 0 hr 16 min 11 sec) 
Heartbeat CPU 0 instructions: 49000003 cycles: 17195596 heartbeat IPC: 2.99998 cumulative IPC: 2.84957 (Simulation time: 0 hr 16 min 31 sec) 
Heartbeat CPU 0 instructions: 50000001 cycles: 17528926 heartbeat IPC: 3.00002 cumulative IPC: 2.85243 (Simulation time: 0 hr 16 min 49 sec) 

Warmup complete CPU 0 instructions: 50000001 cycles: 17528926 (Simulation time: 0 hr 16 min 49 sec) 

Heartbeat CPU 0 instructions: 51000000 cycles: 19016036 heartbeat IPC: 0.672445 cumulative IPC: 0.672445 (Simulation time: 0 hr 17 min 21 sec) 
Heartbeat CPU 0 instructions: 52000000 cycles: 20482301 heartbeat IPC: 0.682005 cumulative IPC: 0.677191 (Simulation time: 0 hr 17 min 51 sec) 
Heartbeat CPU 0 instructions: 53000000 cycles: 21945426 heartbeat IPC: 0.683469 cumulative IPC: 0.679271 (Simulation time: 0 hr 18 min 20 sec) 
Heartbeat CPU 0 instructions: 54000002 cycles: 23174338 heartbeat IPC: 0.81373 cumulative IPC: 0.70854 (Simulation time: 0 hr 18 min 52 sec) 
Heartbeat CPU 0 instructions: 55000002 cycles: 24349519 heartbeat IPC: 0.850933 cumulative IPC: 0.733074 (Simulation time: 0 hr 19 min 23 sec) 
Heartbeat CPU 0 instructions: 56000000 cycles: 26091943 heartbeat IPC: 0.573912 cumulative IPC: 0.700688 (Simulation time: 0 hr 19 min 55 sec) 
Heartbeat CPU 0 instructions: 57000001 cycles: 27845480 heartbeat IPC: 0.570277 cumulative IPC: 0.678521 (Simulation time: 0 hr 20 min 25 sec) 
Heartbeat CPU 0 instructions: 58000000 cycles: 29594948 heartbeat IPC: 0.571602 cumulative IPC: 0.663019 (Simulation time: 0 hr 20 min 55 sec) 
Heartbeat CPU 0 instructions: 59000003 cycles: 31345788 heartbeat IPC: 0.571156 cumulative IPC: 0.651378 (Simulation time: 0 hr 21 min 23 sec) 
Heartbeat CPU 0 instructions: 60000000 cycles: 33093208 heartbeat IPC: 0.572271 cumulative IPC: 0.642497 (Simulation time: 0 hr 21 min 55 sec) 
Heartbeat CPU 0 instructions: 61000002 cycles: 34843222 heartbeat IPC: 0.571425 cumulative IPC: 0.635313 (Simulation time: 0 hr 22 min 26 sec) 
Heartbeat CPU 0 instructions: 62000001 cycles: 36596331 heartbeat IPC: 0.570415 cumulative IPC: 0.629346 (Simulation time: 0 hr 22 min 57 sec) 
Heartbeat CPU 0 instructions: 63000001 cycles: 38344264 heartbeat IPC: 0.572104 cumulative IPC: 0.624539 (Simulation time: 0 hr 23 min 24 sec) 
Heartbeat CPU 0 instructions: 64000000 cycles: 40099400 heartbeat IPC: 0.569756 cumulative IPC: 0.620279 (Simulation time: 0 hr 23 min 54 sec) 
Heartbeat CPU 0 instructions: 65000002 cycles: 41851285 heartbeat IPC: 0.570815 cumulative IPC: 0.616717 (Simulation time: 0 hr 24 min 22 sec) 
Heartbeat CPU 0 instructions: 66000002 cycles: 43598597 heartbeat IPC: 0.572308 cumulative IPC: 0.61374 (Simulation time: 0 hr 24 min 50 sec) 
Heartbeat CPU 0 instructions: 67000000 cycles: 45348525 heartbeat IPC: 0.571451 cumulative IPC: 0.61108 (Simulation time: 0 hr 25 min 19 sec) 
Heartbeat CPU 0 instructions: 68000000 cycles: 47100191 heartbeat IPC: 0.570885 cumulative IPC: 0.608699 (Simulation time: 0 hr 25 min 48 sec) 
Heartbeat CPU 0 instructions: 69000000 cycles: 48853214 heartbeat IPC: 0.570443 cumulative IPC: 0.606558 (Simulation time: 0 hr 26 min 17 sec) 
Heartbeat CPU 0 instructions: 70000002 cycles: 50595161 heartbeat IPC: 0.574071 cumulative IPC: 0.604847 (Simulation time: 0 hr 26 min 46 sec) 
Heartbeat CPU 0 instructions: 71000001 cycles: 52347542 heartbeat IPC: 0.570652 cumulative IPC: 0.603126 (Simulation time: 0 hr 27 min 17 sec) 
Heartbeat CPU 0 instructions: 72000000 cycles: 54084515 heartbeat IPC: 0.575714 cumulative IPC: 0.601823 (Simulation time: 0 hr 27 min 48 sec) 
Heartbeat CPU 0 instructions: 73000000 cycles: 55510268 heartbeat IPC: 0.701384 cumulative IPC: 0.60556 (Simulation time: 0 hr 28 min 15 sec) 
Heartbeat CPU 0 instructions: 74000000 cycles: 56921320 heartbeat IPC: 0.708691 cumulative IPC: 0.609255 (Simulation time: 0 hr 28 min 46 sec) 
Heartbeat CPU 0 instructions: 75000000 cycles: 59501228 heartbeat IPC: 0.387611 cumulative IPC: 0.595631 (Simulation time: 0 hr 29 min 30 sec) 
Heartbeat CPU 0 instructions: 76000000 cycles: 62130000 heartbeat IPC: 0.380406 cumulative IPC: 0.582946 (Simulation time: 0 hr 30 min 8 sec) 
Heartbeat CPU 0 instructions: 77000000 cycles: 64753389 heartbeat IPC: 0.381186 cumulative IPC: 0.571738 (Simulation time: 0 hr 30 min 47 sec) 
Heartbeat CPU 0 instructions: 78000000 cycles: 67380890 heartbeat IPC: 0.38059 cumulative IPC: 0.561663 (Simulation time: 0 hr 31 min 26 sec) 
Heartbeat CPU 0 instructions: 79000000 cycles: 69999648 heartbeat IPC: 0.38186 cumulative IPC: 0.552689 (Simulation time: 0 hr 32 min 7 sec) 
Heartbeat CPU 0 instructions: 80000000 cycles: 72440722 heartbeat IPC: 0.409656 cumulative IPC: 0.546331 (Simulation time: 0 hr 32 min 47 sec) 
Heartbeat CPU 0 instructions: 81000000 cycles: 74775969 heartbeat IPC: 0.42822 cumulative IPC: 0.541513 (Simulation time: 0 hr 33 min 25 sec) 
Heartbeat CPU 0 instructions: 82000000 cycles: 77091980 heartbeat IPC: 0.431777 cumulative IPC: 0.537246 (Simulation time: 0 hr 34 min 2 sec) 
Heartbeat CPU 0 instructions: 83000000 cycles: 79428439 heartbeat IPC: 0.427998 cumulative IPC: 0.533122 (Simulation time: 0 hr 34 min 40 sec) 
Heartbeat CPU 0 instructions: 84000000 cycles: 81678076 heartbeat IPC: 0.444516 cumulative IPC: 0.530015 (Simulation time: 0 hr 35 min 17 sec) 
Heartbeat CPU 0 instructions: 85000001 cycles: 83351633 heartbeat IPC: 0.59753 cumulative IPC: 0.531731 (Simulation time: 0 hr 35 min 50 sec) 
Heartbeat CPU 0 instructions: 86000000 cycles: 84862144 heartbeat IPC: 0.662027 cumulative IPC: 0.534654 (Simulation time: 0 hr 36 min 21 sec) 
Heartbeat CPU 0 instructions: 87000003 cycles: 86372110 heartbeat IPC: 0.662269 cumulative IPC: 0.537453 (Simulation time: 0 hr 36 min 51 sec) 
Heartbeat CPU 0 instructions: 88000000 cycles: 87881719 heartbeat IPC: 0.662421 cumulative IPC: 0.540135 (Simulation time: 0 hr 37 min 22 sec) 
Heartbeat CPU 0 instructions: 89000001 cycles: 89391220 heartbeat IPC: 0.662471 cumulative IPC: 0.542705 (Simulation time: 0 hr 37 min 53 sec) 
Heartbeat CPU 0 instructions: 90000000 cycles: 90900877 heartbeat IPC: 0.662401 cumulative IPC: 0.545167 (Simulation time: 0 hr 38 min 28 sec) 
Heartbeat CPU 0 instructions: 91000001 cycles: 92410419 heartbeat IPC: 0.662453 cumulative IPC: 0.547532 (Simulation time: 0 hr 38 min 58 sec) 
Heartbeat CPU 0 instructions: 92000000 cycles: 93919916 heartbeat IPC: 0.662472 cumulative IPC: 0.549803 (Simulation time: 0 hr 39 min 30 sec) 
Heartbeat CPU 0 instructions: 93000002 cycles: 95418487 heartbeat IPC: 0.667304 cumulative IPC: 0.552064 (Simulation time: 0 hr 40 min 1 sec) 
Heartbeat CPU 0 instructions: 94000001 cycles: 96778649 heartbeat IPC: 0.735206 cumulative IPC: 0.555207 (Simulation time: 0 hr 40 min 32 sec) 
Heartbeat CPU 0 instructions: 95000000 cycles: 98230988 heartbeat IPC: 0.688544 cumulative IPC: 0.557607 (Simulation time: 0 hr 41 min 5 sec) 
Heartbeat CPU 0 instructions: 96000000 cycles: 99740982 heartbeat IPC: 0.662254 cumulative IPC: 0.559529 (Simulation time: 0 hr 41 min 36 sec) 
Heartbeat CPU 0 instructions: 97000002 cycles: 101251028 heartbeat IPC: 0.662233 cumulative IPC: 0.561381 (Simulation time: 0 hr 42 min 9 sec) 
Heartbeat CPU 0 instructions: 98000001 cycles: 102760766 heartbeat IPC: 0.662366 cumulative IPC: 0.56317 (Simulation time: 0 hr 42 min 42 sec) 
Heartbeat CPU 0 instructions: 99000000 cycles: 104244448 heartbeat IPC: 0.673998 cumulative IPC: 0.565066 (Simulation time: 0 hr 43 min 14 sec) 
Heartbeat CPU 0 instructions: 100000000 cycles: 105738361 heartbeat IPC: 0.669383 cumulative IPC: 0.566833 (Simulation time: 0 hr 43 min 47 sec) 
Heartbeat CPU 0 instructions: 101000000 cycles: 107248213 heartbeat IPC: 0.662317 cumulative IPC: 0.56844 (Simulation time: 0 hr 44 min 19 sec) 
Heartbeat CPU 0 instructions: 102000002 cycles: 108753141 heartbeat IPC: 0.664485 cumulative IPC: 0.570024 (Simulation time: 0 hr 44 min 50 sec) 
Heartbeat CPU 0 instructions: 103000001 cycles: 110231654 heartbeat IPC: 0.676355 cumulative IPC: 0.57172 (Simulation time: 0 hr 45 min 20 sec) 
Heartbeat CPU 0 instructions: 104000000 cycles: 112474106 heartbeat IPC: 0.44594 cumulative IPC: 0.568749 (Simulation time: 0 hr 45 min 57 sec) 
Heartbeat CPU 0 instructions: 105000000 cycles: 114817880 heartbeat IPC: 0.426662 cumulative IPC: 0.565326 (Simulation time: 0 hr 46 min 35 sec) 
Heartbeat CPU 0 instructions: 106000000 cycles: 117174469 heartbeat IPC: 0.424342 cumulative IPC: 0.561992 (Simulation time: 0 hr 47 min 13 sec) 
Heartbeat CPU 0 instructions: 107000000 cycles: 119544882 heartbeat IPC: 0.421867 cumulative IPC: 0.558736 (Simulation time: 0 hr 47 min 51 sec) 
Heartbeat CPU 0 instructions: 108000000 cycles: 121884933 heartbeat IPC: 0.427341 cumulative IPC: 0.55579 (Simulation time: 0 hr 48 min 29 sec) 
Heartbeat CPU 0 instructions: 109000000 cycles: 123979283 heartbeat IPC: 0.477475 cumulative IPC: 0.554249 (Simulation time: 0 hr 49 min 8 sec) 
Heartbeat CPU 0 instructions: 110000000 cycles: 126311764 heartbeat IPC: 0.428728 cumulative IPC: 0.551558 (Simulation time: 0 hr 49 min 47 sec) 
Heartbeat CPU 0 instructions: 111000000 cycles: 128654622 heartbeat IPC: 0.426829 cumulative IPC: 0.548928 (Simulation time: 0 hr 50 min 31 sec) 
Heartbeat CPU 0 instructions: 112000000 cycles: 131018640 heartbeat IPC: 0.423009 cumulative IPC: 0.546305 (Simulation time: 0 hr 51 min 10 sec) 
Heartbeat CPU 0 instructions: 113000000 cycles: 133359625 heartbeat IPC: 0.427171 cumulative IPC: 0.543897 (Simulation time: 0 hr 51 min 50 sec) 
Heartbeat CPU 0 instructions: 114000002 cycles: 135413852 heartbeat IPC: 0.486802 cumulative IPC: 0.542902 (Simulation time: 0 hr 52 min 24 sec) 
Heartbeat CPU 0 instructions: 115000001 cycles: 137166039 heartbeat IPC: 0.570715 cumulative IPC: 0.54331 (Simulation time: 0 hr 52 min 52 sec) 
Heartbeat CPU 0 instructions: 116000000 cycles: 138910264 heartbeat IPC: 0.57332 cumulative IPC: 0.543741 (Simulation time: 0 hr 53 min 20 sec) 
Heartbeat CPU 0 instructions: 117000002 cycles: 140659835 heartbeat IPC: 0.57157 cumulative IPC: 0.544136 (Simulation time: 0 hr 53 min 50 sec) 
Heartbeat CPU 0 instructions: 118000002 cycles: 142403647 heartbeat IPC: 0.573456 cumulative IPC: 0.544546 (Simulation time: 0 hr 54 min 19 sec) 
Heartbeat CPU 0 instructions: 119000002 cycles: 144150530 heartbeat IPC: 0.572448 cumulative IPC: 0.544931 (Simulation time: 0 hr 54 min 49 sec) 
Heartbeat CPU 0 instructions: 120000000 cycles: 145897782 heartbeat IPC: 0.572326 cumulative IPC: 0.545304 (Simulation time: 0 hr 55 min 19 sec) 
Heartbeat CPU 0 instructions: 121000000 cycles: 147641448 heartbeat IPC: 0.573504 cumulative IPC: 0.545682 (Simulation time: 0 hr 55 min 50 sec) 
Heartbeat CPU 0 instructions: 122000001 cycles: 149368133 heartbeat IPC: 0.579145 cumulative IPC: 0.54612 (Simulation time: 0 hr 56 min 20 sec) 
Heartbeat CPU 0 instructions: 123000000 cycles: 151000585 heartbeat IPC: 0.612575 cumulative IPC: 0.546933 (Simulation time: 0 hr 56 min 54 sec) 
Heartbeat CPU 0 instructions: 124000000 cycles: 152557538 heartbeat IPC: 0.64228 cumulative IPC: 0.548032 (Simulation time: 0 hr 57 min 25 sec) 
Heartbeat CPU 0 instructions: 125000001 cycles: 154306097 heartbeat IPC: 0.5719 cumulative IPC: 0.548337 (Simulation time: 0 hr 57 min 59 sec) 
Heartbeat CPU 0 instructions: 126000000 cycles: 156059242 heartbeat IPC: 0.570403 cumulative IPC: 0.548616 (Simulation time: 0 hr 58 min 31 sec) 
Heartbeat CPU 0 instructions: 127000003 cycles: 157806087 heartbeat IPC: 0.572462 cumulative IPC: 0.548913 (Simulation time: 0 hr 59 min 2 sec) 
Heartbeat CPU 0 instructions: 128000000 cycles: 159553361 heartbeat IPC: 0.572318 cumulative IPC: 0.549201 (Simulation time: 0 hr 59 min 35 sec) 
Heartbeat CPU 0 instructions: 129000000 cycles: 161297859 heartbeat IPC: 0.573231 cumulative IPC: 0.549493 (Simulation time: 1 hr 0 min 3 sec) 
Heartbeat CPU 0 instructions: 130000001 cycles: 163046868 heartbeat IPC: 0.571753 cumulative IPC: 0.54976 (Simulation time: 1 hr 0 min 39 sec) 
Heartbeat CPU 0 instructions: 131000000 cycles: 164796481 heartbeat IPC: 0.571554 cumulative IPC: 0.550019 (Simulation time: 1 hr 1 min 11 sec) 
Heartbeat CPU 0 instructions: 132000000 cycles: 166496515 heartbeat IPC: 0.588224 cumulative IPC: 0.550455 (Simulation time: 1 hr 1 min 45 sec) 
Heartbeat CPU 0 instructions: 133000000 cycles: 168367713 heartbeat IPC: 0.534417 cumulative IPC: 0.550256 (Simulation time: 1 hr 2 min 22 sec) 
Heartbeat CPU 0 instructions: 134000000 cycles: 170685211 heartbeat IPC: 0.4315 cumulative IPC: 0.548459 (Simulation time: 1 hr 3 min 2 sec) 
Heartbeat CPU 0 instructions: 135000000 cycles: 173008197 heartbeat IPC: 0.43048 cumulative IPC: 0.546697 (Simulation time: 1 hr 3 min 46 sec) 
Heartbeat CPU 0 instructions: 136000000 cycles: 175325746 heartbeat IPC: 0.43149 cumulative IPC: 0.545005 (Simulation time: 1 hr 4 min 31 sec) 
Heartbeat CPU 0 instructions: 137000000 cycles: 177656465 heartbeat IPC: 0.429052 cumulative IPC: 0.543317 (Simulation time: 1 hr 5 min 12 sec) 
Heartbeat CPU 0 instructions: 138000000 cycles: 179770630 heartbeat IPC: 0.473 cumulative IPC: 0.542401 (Simulation time: 1 hr 5 min 48 sec) 
Heartbeat CPU 0 instructions: 139000000 cycles: 181963147 heartbeat IPC: 0.456097 cumulative IPC: 0.54125 (Simulation time: 1 hr 6 min 34 sec) 
Heartbeat CPU 0 instructions: 140000000 cycles: 184268689 heartbeat IPC: 0.433737 cumulative IPC: 0.539763 (Simulation time: 1 hr 7 min 12 sec) 
Heartbeat CPU 0 instructions: 141000000 cycles: 186576155 heartbeat IPC: 0.433376 cumulative IPC: 0.538311 (Simulation time: 1 hr 7 min 52 sec) 
Heartbeat CPU 0 instructions: 142000000 cycles: 188890158 heartbeat IPC: 0.432152 cumulative IPC: 0.536878 (Simulation time: 1 hr 8 min 31 sec) 
Heartbeat CPU 0 instructions: 143000000 cycles: 191038884 heartbeat IPC: 0.465392 cumulative IPC: 0.535992 (Simulation time: 1 hr 9 min 11 sec) 
Heartbeat CPU 0 instructions: 144000000 cycles: 192860982 heartbeat IPC: 0.548818 cumulative IPC: 0.536126 (Simulation time: 1 hr 9 min 40 sec) 
Heartbeat CPU 0 instructions: 145000002 cycles: 194610749 heartbeat IPC: 0.571506 cumulative IPC: 0.536475 (Simulation time: 1 hr 10 min 11 sec) 
Heartbeat CPU 0 instructions: 146000001 cycles: 196356149 heartbeat IPC: 0.572934 cumulative IPC: 0.536831 (Simulation time: 1 hr 10 min 39 sec) 
Heartbeat CPU 0 instructions: 147000000 cycles: 198099185 heartbeat IPC: 0.573711 cumulative IPC: 0.537187 (Simulation time: 1 hr 11 min 5 sec) 
Heartbeat CPU 0 instructions: 148000000 cycles: 199846849 heartbeat IPC: 0.572192 cumulative IPC: 0.537523 (Simulation time: 1 hr 11 min 34 sec) 
Heartbeat CPU 0 instructions: 149000002 cycles: 201587791 heartbeat IPC: 0.574403 cumulative IPC: 0.537871 (Simulation time: 1 hr 12 min 2 sec) 
Heartbeat CPU 0 instructions: 150000000 cycles: 203329555 heartbeat IPC: 0.574129 cumulative IPC: 0.538211 (Simulation time: 1 hr 12 min 34 sec) 
Finished CPU 0 instructions: 100000001 cycles: 185800630 cummulative IPC: 0.538211 (Simulation time: 1 hr 12 min 34 sec) 

ChampSim completed all CPUs

Region of Interest Statistics

CPU 0 cummulative IPC: 0.538211 instructions: 100000001 cycles: 185800630
LLC TOTAL     ACCESS:    5216164  HIT:     460759  MISS:    4755405
LLC LOAD      ACCESS:    1221770  HIT:      72405  MISS:    1149365
LLC RFO       ACCESS:         28  HIT:         25  MISS:          3
LLC PREFETCH  ACCESS:    2245313  HIT:     122883  MISS:    2122430
LLC WRITEBACK ACCESS:    1749053  HIT:     265446  MISS:    1483607
OPTgen accesses: 20814
OPTgen hits: 221
OPTgen hit rate: 1.06179


