
*** ChampSim Multicore Out-of-Order Simulator ***

Warmup Instructions: 50000000
Simulation Instructions: 100000000
Configuration: 2
Number of CPUs: 1
LLC sets: 2048
LLC ways: 16
Off-chip DRAM Channels: 1 Width: 64-bit Data Rate: 1600 MT/s

CPU 0 runs /datasets/cs240c-wi22-a00-public/data/Assignment2-gz/lbm_94B.trace.gz
CPU 0 L1D next line prefetcher
CPU 0 L2C IP-based stride prefetcher
Initialize Hawkeye state
Heartbeat CPU 0 instructions: 1000000 cycles: 422068 heartbeat IPC: 2.36929 cumulative IPC: 2.36929 (Simulation time: 0 hr 0 min 31 sec) 
Heartbeat CPU 0 instructions: 2000000 cycles: 812399 heartbeat IPC: 2.56193 cumulative IPC: 2.46184 (Simulation time: 0 hr 1 min 1 sec) 
Heartbeat CPU 0 instructions: 3000000 cycles: 1211539 heartbeat IPC: 2.50539 cumulative IPC: 2.47619 (Simulation time: 0 hr 1 min 28 sec) 
Heartbeat CPU 0 instructions: 4000000 cycles: 1631528 heartbeat IPC: 2.38101 cumulative IPC: 2.45169 (Simulation time: 0 hr 1 min 57 sec) 
Heartbeat CPU 0 instructions: 5000001 cycles: 2021787 heartbeat IPC: 2.5624 cumulative IPC: 2.47306 (Simulation time: 0 hr 2 min 24 sec) 
Heartbeat CPU 0 instructions: 6000000 cycles: 2422466 heartbeat IPC: 2.49576 cumulative IPC: 2.47681 (Simulation time: 0 hr 2 min 52 sec) 
Heartbeat CPU 0 instructions: 7000001 cycles: 2840598 heartbeat IPC: 2.39159 cumulative IPC: 2.46427 (Simulation time: 0 hr 3 min 20 sec) 
Heartbeat CPU 0 instructions: 8000000 cycles: 3230808 heartbeat IPC: 2.56272 cumulative IPC: 2.47616 (Simulation time: 0 hr 3 min 47 sec) 
Heartbeat CPU 0 instructions: 9000003 cycles: 3631834 heartbeat IPC: 2.49361 cumulative IPC: 2.47809 (Simulation time: 0 hr 4 min 14 sec) 
Heartbeat CPU 0 instructions: 10000000 cycles: 4048406 heartbeat IPC: 2.40054 cumulative IPC: 2.47011 (Simulation time: 0 hr 4 min 42 sec) 
Heartbeat CPU 0 instructions: 11000003 cycles: 4438595 heartbeat IPC: 2.56287 cumulative IPC: 2.47826 (Simulation time: 0 hr 5 min 8 sec) 
Heartbeat CPU 0 instructions: 12000000 cycles: 4839136 heartbeat IPC: 2.49662 cumulative IPC: 2.47978 (Simulation time: 0 hr 5 min 39 sec) 
Heartbeat CPU 0 instructions: 13000000 cycles: 5254528 heartbeat IPC: 2.40736 cumulative IPC: 2.47406 (Simulation time: 0 hr 6 min 8 sec) 
Heartbeat CPU 0 instructions: 14000003 cycles: 5644781 heartbeat IPC: 2.56245 cumulative IPC: 2.48017 (Simulation time: 0 hr 6 min 35 sec) 
Heartbeat CPU 0 instructions: 15000001 cycles: 6045167 heartbeat IPC: 2.49758 cumulative IPC: 2.48132 (Simulation time: 0 hr 7 min 5 sec) 
Heartbeat CPU 0 instructions: 16000000 cycles: 6459561 heartbeat IPC: 2.41316 cumulative IPC: 2.47695 (Simulation time: 0 hr 7 min 34 sec) 
Heartbeat CPU 0 instructions: 17000001 cycles: 6849809 heartbeat IPC: 2.56248 cumulative IPC: 2.48182 (Simulation time: 0 hr 7 min 59 sec) 
Heartbeat CPU 0 instructions: 18000001 cycles: 7248671 heartbeat IPC: 2.50713 cumulative IPC: 2.48321 (Simulation time: 0 hr 8 min 26 sec) 
Heartbeat CPU 0 instructions: 19000000 cycles: 7663216 heartbeat IPC: 2.41228 cumulative IPC: 2.47938 (Simulation time: 0 hr 8 min 55 sec) 
Heartbeat CPU 0 instructions: 20000000 cycles: 8053488 heartbeat IPC: 2.56232 cumulative IPC: 2.4834 (Simulation time: 0 hr 9 min 22 sec) 
Heartbeat CPU 0 instructions: 21000003 cycles: 8451571 heartbeat IPC: 2.51205 cumulative IPC: 2.48475 (Simulation time: 0 hr 9 min 56 sec) 
Heartbeat CPU 0 instructions: 22000000 cycles: 8865752 heartbeat IPC: 2.4144 cumulative IPC: 2.48146 (Simulation time: 0 hr 10 min 28 sec) 
Heartbeat CPU 0 instructions: 23000000 cycles: 9255920 heartbeat IPC: 2.563 cumulative IPC: 2.4849 (Simulation time: 0 hr 10 min 56 sec) 
Heartbeat CPU 0 instructions: 24000000 cycles: 9651983 heartbeat IPC: 2.52485 cumulative IPC: 2.48654 (Simulation time: 0 hr 11 min 26 sec) 
Heartbeat CPU 0 instructions: 25000000 cycles: 10065644 heartbeat IPC: 2.41744 cumulative IPC: 2.4837 (Simulation time: 0 hr 11 min 59 sec) 
Heartbeat CPU 0 instructions: 26000003 cycles: 10455888 heartbeat IPC: 2.56251 cumulative IPC: 2.48664 (Simulation time: 0 hr 12 min 28 sec) 
Heartbeat CPU 0 instructions: 27000002 cycles: 10850945 heartbeat IPC: 2.53128 cumulative IPC: 2.48826 (Simulation time: 0 hr 12 min 57 sec) 
Heartbeat CPU 0 instructions: 28000000 cycles: 11264385 heartbeat IPC: 2.41873 cumulative IPC: 2.48571 (Simulation time: 0 hr 13 min 27 sec) 
Heartbeat CPU 0 instructions: 29000000 cycles: 11654569 heartbeat IPC: 2.56289 cumulative IPC: 2.48829 (Simulation time: 0 hr 13 min 56 sec) 
Heartbeat CPU 0 instructions: 30000000 cycles: 12049619 heartbeat IPC: 2.53133 cumulative IPC: 2.48971 (Simulation time: 0 hr 14 min 27 sec) 
Heartbeat CPU 0 instructions: 31000003 cycles: 12460553 heartbeat IPC: 2.43349 cumulative IPC: 2.48785 (Simulation time: 0 hr 15 min 1 sec) 
Heartbeat CPU 0 instructions: 32000000 cycles: 12850836 heartbeat IPC: 2.56224 cumulative IPC: 2.49011 (Simulation time: 0 hr 15 min 30 sec) 
Heartbeat CPU 0 instructions: 33000002 cycles: 13245958 heartbeat IPC: 2.53087 cumulative IPC: 2.49133 (Simulation time: 0 hr 15 min 58 sec) 
Heartbeat CPU 0 instructions: 34000003 cycles: 13653500 heartbeat IPC: 2.45374 cumulative IPC: 2.4902 (Simulation time: 0 hr 16 min 28 sec) 
Heartbeat CPU 0 instructions: 35000002 cycles: 14045165 heartbeat IPC: 2.5532 cumulative IPC: 2.49196 (Simulation time: 0 hr 16 min 56 sec) 
Heartbeat CPU 0 instructions: 36000000 cycles: 14440188 heartbeat IPC: 2.53149 cumulative IPC: 2.49304 (Simulation time: 0 hr 17 min 25 sec) 
Heartbeat CPU 0 instructions: 37000003 cycles: 14842401 heartbeat IPC: 2.48625 cumulative IPC: 2.49286 (Simulation time: 0 hr 17 min 54 sec) 
Heartbeat CPU 0 instructions: 38000002 cycles: 15236923 heartbeat IPC: 2.53471 cumulative IPC: 2.49394 (Simulation time: 0 hr 18 min 22 sec) 
Heartbeat CPU 0 instructions: 39000000 cycles: 15627135 heartbeat IPC: 2.5627 cumulative IPC: 2.49566 (Simulation time: 0 hr 18 min 50 sec) 
Heartbeat CPU 0 instructions: 40000000 cycles: 16027448 heartbeat IPC: 2.49805 cumulative IPC: 2.49572 (Simulation time: 0 hr 19 min 18 sec) 
Heartbeat CPU 0 instructions: 41000003 cycles: 16426116 heartbeat IPC: 2.50836 cumulative IPC: 2.49603 (Simulation time: 0 hr 19 min 43 sec) 
Heartbeat CPU 0 instructions: 42000003 cycles: 16816352 heartbeat IPC: 2.56255 cumulative IPC: 2.49757 (Simulation time: 0 hr 20 min 11 sec) 
Heartbeat CPU 0 instructions: 43000003 cycles: 17211605 heartbeat IPC: 2.53003 cumulative IPC: 2.49831 (Simulation time: 0 hr 20 min 39 sec) 
Heartbeat CPU 0 instructions: 44000000 cycles: 17612576 heartbeat IPC: 2.49394 cumulative IPC: 2.49821 (Simulation time: 0 hr 21 min 8 sec) 
Heartbeat CPU 0 instructions: 45000002 cycles: 18002833 heartbeat IPC: 2.56242 cumulative IPC: 2.49961 (Simulation time: 0 hr 21 min 37 sec) 
Heartbeat CPU 0 instructions: 46000001 cycles: 18397984 heartbeat IPC: 2.53068 cumulative IPC: 2.50027 (Simulation time: 0 hr 22 min 8 sec) 
Heartbeat CPU 0 instructions: 47000003 cycles: 18796389 heartbeat IPC: 2.51001 cumulative IPC: 2.50048 (Simulation time: 0 hr 22 min 39 sec) 
Heartbeat CPU 0 instructions: 48000000 cycles: 19186536 heartbeat IPC: 2.56313 cumulative IPC: 2.50175 (Simulation time: 0 hr 23 min 8 sec) 
Heartbeat CPU 0 instructions: 49000000 cycles: 19581614 heartbeat IPC: 2.53115 cumulative IPC: 2.50235 (Simulation time: 0 hr 23 min 40 sec) 
Heartbeat CPU 0 instructions: 50000003 cycles: 19975904 heartbeat IPC: 2.53621 cumulative IPC: 2.50302 (Simulation time: 0 hr 24 min 8 sec) 

Warmup complete CPU 0 instructions: 50000003 cycles: 19975904 (Simulation time: 0 hr 24 min 8 sec) 

Heartbeat CPU 0 instructions: 51000003 cycles: 21380175 heartbeat IPC: 0.712113 cumulative IPC: 0.712113 (Simulation time: 0 hr 24 min 44 sec) 
Heartbeat CPU 0 instructions: 52000000 cycles: 22851718 heartbeat IPC: 0.679557 cumulative IPC: 0.695454 (Simulation time: 0 hr 25 min 19 sec) 
Heartbeat CPU 0 instructions: 53000001 cycles: 24329667 heartbeat IPC: 0.676614 cumulative IPC: 0.689059 (Simulation time: 0 hr 25 min 55 sec) 
Heartbeat CPU 0 instructions: 54000000 cycles: 25739789 heartbeat IPC: 0.709158 cumulative IPC: 0.693976 (Simulation time: 0 hr 26 min 30 sec) 
Heartbeat CPU 0 instructions: 55000003 cycles: 27132969 heartbeat IPC: 0.717784 cumulative IPC: 0.69861 (Simulation time: 0 hr 27 min 8 sec) 
Heartbeat CPU 0 instructions: 56000000 cycles: 28596246 heartbeat IPC: 0.683396 cumulative IPC: 0.696028 (Simulation time: 0 hr 27 min 45 sec) 
Heartbeat CPU 0 instructions: 57000003 cycles: 30053797 heartbeat IPC: 0.686084 cumulative IPC: 0.69459 (Simulation time: 0 hr 28 min 20 sec) 
Heartbeat CPU 0 instructions: 58000003 cycles: 31525963 heartbeat IPC: 0.679271 cumulative IPC: 0.692637 (Simulation time: 0 hr 28 min 55 sec) 
Heartbeat CPU 0 instructions: 59000002 cycles: 33025851 heartbeat IPC: 0.666716 cumulative IPC: 0.689658 (Simulation time: 0 hr 29 min 33 sec) 
Heartbeat CPU 0 instructions: 60000000 cycles: 34445475 heartbeat IPC: 0.70441 cumulative IPC: 0.691105 (Simulation time: 0 hr 30 min 7 sec) 
Heartbeat CPU 0 instructions: 61000000 cycles: 35837469 heartbeat IPC: 0.718394 cumulative IPC: 0.6935 (Simulation time: 0 hr 30 min 41 sec) 
Heartbeat CPU 0 instructions: 62000000 cycles: 37215716 heartbeat IPC: 0.725559 cumulative IPC: 0.696063 (Simulation time: 0 hr 31 min 15 sec) 
Heartbeat CPU 0 instructions: 63000001 cycles: 38687471 heartbeat IPC: 0.679462 cumulative IPC: 0.694757 (Simulation time: 0 hr 31 min 51 sec) 
Heartbeat CPU 0 instructions: 64000000 cycles: 40134084 heartbeat IPC: 0.691269 cumulative IPC: 0.694507 (Simulation time: 0 hr 32 min 27 sec) 
Heartbeat CPU 0 instructions: 65000003 cycles: 41575025 heartbeat IPC: 0.693993 cumulative IPC: 0.694473 (Simulation time: 0 hr 33 min 3 sec) 
Heartbeat CPU 0 instructions: 66000002 cycles: 43059420 heartbeat IPC: 0.673674 cumulative IPC: 0.693135 (Simulation time: 0 hr 33 min 37 sec) 
Heartbeat CPU 0 instructions: 67000002 cycles: 44432476 heartbeat IPC: 0.728302 cumulative IPC: 0.69511 (Simulation time: 0 hr 34 min 10 sec) 
Heartbeat CPU 0 instructions: 68000000 cycles: 45791119 heartbeat IPC: 0.736027 cumulative IPC: 0.697263 (Simulation time: 0 hr 34 min 42 sec) 
Heartbeat CPU 0 instructions: 69000000 cycles: 47215280 heartbeat IPC: 0.702168 cumulative IPC: 0.69752 (Simulation time: 0 hr 35 min 16 sec) 
Heartbeat CPU 0 instructions: 70000001 cycles: 48675982 heartbeat IPC: 0.684603 cumulative IPC: 0.696862 (Simulation time: 0 hr 35 min 49 sec) 
Heartbeat CPU 0 instructions: 71000001 cycles: 50070709 heartbeat IPC: 0.716986 cumulative IPC: 0.697795 (Simulation time: 0 hr 36 min 23 sec) 
Heartbeat CPU 0 instructions: 72000000 cycles: 51470699 heartbeat IPC: 0.71429 cumulative IPC: 0.698528 (Simulation time: 0 hr 36 min 57 sec) 
Heartbeat CPU 0 instructions: 73000001 cycles: 52957969 heartbeat IPC: 0.672374 cumulative IPC: 0.697349 (Simulation time: 0 hr 37 min 33 sec) 
Heartbeat CPU 0 instructions: 74000001 cycles: 54382727 heartbeat IPC: 0.701874 cumulative IPC: 0.697536 (Simulation time: 0 hr 38 min 7 sec) 
Heartbeat CPU 0 instructions: 75000000 cycles: 55785021 heartbeat IPC: 0.713117 cumulative IPC: 0.698146 (Simulation time: 0 hr 38 min 45 sec) 
Heartbeat CPU 0 instructions: 76000000 cycles: 57255654 heartbeat IPC: 0.679979 cumulative IPC: 0.697429 (Simulation time: 0 hr 39 min 25 sec) 
Heartbeat CPU 0 instructions: 77000002 cycles: 58637377 heartbeat IPC: 0.723736 cumulative IPC: 0.69837 (Simulation time: 0 hr 40 min 1 sec) 
Heartbeat CPU 0 instructions: 78000003 cycles: 60035490 heartbeat IPC: 0.71525 cumulative IPC: 0.698959 (Simulation time: 0 hr 40 min 35 sec) 
Heartbeat CPU 0 instructions: 79000000 cycles: 61480416 heartbeat IPC: 0.692075 cumulative IPC: 0.698719 (Simulation time: 0 hr 41 min 11 sec) 
Heartbeat CPU 0 instructions: 80000000 cycles: 62972548 heartbeat IPC: 0.670182 cumulative IPC: 0.697729 (Simulation time: 0 hr 41 min 46 sec) 
Heartbeat CPU 0 instructions: 81000000 cycles: 64419173 heartbeat IPC: 0.691264 cumulative IPC: 0.697518 (Simulation time: 0 hr 42 min 20 sec) 
Heartbeat CPU 0 instructions: 82000000 cycles: 65878989 heartbeat IPC: 0.685018 cumulative IPC: 0.697121 (Simulation time: 0 hr 42 min 56 sec) 
Heartbeat CPU 0 instructions: 83000003 cycles: 67352322 heartbeat IPC: 0.678735 cumulative IPC: 0.696549 (Simulation time: 0 hr 43 min 30 sec) 
Heartbeat CPU 0 instructions: 84000000 cycles: 68699450 heartbeat IPC: 0.742318 cumulative IPC: 0.697815 (Simulation time: 0 hr 44 min 2 sec) 
Heartbeat CPU 0 instructions: 85000001 cycles: 70076214 heartbeat IPC: 0.726342 cumulative IPC: 0.698598 (Simulation time: 0 hr 44 min 34 sec) 
Heartbeat CPU 0 instructions: 86000003 cycles: 71522774 heartbeat IPC: 0.691297 cumulative IPC: 0.698394 (Simulation time: 0 hr 45 min 8 sec) 
Heartbeat CPU 0 instructions: 87000000 cycles: 72928647 heartbeat IPC: 0.7113 cumulative IPC: 0.698736 (Simulation time: 0 hr 45 min 41 sec) 
Heartbeat CPU 0 instructions: 88000000 cycles: 74329678 heartbeat IPC: 0.71376 cumulative IPC: 0.699123 (Simulation time: 0 hr 46 min 16 sec) 
Heartbeat CPU 0 instructions: 89000003 cycles: 75708139 heartbeat IPC: 0.725449 cumulative IPC: 0.699775 (Simulation time: 0 hr 46 min 50 sec) 
Heartbeat CPU 0 instructions: 90000003 cycles: 77171688 heartbeat IPC: 0.683271 cumulative IPC: 0.699352 (Simulation time: 0 hr 47 min 30 sec) 
Heartbeat CPU 0 instructions: 91000002 cycles: 78655400 heartbeat IPC: 0.673985 cumulative IPC: 0.698711 (Simulation time: 0 hr 48 min 17 sec) 
Heartbeat CPU 0 instructions: 92000000 cycles: 80052774 heartbeat IPC: 0.715627 cumulative IPC: 0.699104 (Simulation time: 0 hr 48 min 57 sec) 
Heartbeat CPU 0 instructions: 93000003 cycles: 81494981 heartbeat IPC: 0.693384 cumulative IPC: 0.69897 (Simulation time: 0 hr 49 min 32 sec) 
Heartbeat CPU 0 instructions: 94000001 cycles: 82877954 heartbeat IPC: 0.723078 cumulative IPC: 0.6995 (Simulation time: 0 hr 50 min 6 sec) 
Heartbeat CPU 0 instructions: 95000001 cycles: 84311818 heartbeat IPC: 0.697416 cumulative IPC: 0.699454 (Simulation time: 0 hr 50 min 41 sec) 
Heartbeat CPU 0 instructions: 96000000 cycles: 85785873 heartbeat IPC: 0.6784 cumulative IPC: 0.698982 (Simulation time: 0 hr 51 min 16 sec) 
Heartbeat CPU 0 instructions: 97000000 cycles: 87287917 heartbeat IPC: 0.665759 cumulative IPC: 0.698241 (Simulation time: 0 hr 51 min 51 sec) 
Heartbeat CPU 0 instructions: 98000002 cycles: 88667958 heartbeat IPC: 0.724618 cumulative IPC: 0.698771 (Simulation time: 0 hr 52 min 27 sec) 
Heartbeat CPU 0 instructions: 99000001 cycles: 90043487 heartbeat IPC: 0.726992 cumulative IPC: 0.699325 (Simulation time: 0 hr 53 min 0 sec) 
Heartbeat CPU 0 instructions: 100000000 cycles: 91490424 heartbeat IPC: 0.691114 cumulative IPC: 0.699159 (Simulation time: 0 hr 53 min 36 sec) 
Heartbeat CPU 0 instructions: 101000003 cycles: 92888166 heartbeat IPC: 0.715442 cumulative IPC: 0.699471 (Simulation time: 0 hr 54 min 11 sec) 
Heartbeat CPU 0 instructions: 102000002 cycles: 94257412 heartbeat IPC: 0.730328 cumulative IPC: 0.70004 (Simulation time: 0 hr 54 min 47 sec) 
Heartbeat CPU 0 instructions: 103000000 cycles: 95715336 heartbeat IPC: 0.685905 cumulative IPC: 0.699768 (Simulation time: 0 hr 55 min 26 sec) 
Heartbeat CPU 0 instructions: 104000000 cycles: 97159597 heartbeat IPC: 0.692396 cumulative IPC: 0.69963 (Simulation time: 0 hr 56 min 1 sec) 
Heartbeat CPU 0 instructions: 105000002 cycles: 98586467 heartbeat IPC: 0.700836 cumulative IPC: 0.699651 (Simulation time: 0 hr 56 min 43 sec) 
Heartbeat CPU 0 instructions: 106000001 cycles: 99948836 heartbeat IPC: 0.734015 cumulative IPC: 0.700237 (Simulation time: 0 hr 57 min 20 sec) 
Heartbeat CPU 0 instructions: 107000000 cycles: 101401428 heartbeat IPC: 0.688424 cumulative IPC: 0.700026 (Simulation time: 0 hr 57 min 57 sec) 
Heartbeat CPU 0 instructions: 108000000 cycles: 102866577 heartbeat IPC: 0.682524 cumulative IPC: 0.699717 (Simulation time: 0 hr 58 min 32 sec) 
Heartbeat CPU 0 instructions: 109000002 cycles: 104320581 heartbeat IPC: 0.687757 cumulative IPC: 0.699511 (Simulation time: 0 hr 59 min 7 sec) 
Heartbeat CPU 0 instructions: 110000000 cycles: 105775202 heartbeat IPC: 0.687463 cumulative IPC: 0.699306 (Simulation time: 0 hr 59 min 46 sec) 
Heartbeat CPU 0 instructions: 111000003 cycles: 107157715 heartbeat IPC: 0.723323 cumulative IPC: 0.699687 (Simulation time: 1 hr 0 min 23 sec) 
Heartbeat CPU 0 instructions: 112000000 cycles: 108546673 heartbeat IPC: 0.719962 cumulative IPC: 0.700005 (Simulation time: 1 hr 1 min 3 sec) 
Heartbeat CPU 0 instructions: 113000001 cycles: 110028262 heartbeat IPC: 0.674952 cumulative IPC: 0.699593 (Simulation time: 1 hr 1 min 43 sec) 
Heartbeat CPU 0 instructions: 114000003 cycles: 111465682 heartbeat IPC: 0.695692 cumulative IPC: 0.699532 (Simulation time: 1 hr 2 min 24 sec) 
Heartbeat CPU 0 instructions: 115000003 cycles: 112909784 heartbeat IPC: 0.692472 cumulative IPC: 0.699422 (Simulation time: 1 hr 3 min 3 sec) 
Heartbeat CPU 0 instructions: 116000000 cycles: 114322141 heartbeat IPC: 0.708034 cumulative IPC: 0.699551 (Simulation time: 1 hr 3 min 37 sec) 
Heartbeat CPU 0 instructions: 117000003 cycles: 115761519 heartbeat IPC: 0.694747 cumulative IPC: 0.699479 (Simulation time: 1 hr 4 min 17 sec) 
Heartbeat CPU 0 instructions: 118000003 cycles: 117132391 heartbeat IPC: 0.729463 cumulative IPC: 0.699902 (Simulation time: 1 hr 4 min 53 sec) 
Heartbeat CPU 0 instructions: 119000000 cycles: 118520034 heartbeat IPC: 0.720644 cumulative IPC: 0.700194 (Simulation time: 1 hr 5 min 27 sec) 
Heartbeat CPU 0 instructions: 120000000 cycles: 119996277 heartbeat IPC: 0.677395 cumulative IPC: 0.699857 (Simulation time: 1 hr 6 min 3 sec) 
Heartbeat CPU 0 instructions: 121000002 cycles: 121377574 heartbeat IPC: 0.723959 cumulative IPC: 0.700186 (Simulation time: 1 hr 6 min 38 sec) 
Heartbeat CPU 0 instructions: 122000003 cycles: 122790074 heartbeat IPC: 0.707965 cumulative IPC: 0.700293 (Simulation time: 1 hr 7 min 13 sec) 
Heartbeat CPU 0 instructions: 123000002 cycles: 124219949 heartbeat IPC: 0.699361 cumulative IPC: 0.70028 (Simulation time: 1 hr 7 min 48 sec) 
Heartbeat CPU 0 instructions: 124000000 cycles: 125687552 heartbeat IPC: 0.681382 cumulative IPC: 0.700017 (Simulation time: 1 hr 8 min 21 sec) 
Heartbeat CPU 0 instructions: 125000001 cycles: 127093466 heartbeat IPC: 0.711282 cumulative IPC: 0.700165 (Simulation time: 1 hr 8 min 56 sec) 
Heartbeat CPU 0 instructions: 126000003 cycles: 128514745 heartbeat IPC: 0.703593 cumulative IPC: 0.70021 (Simulation time: 1 hr 9 min 31 sec) 
Heartbeat CPU 0 instructions: 127000002 cycles: 130008823 heartbeat IPC: 0.669308 cumulative IPC: 0.699791 (Simulation time: 1 hr 10 min 7 sec) 
Heartbeat CPU 0 instructions: 128000000 cycles: 131406880 heartbeat IPC: 0.715277 cumulative IPC: 0.699985 (Simulation time: 1 hr 10 min 42 sec) 
Heartbeat CPU 0 instructions: 129000003 cycles: 132767816 heartbeat IPC: 0.734791 cumulative IPC: 0.700405 (Simulation time: 1 hr 11 min 12 sec) 
Heartbeat CPU 0 instructions: 130000000 cycles: 134184594 heartbeat IPC: 0.705825 cumulative IPC: 0.700472 (Simulation time: 1 hr 11 min 44 sec) 
Heartbeat CPU 0 instructions: 131000001 cycles: 135580738 heartbeat IPC: 0.716259 cumulative IPC: 0.700663 (Simulation time: 1 hr 12 min 16 sec) 
Heartbeat CPU 0 instructions: 132000000 cycles: 136927959 heartbeat IPC: 0.742268 cumulative IPC: 0.701142 (Simulation time: 1 hr 12 min 51 sec) 
Heartbeat CPU 0 instructions: 133000003 cycles: 138245810 heartbeat IPC: 0.758813 cumulative IPC: 0.701785 (Simulation time: 1 hr 13 min 23 sec) 
Heartbeat CPU 0 instructions: 134000001 cycles: 139687922 heartbeat IPC: 0.693426 cumulative IPC: 0.701684 (Simulation time: 1 hr 13 min 56 sec) 
Heartbeat CPU 0 instructions: 135000000 cycles: 141145974 heartbeat IPC: 0.685846 cumulative IPC: 0.701493 (Simulation time: 1 hr 14 min 29 sec) 
Heartbeat CPU 0 instructions: 136000000 cycles: 142597609 heartbeat IPC: 0.688878 cumulative IPC: 0.701344 (Simulation time: 1 hr 14 min 59 sec) 
Heartbeat CPU 0 instructions: 137000002 cycles: 144066988 heartbeat IPC: 0.680561 cumulative IPC: 0.701098 (Simulation time: 1 hr 15 min 27 sec) 
Heartbeat CPU 0 instructions: 138000001 cycles: 145439424 heartbeat IPC: 0.728631 cumulative IPC: 0.701399 (Simulation time: 1 hr 15 min 51 sec) 
Heartbeat CPU 0 instructions: 139000000 cycles: 146831006 heartbeat IPC: 0.718606 cumulative IPC: 0.701588 (Simulation time: 1 hr 16 min 15 sec) 
Heartbeat CPU 0 instructions: 140000000 cycles: 148241178 heartbeat IPC: 0.709133 cumulative IPC: 0.701671 (Simulation time: 1 hr 16 min 39 sec) 
Heartbeat CPU 0 instructions: 141000001 cycles: 149727689 heartbeat IPC: 0.672717 cumulative IPC: 0.701339 (Simulation time: 1 hr 17 min 1 sec) 
Heartbeat CPU 0 instructions: 142000003 cycles: 151123548 heartbeat IPC: 0.716406 cumulative IPC: 0.701499 (Simulation time: 1 hr 17 min 22 sec) 
Heartbeat CPU 0 instructions: 143000003 cycles: 152558013 heartbeat IPC: 0.697124 cumulative IPC: 0.701452 (Simulation time: 1 hr 17 min 43 sec) 
Heartbeat CPU 0 instructions: 144000000 cycles: 153988022 heartbeat IPC: 0.699294 cumulative IPC: 0.701429 (Simulation time: 1 hr 18 min 3 sec) 
Heartbeat CPU 0 instructions: 145000002 cycles: 155398050 heartbeat IPC: 0.709207 cumulative IPC: 0.70151 (Simulation time: 1 hr 18 min 23 sec) 
Heartbeat CPU 0 instructions: 146000000 cycles: 156844913 heartbeat IPC: 0.691149 cumulative IPC: 0.701401 (Simulation time: 1 hr 18 min 52 sec) 
Heartbeat CPU 0 instructions: 147000000 cycles: 158317299 heartbeat IPC: 0.67917 cumulative IPC: 0.701164 (Simulation time: 1 hr 19 min 17 sec) 
Heartbeat CPU 0 instructions: 148000000 cycles: 159705195 heartbeat IPC: 0.720515 cumulative IPC: 0.701356 (Simulation time: 1 hr 19 min 41 sec) 
Heartbeat CPU 0 instructions: 149000001 cycles: 161027918 heartbeat IPC: 0.756017 cumulative IPC: 0.701869 (Simulation time: 1 hr 20 min 3 sec) 
Heartbeat CPU 0 instructions: 150000003 cycles: 162403235 heartbeat IPC: 0.727107 cumulative IPC: 0.702112 (Simulation time: 1 hr 20 min 28 sec) 
Finished CPU 0 instructions: 100000000 cycles: 142427331 cummulative IPC: 0.702112 (Simulation time: 1 hr 20 min 28 sec) 

ChampSim completed all CPUs

Region of Interest Statistics

CPU 0 cummulative IPC: 0.702112 instructions: 100000000 cycles: 142427331
LLC TOTAL     ACCESS:    5311486  HIT:    1760852  MISS:    3550634
LLC LOAD      ACCESS:     371567  HIT:      13166  MISS:     358401
LLC RFO       ACCESS:    2270810  HIT:     620328  MISS:    1650482
LLC PREFETCH  ACCESS:     398357  HIT:      16954  MISS:     381403
LLC WRITEBACK ACCESS:    2270752  HIT:    1110404  MISS:    1160348
OPTgen accesses: 63498
OPTgen hits: 21019
OPTgen hit rate: 33.1018


