
*** ChampSim Multicore Out-of-Order Simulator ***

Warmup Instructions: 50000000
Simulation Instructions: 100000000
Configuration: 2
Number of CPUs: 1
LLC sets: 2048
LLC ways: 16
Off-chip DRAM Channels: 1 Width: 64-bit Data Rate: 1600 MT/s

CPU 0 runs /datasets/cs240c-wi22-a00-public/data/Assignment2-gz/cactusADM_1039B.trace.gz
CPU 0 L1D next line prefetcher
CPU 0 L2C IP-based stride prefetcher
Initialize Hawkeye state
Heartbeat CPU 0 instructions: 1000000 cycles: 595518 heartbeat IPC: 1.67921 cumulative IPC: 1.67921 (Simulation time: 0 hr 0 min 38 sec) 
Heartbeat CPU 0 instructions: 2000002 cycles: 1190937 heartbeat IPC: 1.67949 cumulative IPC: 1.67935 (Simulation time: 0 hr 1 min 13 sec) 
Heartbeat CPU 0 instructions: 3000003 cycles: 1786622 heartbeat IPC: 1.67874 cumulative IPC: 1.67915 (Simulation time: 0 hr 1 min 51 sec) 
Heartbeat CPU 0 instructions: 4000000 cycles: 2382046 heartbeat IPC: 1.67947 cumulative IPC: 1.67923 (Simulation time: 0 hr 2 min 29 sec) 
Heartbeat CPU 0 instructions: 5000001 cycles: 2977457 heartbeat IPC: 1.67951 cumulative IPC: 1.67929 (Simulation time: 0 hr 3 min 6 sec) 
Heartbeat CPU 0 instructions: 6000002 cycles: 3572930 heartbeat IPC: 1.67934 cumulative IPC: 1.67929 (Simulation time: 0 hr 3 min 42 sec) 
Heartbeat CPU 0 instructions: 7000000 cycles: 4168306 heartbeat IPC: 1.67961 cumulative IPC: 1.67934 (Simulation time: 0 hr 4 min 20 sec) 
Heartbeat CPU 0 instructions: 8000000 cycles: 4763681 heartbeat IPC: 1.67961 cumulative IPC: 1.67937 (Simulation time: 0 hr 4 min 57 sec) 
Heartbeat CPU 0 instructions: 9000002 cycles: 5359336 heartbeat IPC: 1.67883 cumulative IPC: 1.67931 (Simulation time: 0 hr 5 min 35 sec) 
Heartbeat CPU 0 instructions: 10000003 cycles: 5974113 heartbeat IPC: 1.62661 cumulative IPC: 1.67389 (Simulation time: 0 hr 6 min 13 sec) 
Heartbeat CPU 0 instructions: 11000002 cycles: 6713182 heartbeat IPC: 1.35305 cumulative IPC: 1.63857 (Simulation time: 0 hr 6 min 54 sec) 
Heartbeat CPU 0 instructions: 12000000 cycles: 7308626 heartbeat IPC: 1.67942 cumulative IPC: 1.6419 (Simulation time: 0 hr 7 min 33 sec) 
Heartbeat CPU 0 instructions: 13000002 cycles: 7904132 heartbeat IPC: 1.67925 cumulative IPC: 1.64471 (Simulation time: 0 hr 8 min 12 sec) 
Heartbeat CPU 0 instructions: 14000000 cycles: 8499778 heartbeat IPC: 1.67885 cumulative IPC: 1.6471 (Simulation time: 0 hr 8 min 49 sec) 
Heartbeat CPU 0 instructions: 15000000 cycles: 9094831 heartbeat IPC: 1.68052 cumulative IPC: 1.64929 (Simulation time: 0 hr 9 min 29 sec) 
Heartbeat CPU 0 instructions: 16000000 cycles: 9690429 heartbeat IPC: 1.67898 cumulative IPC: 1.65111 (Simulation time: 0 hr 10 min 7 sec) 
Heartbeat CPU 0 instructions: 17000003 cycles: 10286020 heartbeat IPC: 1.67901 cumulative IPC: 1.65273 (Simulation time: 0 hr 10 min 44 sec) 
Heartbeat CPU 0 instructions: 18000001 cycles: 10881554 heartbeat IPC: 1.67916 cumulative IPC: 1.65418 (Simulation time: 0 hr 11 min 24 sec) 
Heartbeat CPU 0 instructions: 19000002 cycles: 11476928 heartbeat IPC: 1.67962 cumulative IPC: 1.6555 (Simulation time: 0 hr 12 min 1 sec) 
Heartbeat CPU 0 instructions: 20000000 cycles: 12072366 heartbeat IPC: 1.67943 cumulative IPC: 1.65668 (Simulation time: 0 hr 12 min 39 sec) 
Heartbeat CPU 0 instructions: 21000002 cycles: 12668053 heartbeat IPC: 1.67874 cumulative IPC: 1.65771 (Simulation time: 0 hr 13 min 21 sec) 
Heartbeat CPU 0 instructions: 22000002 cycles: 13263480 heartbeat IPC: 1.67947 cumulative IPC: 1.65869 (Simulation time: 0 hr 14 min 0 sec) 
Heartbeat CPU 0 instructions: 23000002 cycles: 13858923 heartbeat IPC: 1.67942 cumulative IPC: 1.65958 (Simulation time: 0 hr 14 min 38 sec) 
Heartbeat CPU 0 instructions: 24000000 cycles: 14615004 heartbeat IPC: 1.32261 cumulative IPC: 1.64215 (Simulation time: 0 hr 15 min 23 sec) 
Heartbeat CPU 0 instructions: 25000002 cycles: 15210284 heartbeat IPC: 1.67989 cumulative IPC: 1.64362 (Simulation time: 0 hr 16 min 1 sec) 
Heartbeat CPU 0 instructions: 26000001 cycles: 15805395 heartbeat IPC: 1.68036 cumulative IPC: 1.64501 (Simulation time: 0 hr 16 min 39 sec) 
Heartbeat CPU 0 instructions: 27000000 cycles: 16400646 heartbeat IPC: 1.67996 cumulative IPC: 1.64628 (Simulation time: 0 hr 17 min 16 sec) 
Heartbeat CPU 0 instructions: 28000000 cycles: 16995882 heartbeat IPC: 1.68001 cumulative IPC: 1.64746 (Simulation time: 0 hr 17 min 54 sec) 
Heartbeat CPU 0 instructions: 29000000 cycles: 17591344 heartbeat IPC: 1.67937 cumulative IPC: 1.64854 (Simulation time: 0 hr 18 min 33 sec) 
Heartbeat CPU 0 instructions: 30000002 cycles: 18186501 heartbeat IPC: 1.68023 cumulative IPC: 1.64958 (Simulation time: 0 hr 19 min 13 sec) 
Heartbeat CPU 0 instructions: 31000001 cycles: 18782010 heartbeat IPC: 1.67923 cumulative IPC: 1.65052 (Simulation time: 0 hr 19 min 53 sec) 
Heartbeat CPU 0 instructions: 32000000 cycles: 19376964 heartbeat IPC: 1.6808 cumulative IPC: 1.65145 (Simulation time: 0 hr 20 min 35 sec) 
Heartbeat CPU 0 instructions: 33000001 cycles: 19972387 heartbeat IPC: 1.67948 cumulative IPC: 1.65228 (Simulation time: 0 hr 21 min 13 sec) 
Heartbeat CPU 0 instructions: 34000003 cycles: 20567450 heartbeat IPC: 1.6805 cumulative IPC: 1.6531 (Simulation time: 0 hr 21 min 52 sec) 
Heartbeat CPU 0 instructions: 35000001 cycles: 21162848 heartbeat IPC: 1.67955 cumulative IPC: 1.65384 (Simulation time: 0 hr 22 min 44 sec) 
Heartbeat CPU 0 instructions: 36000000 cycles: 21758237 heartbeat IPC: 1.67957 cumulative IPC: 1.65455 (Simulation time: 0 hr 23 min 30 sec) 
Heartbeat CPU 0 instructions: 37000002 cycles: 22515246 heartbeat IPC: 1.32099 cumulative IPC: 1.64333 (Simulation time: 0 hr 24 min 22 sec) 
Heartbeat CPU 0 instructions: 38000000 cycles: 23110389 heartbeat IPC: 1.68027 cumulative IPC: 1.64428 (Simulation time: 0 hr 25 min 8 sec) 
Heartbeat CPU 0 instructions: 39000002 cycles: 23705602 heartbeat IPC: 1.68007 cumulative IPC: 1.64518 (Simulation time: 0 hr 25 min 50 sec) 
Heartbeat CPU 0 instructions: 40000000 cycles: 24300832 heartbeat IPC: 1.68002 cumulative IPC: 1.64603 (Simulation time: 0 hr 26 min 36 sec) 
Heartbeat CPU 0 instructions: 41000003 cycles: 24896261 heartbeat IPC: 1.67947 cumulative IPC: 1.64683 (Simulation time: 0 hr 27 min 23 sec) 
Heartbeat CPU 0 instructions: 42000001 cycles: 25491445 heartbeat IPC: 1.68015 cumulative IPC: 1.64761 (Simulation time: 0 hr 28 min 25 sec) 
Heartbeat CPU 0 instructions: 43000000 cycles: 26086810 heartbeat IPC: 1.67964 cumulative IPC: 1.64834 (Simulation time: 0 hr 29 min 21 sec) 
Heartbeat CPU 0 instructions: 44000000 cycles: 26681902 heartbeat IPC: 1.68041 cumulative IPC: 1.64906 (Simulation time: 0 hr 30 min 17 sec) 
Heartbeat CPU 0 instructions: 45000000 cycles: 27277377 heartbeat IPC: 1.67933 cumulative IPC: 1.64972 (Simulation time: 0 hr 31 min 5 sec) 
Heartbeat CPU 0 instructions: 46000003 cycles: 27872570 heartbeat IPC: 1.68013 cumulative IPC: 1.65037 (Simulation time: 0 hr 31 min 55 sec) 
Heartbeat CPU 0 instructions: 47000002 cycles: 28467698 heartbeat IPC: 1.68031 cumulative IPC: 1.65099 (Simulation time: 0 hr 33 min 1 sec) 
Heartbeat CPU 0 instructions: 48000000 cycles: 29062690 heartbeat IPC: 1.68069 cumulative IPC: 1.6516 (Simulation time: 0 hr 34 min 2 sec) 
Heartbeat CPU 0 instructions: 49000001 cycles: 29658088 heartbeat IPC: 1.67955 cumulative IPC: 1.65216 (Simulation time: 0 hr 35 min 4 sec) 
Heartbeat CPU 0 instructions: 50000000 cycles: 30415116 heartbeat IPC: 1.32095 cumulative IPC: 1.64392 (Simulation time: 0 hr 36 min 14 sec) 

Warmup complete CPU 0 instructions: 50000004 cycles: 30415117 (Simulation time: 0 hr 36 min 14 sec) 

Heartbeat CPU 0 instructions: 51000003 cycles: 32179803 heartbeat IPC: 0.566674 cumulative IPC: 0.566673 (Simulation time: 0 hr 37 min 25 sec) 
Heartbeat CPU 0 instructions: 52000000 cycles: 33951201 heartbeat IPC: 0.564524 cumulative IPC: 0.565596 (Simulation time: 0 hr 38 min 34 sec) 
Heartbeat CPU 0 instructions: 53000003 cycles: 35722455 heartbeat IPC: 0.564573 cumulative IPC: 0.565255 (Simulation time: 0 hr 39 min 44 sec) 
Heartbeat CPU 0 instructions: 54000002 cycles: 37438635 heartbeat IPC: 0.582689 cumulative IPC: 0.569515 (Simulation time: 0 hr 40 min 39 sec) 
Heartbeat CPU 0 instructions: 55000001 cycles: 39164863 heartbeat IPC: 0.579297 cumulative IPC: 0.571445 (Simulation time: 0 hr 41 min 44 sec) 
Heartbeat CPU 0 instructions: 56000000 cycles: 40934990 heartbeat IPC: 0.564931 cumulative IPC: 0.570349 (Simulation time: 0 hr 42 min 56 sec) 
Heartbeat CPU 0 instructions: 57000000 cycles: 42709725 heartbeat IPC: 0.563464 cumulative IPC: 0.569355 (Simulation time: 0 hr 44 min 3 sec) 
Heartbeat CPU 0 instructions: 58000000 cycles: 44475227 heartbeat IPC: 0.566411 cumulative IPC: 0.568985 (Simulation time: 0 hr 45 min 9 sec) 
Heartbeat CPU 0 instructions: 59000002 cycles: 46162309 heartbeat IPC: 0.592741 cumulative IPC: 0.57153 (Simulation time: 0 hr 46 min 18 sec) 
Heartbeat CPU 0 instructions: 60000000 cycles: 47921998 heartbeat IPC: 0.568281 cumulative IPC: 0.571204 (Simulation time: 0 hr 47 min 27 sec) 
Heartbeat CPU 0 instructions: 61000001 cycles: 49695994 heartbeat IPC: 0.5637 cumulative IPC: 0.570513 (Simulation time: 0 hr 48 min 36 sec) 
Heartbeat CPU 0 instructions: 62000000 cycles: 51470376 heartbeat IPC: 0.563576 cumulative IPC: 0.569929 (Simulation time: 0 hr 49 min 46 sec) 
Heartbeat CPU 0 instructions: 63000001 cycles: 57676060 heartbeat IPC: 0.161143 cumulative IPC: 0.476873 (Simulation time: 0 hr 51 min 6 sec) 
Heartbeat CPU 0 instructions: 64000000 cycles: 59942848 heartbeat IPC: 0.441152 cumulative IPC: 0.47413 (Simulation time: 0 hr 52 min 19 sec) 
Heartbeat CPU 0 instructions: 65000002 cycles: 61713465 heartbeat IPC: 0.564776 cumulative IPC: 0.479258 (Simulation time: 0 hr 53 min 19 sec) 
Heartbeat CPU 0 instructions: 66000001 cycles: 63484572 heartbeat IPC: 0.564618 cumulative IPC: 0.48383 (Simulation time: 0 hr 54 min 29 sec) 
Heartbeat CPU 0 instructions: 67000003 cycles: 65250156 heartbeat IPC: 0.566386 cumulative IPC: 0.488014 (Simulation time: 0 hr 55 min 43 sec) 
Heartbeat CPU 0 instructions: 68000000 cycles: 66976221 heartbeat IPC: 0.579351 cumulative IPC: 0.492326 (Simulation time: 0 hr 56 min 53 sec) 
Heartbeat CPU 0 instructions: 69000003 cycles: 68753180 heartbeat IPC: 0.562761 cumulative IPC: 0.495591 (Simulation time: 0 hr 57 min 57 sec) 
Heartbeat CPU 0 instructions: 70000002 cycles: 70523013 heartbeat IPC: 0.565024 cumulative IPC: 0.498655 (Simulation time: 0 hr 59 min 2 sec) 
Heartbeat CPU 0 instructions: 71000000 cycles: 72294426 heartbeat IPC: 0.56452 cumulative IPC: 0.501441 (Simulation time: 1 hr 0 min 2 sec) 
Heartbeat CPU 0 instructions: 72000000 cycles: 74040138 heartbeat IPC: 0.572832 cumulative IPC: 0.504298 (Simulation time: 1 hr 1 min 11 sec) 
Heartbeat CPU 0 instructions: 73000001 cycles: 75740471 heartbeat IPC: 0.588121 cumulative IPC: 0.507442 (Simulation time: 1 hr 2 min 21 sec) 
Heartbeat CPU 0 instructions: 74000003 cycles: 77508210 heartbeat IPC: 0.565696 cumulative IPC: 0.509629 (Simulation time: 1 hr 3 min 36 sec) 
Heartbeat CPU 0 instructions: 75000002 cycles: 79281331 heartbeat IPC: 0.563977 cumulative IPC: 0.511601 (Simulation time: 1 hr 4 min 49 sec) 
Heartbeat CPU 0 instructions: 76000000 cycles: 84535395 heartbeat IPC: 0.190328 cumulative IPC: 0.480411 (Simulation time: 1 hr 6 min 9 sec) 
Heartbeat CPU 0 instructions: 77000001 cycles: 87697177 heartbeat IPC: 0.316278 cumulative IPC: 0.471352 (Simulation time: 1 hr 7 min 20 sec) 
Heartbeat CPU 0 instructions: 78000000 cycles: 89445905 heartbeat IPC: 0.571844 cumulative IPC: 0.474329 (Simulation time: 1 hr 8 min 31 sec) 
Heartbeat CPU 0 instructions: 79000002 cycles: 91215657 heartbeat IPC: 0.565052 cumulative IPC: 0.476969 (Simulation time: 1 hr 9 min 26 sec) 
Heartbeat CPU 0 instructions: 80000000 cycles: 92984841 heartbeat IPC: 0.565231 cumulative IPC: 0.479465 (Simulation time: 1 hr 10 min 32 sec) 
Heartbeat CPU 0 instructions: 81000002 cycles: 94731817 heartbeat IPC: 0.572419 cumulative IPC: 0.48199 (Simulation time: 1 hr 11 min 36 sec) 
Heartbeat CPU 0 instructions: 82000002 cycles: 96426138 heartbeat IPC: 0.590207 cumulative IPC: 0.484767 (Simulation time: 1 hr 12 min 35 sec) 
Heartbeat CPU 0 instructions: 83000003 cycles: 98191583 heartbeat IPC: 0.56643 cumulative IPC: 0.486895 (Simulation time: 1 hr 13 min 28 sec) 
Heartbeat CPU 0 instructions: 84000000 cycles: 99960918 heartbeat IPC: 0.565182 cumulative IPC: 0.488886 (Simulation time: 1 hr 14 min 17 sec) 
Heartbeat CPU 0 instructions: 85000002 cycles: 101731015 heartbeat IPC: 0.564942 cumulative IPC: 0.490774 (Simulation time: 1 hr 14 min 59 sec) 
Heartbeat CPU 0 instructions: 86000003 cycles: 103445588 heartbeat IPC: 0.583236 cumulative IPC: 0.492945 (Simulation time: 1 hr 15 min 39 sec) 
Heartbeat CPU 0 instructions: 87000000 cycles: 105186848 heartbeat IPC: 0.574295 cumulative IPC: 0.494839 (Simulation time: 1 hr 16 min 21 sec) 
Heartbeat CPU 0 instructions: 88000000 cycles: 106956493 heartbeat IPC: 0.565085 cumulative IPC: 0.496463 (Simulation time: 1 hr 16 min 58 sec) 
Heartbeat CPU 0 instructions: 89000001 cycles: 111289447 heartbeat IPC: 0.23079 cumulative IPC: 0.48223 (Simulation time: 1 hr 17 min 39 sec) 
Heartbeat CPU 0 instructions: 90000002 cycles: 115407382 heartbeat IPC: 0.24284 cumulative IPC: 0.470631 (Simulation time: 1 hr 18 min 17 sec) 
Heartbeat CPU 0 instructions: 91000000 cycles: 117101746 heartbeat IPC: 0.590191 cumulative IPC: 0.472968 (Simulation time: 1 hr 18 min 53 sec) 
Heartbeat CPU 0 instructions: 92000000 cycles: 118864509 heartbeat IPC: 0.567291 cumulative IPC: 0.474848 (Simulation time: 1 hr 19 min 30 sec) 
Heartbeat CPU 0 instructions: 93000001 cycles: 120635626 heartbeat IPC: 0.564616 cumulative IPC: 0.47661 (Simulation time: 1 hr 20 min 2 sec) 
Heartbeat CPU 0 instructions: 94000003 cycles: 122409259 heartbeat IPC: 0.563816 cumulative IPC: 0.478291 (Simulation time: 1 hr 20 min 39 sec) 
Heartbeat CPU 0 instructions: 95000001 cycles: 124129420 heartbeat IPC: 0.58134 cumulative IPC: 0.480183 (Simulation time: 1 hr 21 min 9 sec) 
Heartbeat CPU 0 instructions: 96000000 cycles: 125849242 heartbeat IPC: 0.581455 cumulative IPC: 0.482008 (Simulation time: 1 hr 21 min 42 sec) 
Heartbeat CPU 0 instructions: 97000002 cycles: 127618142 heartbeat IPC: 0.565324 cumulative IPC: 0.483524 (Simulation time: 1 hr 22 min 23 sec) 
Heartbeat CPU 0 instructions: 98000000 cycles: 129390980 heartbeat IPC: 0.564066 cumulative IPC: 0.484967 (Simulation time: 1 hr 23 min 0 sec) 
Heartbeat CPU 0 instructions: 99000002 cycles: 131158246 heartbeat IPC: 0.565847 cumulative IPC: 0.486385 (Simulation time: 1 hr 23 min 38 sec) 
Heartbeat CPU 0 instructions: 100000000 cycles: 132848715 heartbeat IPC: 0.591551 cumulative IPC: 0.488121 (Simulation time: 1 hr 24 min 13 sec) 
Heartbeat CPU 0 instructions: 101000002 cycles: 134603047 heartbeat IPC: 0.570019 cumulative IPC: 0.4895 (Simulation time: 1 hr 24 min 39 sec) 
Heartbeat CPU 0 instructions: 102000000 cycles: 137946940 heartbeat IPC: 0.299052 cumulative IPC: 0.483578 (Simulation time: 1 hr 25 min 7 sec) 
Heartbeat CPU 0 instructions: 103000002 cycles: 143058027 heartbeat IPC: 0.195653 cumulative IPC: 0.470513 (Simulation time: 1 hr 25 min 40 sec) 
Heartbeat CPU 0 instructions: 104000000 cycles: 144783337 heartbeat IPC: 0.579605 cumulative IPC: 0.472159 (Simulation time: 1 hr 26 min 11 sec) 
Heartbeat CPU 0 instructions: 105000002 cycles: 146497843 heartbeat IPC: 0.58326 cumulative IPC: 0.4738 (Simulation time: 1 hr 26 min 35 sec) 
Heartbeat CPU 0 instructions: 106000001 cycles: 148269656 heartbeat IPC: 0.564393 cumulative IPC: 0.475162 (Simulation time: 1 hr 26 min 58 sec) 
Heartbeat CPU 0 instructions: 107000003 cycles: 150038905 heartbeat IPC: 0.565213 cumulative IPC: 0.476494 (Simulation time: 1 hr 27 min 23 sec) 
Heartbeat CPU 0 instructions: 108000000 cycles: 151806156 heartbeat IPC: 0.565849 cumulative IPC: 0.477795 (Simulation time: 1 hr 27 min 46 sec) 
Heartbeat CPU 0 instructions: 109000003 cycles: 153502910 heartbeat IPC: 0.589362 cumulative IPC: 0.479333 (Simulation time: 1 hr 28 min 9 sec) 
Heartbeat CPU 0 instructions: 110000002 cycles: 155251767 heartbeat IPC: 0.571801 cumulative IPC: 0.480628 (Simulation time: 1 hr 28 min 33 sec) 
Heartbeat CPU 0 instructions: 111000002 cycles: 157022804 heartbeat IPC: 0.564641 cumulative IPC: 0.481803 (Simulation time: 1 hr 28 min 53 sec) 
Heartbeat CPU 0 instructions: 112000000 cycles: 158793792 heartbeat IPC: 0.564655 cumulative IPC: 0.482946 (Simulation time: 1 hr 29 min 13 sec) 
Heartbeat CPU 0 instructions: 113000002 cycles: 160549938 heartbeat IPC: 0.56943 cumulative IPC: 0.484113 (Simulation time: 1 hr 29 min 32 sec) 
Heartbeat CPU 0 instructions: 114000002 cycles: 162241992 heartbeat IPC: 0.590998 cumulative IPC: 0.485485 (Simulation time: 1 hr 29 min 47 sec) 
Heartbeat CPU 0 instructions: 115000001 cycles: 164674837 heartbeat IPC: 0.411041 cumulative IPC: 0.484136 (Simulation time: 1 hr 30 min 2 sec) 
Heartbeat CPU 0 instructions: 116000000 cycles: 170684474 heartbeat IPC: 0.166399 cumulative IPC: 0.470523 (Simulation time: 1 hr 30 min 21 sec) 
Heartbeat CPU 0 instructions: 117000003 cycles: 172455886 heartbeat IPC: 0.564523 cumulative IPC: 0.471696 (Simulation time: 1 hr 30 min 35 sec) 
Heartbeat CPU 0 instructions: 118000001 cycles: 174156569 heartbeat IPC: 0.587998 cumulative IPC: 0.473072 (Simulation time: 1 hr 30 min 49 sec) 
Heartbeat CPU 0 instructions: 119000001 cycles: 175897884 heartbeat IPC: 0.574279 cumulative IPC: 0.474283 (Simulation time: 1 hr 31 min 1 sec) 
Heartbeat CPU 0 instructions: 120000000 cycles: 177669023 heartbeat IPC: 0.564608 cumulative IPC: 0.475369 (Simulation time: 1 hr 31 min 12 sec) 
Heartbeat CPU 0 instructions: 121000000 cycles: 179441836 heartbeat IPC: 0.564075 cumulative IPC: 0.476425 (Simulation time: 1 hr 31 min 22 sec) 
Heartbeat CPU 0 instructions: 122000003 cycles: 181200815 heartbeat IPC: 0.568513 cumulative IPC: 0.477499 (Simulation time: 1 hr 31 min 31 sec) 
Heartbeat CPU 0 instructions: 123000002 cycles: 182889267 heartbeat IPC: 0.592258 cumulative IPC: 0.47877 (Simulation time: 1 hr 31 min 40 sec) 
Heartbeat CPU 0 instructions: 124000000 cycles: 184656379 heartbeat IPC: 0.565894 cumulative IPC: 0.479768 (Simulation time: 1 hr 31 min 47 sec) 
Heartbeat CPU 0 instructions: 125000001 cycles: 186425889 heartbeat IPC: 0.565129 cumulative IPC: 0.480736 (Simulation time: 1 hr 31 min 54 sec) 
Heartbeat CPU 0 instructions: 126000000 cycles: 188195898 heartbeat IPC: 0.564968 cumulative IPC: 0.481681 (Simulation time: 1 hr 32 min 1 sec) 
Heartbeat CPU 0 instructions: 127000003 cycles: 189919646 heartbeat IPC: 0.580133 cumulative IPC: 0.482745 (Simulation time: 1 hr 32 min 8 sec) 
Heartbeat CPU 0 instructions: 128000000 cycles: 191692825 heartbeat IPC: 0.563957 cumulative IPC: 0.483638 (Simulation time: 1 hr 32 min 15 sec) 
Heartbeat CPU 0 instructions: 129000001 cycles: 198560206 heartbeat IPC: 0.145616 cumulative IPC: 0.469832 (Simulation time: 1 hr 32 min 23 sec) 
Heartbeat CPU 0 instructions: 130000002 cycles: 208102129 heartbeat IPC: 0.104801 cumulative IPC: 0.45023 (Simulation time: 1 hr 32 min 31 sec) 
Heartbeat CPU 0 instructions: 131000002 cycles: 212053370 heartbeat IPC: 0.253085 cumulative IPC: 0.445941 (Simulation time: 1 hr 32 min 38 sec) 
Heartbeat CPU 0 instructions: 132000000 cycles: 213832120 heartbeat IPC: 0.562191 cumulative IPC: 0.447069 (Simulation time: 1 hr 32 min 44 sec) 
Heartbeat CPU 0 instructions: 133000000 cycles: 215533424 heartbeat IPC: 0.587784 cumulative IPC: 0.448362 (Simulation time: 1 hr 32 min 50 sec) 
Heartbeat CPU 0 instructions: 134000003 cycles: 217303546 heartbeat IPC: 0.564934 cumulative IPC: 0.449466 (Simulation time: 1 hr 32 min 55 sec) 
Heartbeat CPU 0 instructions: 135000002 cycles: 219089957 heartbeat IPC: 0.559781 cumulative IPC: 0.450511 (Simulation time: 1 hr 33 min 1 sec) 
Heartbeat CPU 0 instructions: 136000000 cycles: 220880196 heartbeat IPC: 0.558583 cumulative IPC: 0.451526 (Simulation time: 1 hr 33 min 6 sec) 
Heartbeat CPU 0 instructions: 137000001 cycles: 222632902 heartbeat IPC: 0.570547 cumulative IPC: 0.452612 (Simulation time: 1 hr 33 min 12 sec) 
Heartbeat CPU 0 instructions: 138000001 cycles: 224346477 heartbeat IPC: 0.583575 cumulative IPC: 0.453769 (Simulation time: 1 hr 33 min 17 sec) 
Heartbeat CPU 0 instructions: 139000003 cycles: 226128426 heartbeat IPC: 0.561184 cumulative IPC: 0.454747 (Simulation time: 1 hr 33 min 22 sec) 
Heartbeat CPU 0 instructions: 140000000 cycles: 227920035 heartbeat IPC: 0.558156 cumulative IPC: 0.455685 (Simulation time: 1 hr 33 min 27 sec) 
Heartbeat CPU 0 instructions: 141000003 cycles: 229705869 heartbeat IPC: 0.559964 cumulative IPC: 0.456619 (Simulation time: 1 hr 33 min 33 sec) 
Heartbeat CPU 0 instructions: 142000003 cycles: 231427497 heartbeat IPC: 0.580846 cumulative IPC: 0.457683 (Simulation time: 1 hr 33 min 39 sec) 
Heartbeat CPU 0 instructions: 143000002 cycles: 235319996 heartbeat IPC: 0.256904 cumulative IPC: 0.453869 (Simulation time: 1 hr 33 min 44 sec) 
Heartbeat CPU 0 instructions: 144000000 cycles: 240274188 heartbeat IPC: 0.201849 cumulative IPC: 0.44792 (Simulation time: 1 hr 33 min 50 sec) 
Heartbeat CPU 0 instructions: 145000003 cycles: 242014615 heartbeat IPC: 0.574573 cumulative IPC: 0.448961 (Simulation time: 1 hr 33 min 56 sec) 
Heartbeat CPU 0 instructions: 146000001 cycles: 243718523 heartbeat IPC: 0.586885 cumulative IPC: 0.450063 (Simulation time: 1 hr 34 min 1 sec) 
Heartbeat CPU 0 instructions: 147000001 cycles: 245382324 heartbeat IPC: 0.601033 cumulative IPC: 0.451232 (Simulation time: 1 hr 34 min 7 sec) 
Heartbeat CPU 0 instructions: 148000000 cycles: 247119226 heartbeat IPC: 0.575737 cumulative IPC: 0.45223 (Simulation time: 1 hr 34 min 13 sec) 
Heartbeat CPU 0 instructions: 149000000 cycles: 248857010 heartbeat IPC: 0.575446 cumulative IPC: 0.45321 (Simulation time: 1 hr 34 min 19 sec) 
Heartbeat CPU 0 instructions: 150000002 cycles: 250593808 heartbeat IPC: 0.575773 cumulative IPC: 0.454177 (Simulation time: 1 hr 34 min 24 sec) 
Finished CPU 0 instructions: 100000002 cycles: 220178692 cummulative IPC: 0.454177 (Simulation time: 1 hr 34 min 24 sec) 

ChampSim completed all CPUs

Region of Interest Statistics

CPU 0 cummulative IPC: 0.454177 instructions: 100000002 cycles: 220178692
LLC TOTAL     ACCESS:    1242598  HIT:     333301  MISS:     909297
LLC LOAD      ACCESS:      28236  HIT:       3408  MISS:      24828
LLC RFO       ACCESS:     290712  HIT:      86018  MISS:     204694
LLC PREFETCH  ACCESS:     631262  HIT:     109748  MISS:     521514
LLC WRITEBACK ACCESS:     292388  HIT:     134127  MISS:     158261
OPTgen accesses: 7350
OPTgen hits: 2613
OPTgen hit rate: 35.551


