
*** ChampSim Multicore Out-of-Order Simulator ***

Warmup Instructions: 50000000
Simulation Instructions: 100000000
Configuration: 2
Number of CPUs: 1
LLC sets: 2048
LLC ways: 16
Off-chip DRAM Channels: 1 Width: 64-bit Data Rate: 1600 MT/s

CPU 0 runs /datasets/cs240c-wi22-a00-public/data/Assignment2-gz/lbm_1004B.trace.gz
CPU 0 L1D next line prefetcher
CPU 0 L2C IP-based stride prefetcher
Initialize Hawkeye state
Heartbeat CPU 0 instructions: 1000002 cycles: 391414 heartbeat IPC: 2.55484 cumulative IPC: 2.55484 (Simulation time: 0 hr 0 min 26 sec) 
Heartbeat CPU 0 instructions: 2000001 cycles: 782838 heartbeat IPC: 2.55477 cumulative IPC: 2.55481 (Simulation time: 0 hr 0 min 52 sec) 
Heartbeat CPU 0 instructions: 3000001 cycles: 1174187 heartbeat IPC: 2.55526 cumulative IPC: 2.55496 (Simulation time: 0 hr 1 min 20 sec) 
Heartbeat CPU 0 instructions: 4000000 cycles: 1570369 heartbeat IPC: 2.52409 cumulative IPC: 2.54717 (Simulation time: 0 hr 1 min 46 sec) 
Heartbeat CPU 0 instructions: 5000002 cycles: 1961789 heartbeat IPC: 2.55481 cumulative IPC: 2.5487 (Simulation time: 0 hr 2 min 14 sec) 
Heartbeat CPU 0 instructions: 6000002 cycles: 2353157 heartbeat IPC: 2.55514 cumulative IPC: 2.54977 (Simulation time: 0 hr 2 min 41 sec) 
Heartbeat CPU 0 instructions: 7000003 cycles: 2749265 heartbeat IPC: 2.52457 cumulative IPC: 2.54614 (Simulation time: 0 hr 3 min 7 sec) 
Heartbeat CPU 0 instructions: 8000000 cycles: 3140616 heartbeat IPC: 2.55524 cumulative IPC: 2.54727 (Simulation time: 0 hr 3 min 33 sec) 
Heartbeat CPU 0 instructions: 9000003 cycles: 3532040 heartbeat IPC: 2.55478 cumulative IPC: 2.5481 (Simulation time: 0 hr 4 min 1 sec) 
Heartbeat CPU 0 instructions: 10000000 cycles: 3923405 heartbeat IPC: 2.55515 cumulative IPC: 2.54881 (Simulation time: 0 hr 4 min 27 sec) 
Heartbeat CPU 0 instructions: 11000000 cycles: 4319645 heartbeat IPC: 2.52372 cumulative IPC: 2.54651 (Simulation time: 0 hr 4 min 55 sec) 
Heartbeat CPU 0 instructions: 12000000 cycles: 4710973 heartbeat IPC: 2.5554 cumulative IPC: 2.54724 (Simulation time: 0 hr 5 min 22 sec) 
Heartbeat CPU 0 instructions: 13000002 cycles: 5102381 heartbeat IPC: 2.55488 cumulative IPC: 2.54783 (Simulation time: 0 hr 5 min 51 sec) 
Heartbeat CPU 0 instructions: 14000003 cycles: 5498552 heartbeat IPC: 2.52417 cumulative IPC: 2.54613 (Simulation time: 0 hr 6 min 20 sec) 
Heartbeat CPU 0 instructions: 15000003 cycles: 5889984 heartbeat IPC: 2.55472 cumulative IPC: 2.5467 (Simulation time: 0 hr 6 min 50 sec) 
Heartbeat CPU 0 instructions: 16000000 cycles: 6281385 heartbeat IPC: 2.55492 cumulative IPC: 2.54721 (Simulation time: 0 hr 7 min 17 sec) 
Heartbeat CPU 0 instructions: 17000000 cycles: 6677550 heartbeat IPC: 2.5242 cumulative IPC: 2.54584 (Simulation time: 0 hr 7 min 46 sec) 
Heartbeat CPU 0 instructions: 18000000 cycles: 7068933 heartbeat IPC: 2.55504 cumulative IPC: 2.54635 (Simulation time: 0 hr 8 min 14 sec) 
Heartbeat CPU 0 instructions: 19000003 cycles: 7460293 heartbeat IPC: 2.5552 cumulative IPC: 2.54682 (Simulation time: 0 hr 8 min 43 sec) 
Heartbeat CPU 0 instructions: 20000000 cycles: 7851689 heartbeat IPC: 2.55495 cumulative IPC: 2.54722 (Simulation time: 0 hr 9 min 10 sec) 
Heartbeat CPU 0 instructions: 21000003 cycles: 8247850 heartbeat IPC: 2.52423 cumulative IPC: 2.54612 (Simulation time: 0 hr 9 min 36 sec) 
Heartbeat CPU 0 instructions: 22000002 cycles: 8639313 heartbeat IPC: 2.55452 cumulative IPC: 2.5465 (Simulation time: 0 hr 10 min 3 sec) 
Heartbeat CPU 0 instructions: 23000001 cycles: 9030654 heartbeat IPC: 2.55531 cumulative IPC: 2.54688 (Simulation time: 0 hr 10 min 29 sec) 
Heartbeat CPU 0 instructions: 24000000 cycles: 9426872 heartbeat IPC: 2.52386 cumulative IPC: 2.54591 (Simulation time: 0 hr 10 min 58 sec) 
Heartbeat CPU 0 instructions: 25000003 cycles: 9818277 heartbeat IPC: 2.55491 cumulative IPC: 2.54627 (Simulation time: 0 hr 11 min 26 sec) 
Heartbeat CPU 0 instructions: 26000002 cycles: 10209668 heartbeat IPC: 2.55499 cumulative IPC: 2.54661 (Simulation time: 0 hr 11 min 54 sec) 
Heartbeat CPU 0 instructions: 27000001 cycles: 10601034 heartbeat IPC: 2.55515 cumulative IPC: 2.54692 (Simulation time: 0 hr 12 min 21 sec) 
Heartbeat CPU 0 instructions: 28000000 cycles: 10997218 heartbeat IPC: 2.52408 cumulative IPC: 2.5461 (Simulation time: 0 hr 12 min 49 sec) 
Heartbeat CPU 0 instructions: 29000002 cycles: 11388619 heartbeat IPC: 2.55493 cumulative IPC: 2.5464 (Simulation time: 0 hr 13 min 17 sec) 
Heartbeat CPU 0 instructions: 30000003 cycles: 11780012 heartbeat IPC: 2.55498 cumulative IPC: 2.54669 (Simulation time: 0 hr 13 min 47 sec) 
Heartbeat CPU 0 instructions: 31000003 cycles: 12176238 heartbeat IPC: 2.52381 cumulative IPC: 2.54594 (Simulation time: 0 hr 14 min 17 sec) 
Heartbeat CPU 0 instructions: 32000000 cycles: 12567621 heartbeat IPC: 2.55503 cumulative IPC: 2.54623 (Simulation time: 0 hr 14 min 45 sec) 
Heartbeat CPU 0 instructions: 33000003 cycles: 12959058 heartbeat IPC: 2.5547 cumulative IPC: 2.54648 (Simulation time: 0 hr 15 min 15 sec) 
Heartbeat CPU 0 instructions: 34000002 cycles: 13355165 heartbeat IPC: 2.52457 cumulative IPC: 2.54583 (Simulation time: 0 hr 15 min 44 sec) 
Heartbeat CPU 0 instructions: 35000003 cycles: 13746584 heartbeat IPC: 2.55481 cumulative IPC: 2.54609 (Simulation time: 0 hr 16 min 10 sec) 
Heartbeat CPU 0 instructions: 36000000 cycles: 14137986 heartbeat IPC: 2.55491 cumulative IPC: 2.54633 (Simulation time: 0 hr 16 min 37 sec) 
Heartbeat CPU 0 instructions: 37000002 cycles: 14529395 heartbeat IPC: 2.55488 cumulative IPC: 2.54656 (Simulation time: 0 hr 17 min 5 sec) 
Heartbeat CPU 0 instructions: 38000000 cycles: 14925588 heartbeat IPC: 2.52402 cumulative IPC: 2.54596 (Simulation time: 0 hr 17 min 33 sec) 
Heartbeat CPU 0 instructions: 39000003 cycles: 15316911 heartbeat IPC: 2.55544 cumulative IPC: 2.54621 (Simulation time: 0 hr 18 min 1 sec) 
Heartbeat CPU 0 instructions: 40000000 cycles: 15708307 heartbeat IPC: 2.55495 cumulative IPC: 2.54642 (Simulation time: 0 hr 18 min 29 sec) 
Heartbeat CPU 0 instructions: 41000002 cycles: 16104512 heartbeat IPC: 2.52395 cumulative IPC: 2.54587 (Simulation time: 0 hr 18 min 56 sec) 
Heartbeat CPU 0 instructions: 42000003 cycles: 16495949 heartbeat IPC: 2.55469 cumulative IPC: 2.54608 (Simulation time: 0 hr 19 min 24 sec) 
Heartbeat CPU 0 instructions: 43000000 cycles: 16887317 heartbeat IPC: 2.55513 cumulative IPC: 2.54629 (Simulation time: 0 hr 19 min 49 sec) 
Heartbeat CPU 0 instructions: 44000000 cycles: 17283466 heartbeat IPC: 2.5243 cumulative IPC: 2.54579 (Simulation time: 0 hr 20 min 15 sec) 
Heartbeat CPU 0 instructions: 45000003 cycles: 17674848 heartbeat IPC: 2.55506 cumulative IPC: 2.54599 (Simulation time: 0 hr 20 min 44 sec) 
Heartbeat CPU 0 instructions: 46000003 cycles: 18066202 heartbeat IPC: 2.55523 cumulative IPC: 2.54619 (Simulation time: 0 hr 21 min 11 sec) 
Heartbeat CPU 0 instructions: 47000002 cycles: 18457601 heartbeat IPC: 2.55493 cumulative IPC: 2.54638 (Simulation time: 0 hr 21 min 39 sec) 
Heartbeat CPU 0 instructions: 48000000 cycles: 18853774 heartbeat IPC: 2.52414 cumulative IPC: 2.54591 (Simulation time: 0 hr 22 min 8 sec) 
Heartbeat CPU 0 instructions: 49000000 cycles: 19245200 heartbeat IPC: 2.55476 cumulative IPC: 2.54609 (Simulation time: 0 hr 22 min 36 sec) 
Heartbeat CPU 0 instructions: 50000003 cycles: 19636534 heartbeat IPC: 2.55537 cumulative IPC: 2.54627 (Simulation time: 0 hr 23 min 4 sec) 

Warmup complete CPU 0 instructions: 50000003 cycles: 19636534 (Simulation time: 0 hr 23 min 4 sec) 

Heartbeat CPU 0 instructions: 51000001 cycles: 21120621 heartbeat IPC: 0.673814 cumulative IPC: 0.673814 (Simulation time: 0 hr 23 min 36 sec) 
Heartbeat CPU 0 instructions: 52000000 cycles: 22516523 heartbeat IPC: 0.716382 cumulative IPC: 0.694446 (Simulation time: 0 hr 24 min 9 sec) 
Heartbeat CPU 0 instructions: 53000002 cycles: 23941059 heartbeat IPC: 0.701984 cumulative IPC: 0.696941 (Simulation time: 0 hr 24 min 42 sec) 
Heartbeat CPU 0 instructions: 54000002 cycles: 25299950 heartbeat IPC: 0.735894 cumulative IPC: 0.706287 (Simulation time: 0 hr 25 min 15 sec) 
Heartbeat CPU 0 instructions: 55000001 cycles: 26747253 heartbeat IPC: 0.69094 cumulative IPC: 0.703164 (Simulation time: 0 hr 25 min 46 sec) 
Heartbeat CPU 0 instructions: 56000000 cycles: 28221313 heartbeat IPC: 0.678398 cumulative IPC: 0.698911 (Simulation time: 0 hr 26 min 17 sec) 
Heartbeat CPU 0 instructions: 57000003 cycles: 29687461 heartbeat IPC: 0.682061 cumulative IPC: 0.696453 (Simulation time: 0 hr 26 min 50 sec) 
Heartbeat CPU 0 instructions: 58000003 cycles: 31175797 heartbeat IPC: 0.671891 cumulative IPC: 0.693285 (Simulation time: 0 hr 27 min 28 sec) 
Heartbeat CPU 0 instructions: 59000002 cycles: 32621656 heartbeat IPC: 0.69163 cumulative IPC: 0.693101 (Simulation time: 0 hr 28 min 2 sec) 
Heartbeat CPU 0 instructions: 60000000 cycles: 34053921 heartbeat IPC: 0.698193 cumulative IPC: 0.693607 (Simulation time: 0 hr 28 min 37 sec) 
Heartbeat CPU 0 instructions: 61000003 cycles: 35462961 heartbeat IPC: 0.709705 cumulative IPC: 0.69504 (Simulation time: 0 hr 29 min 12 sec) 
Heartbeat CPU 0 instructions: 62000001 cycles: 36838752 heartbeat IPC: 0.726853 cumulative IPC: 0.697584 (Simulation time: 0 hr 29 min 45 sec) 
Heartbeat CPU 0 instructions: 63000001 cycles: 38230993 heartbeat IPC: 0.718266 cumulative IPC: 0.699133 (Simulation time: 0 hr 30 min 20 sec) 
Heartbeat CPU 0 instructions: 64000000 cycles: 39616074 heartbeat IPC: 0.721979 cumulative IPC: 0.700717 (Simulation time: 0 hr 30 min 54 sec) 
Heartbeat CPU 0 instructions: 65000000 cycles: 41066593 heartbeat IPC: 0.689408 cumulative IPC: 0.699951 (Simulation time: 0 hr 31 min 28 sec) 
Heartbeat CPU 0 instructions: 66000000 cycles: 42469719 heartbeat IPC: 0.712694 cumulative IPC: 0.700734 (Simulation time: 0 hr 32 min 0 sec) 
Heartbeat CPU 0 instructions: 67000000 cycles: 43814932 heartbeat IPC: 0.743377 cumulative IPC: 0.703107 (Simulation time: 0 hr 32 min 31 sec) 
Heartbeat CPU 0 instructions: 68000000 cycles: 45231748 heartbeat IPC: 0.705808 cumulative IPC: 0.703256 (Simulation time: 0 hr 33 min 6 sec) 
Heartbeat CPU 0 instructions: 69000000 cycles: 46586256 heartbeat IPC: 0.738275 cumulative IPC: 0.705016 (Simulation time: 0 hr 33 min 41 sec) 
Heartbeat CPU 0 instructions: 70000000 cycles: 48042286 heartbeat IPC: 0.686799 cumulative IPC: 0.704083 (Simulation time: 0 hr 34 min 15 sec) 
Heartbeat CPU 0 instructions: 71000002 cycles: 49556135 heartbeat IPC: 0.660569 cumulative IPC: 0.701881 (Simulation time: 0 hr 34 min 51 sec) 
Heartbeat CPU 0 instructions: 72000000 cycles: 51869850 heartbeat IPC: 0.432204 cumulative IPC: 0.682524 (Simulation time: 0 hr 35 min 34 sec) 
Heartbeat CPU 0 instructions: 73000002 cycles: 54899781 heartbeat IPC: 0.330041 cumulative IPC: 0.652237 (Simulation time: 0 hr 36 min 25 sec) 
Heartbeat CPU 0 instructions: 74000002 cycles: 61271214 heartbeat IPC: 0.156951 cumulative IPC: 0.576442 (Simulation time: 0 hr 37 min 44 sec) 
Heartbeat CPU 0 instructions: 75000003 cycles: 63533334 heartbeat IPC: 0.442064 cumulative IPC: 0.569518 (Simulation time: 0 hr 38 min 28 sec) 
Heartbeat CPU 0 instructions: 76000000 cycles: 65477018 heartbeat IPC: 0.514485 cumulative IPC: 0.567184 (Simulation time: 0 hr 39 min 8 sec) 
Heartbeat CPU 0 instructions: 77000000 cycles: 66936630 heartbeat IPC: 0.685114 cumulative IPC: 0.570823 (Simulation time: 0 hr 39 min 41 sec) 
Heartbeat CPU 0 instructions: 78000002 cycles: 68404391 heartbeat IPC: 0.681311 cumulative IPC: 0.574149 (Simulation time: 0 hr 40 min 16 sec) 
Heartbeat CPU 0 instructions: 79000000 cycles: 69905818 heartbeat IPC: 0.666032 cumulative IPC: 0.576893 (Simulation time: 0 hr 40 min 48 sec) 
Heartbeat CPU 0 instructions: 80000000 cycles: 71322882 heartbeat IPC: 0.705684 cumulative IPC: 0.580424 (Simulation time: 0 hr 41 min 20 sec) 
Heartbeat CPU 0 instructions: 81000001 cycles: 72594888 heartbeat IPC: 0.786161 cumulative IPC: 0.585366 (Simulation time: 0 hr 41 min 52 sec) 
Heartbeat CPU 0 instructions: 82000002 cycles: 73933190 heartbeat IPC: 0.747216 cumulative IPC: 0.589355 (Simulation time: 0 hr 42 min 25 sec) 
Heartbeat CPU 0 instructions: 83000003 cycles: 75502859 heartbeat IPC: 0.637078 cumulative IPC: 0.590696 (Simulation time: 0 hr 43 min 0 sec) 
Heartbeat CPU 0 instructions: 84000000 cycles: 76925855 heartbeat IPC: 0.702741 cumulative IPC: 0.593479 (Simulation time: 0 hr 43 min 32 sec) 
Heartbeat CPU 0 instructions: 85000000 cycles: 78255814 heartbeat IPC: 0.751903 cumulative IPC: 0.597073 (Simulation time: 0 hr 44 min 1 sec) 
Heartbeat CPU 0 instructions: 86000000 cycles: 79750250 heartbeat IPC: 0.669149 cumulative IPC: 0.598865 (Simulation time: 0 hr 44 min 33 sec) 
Heartbeat CPU 0 instructions: 87000002 cycles: 81186426 heartbeat IPC: 0.696295 cumulative IPC: 0.601138 (Simulation time: 0 hr 45 min 7 sec) 
Heartbeat CPU 0 instructions: 88000000 cycles: 82583886 heartbeat IPC: 0.715583 cumulative IPC: 0.603679 (Simulation time: 0 hr 45 min 38 sec) 
Heartbeat CPU 0 instructions: 89000003 cycles: 83968310 heartbeat IPC: 0.722324 cumulative IPC: 0.606232 (Simulation time: 0 hr 46 min 10 sec) 
Heartbeat CPU 0 instructions: 90000002 cycles: 85455051 heartbeat IPC: 0.672611 cumulative IPC: 0.607732 (Simulation time: 0 hr 46 min 43 sec) 
Heartbeat CPU 0 instructions: 91000001 cycles: 86827487 heartbeat IPC: 0.728631 cumulative IPC: 0.610201 (Simulation time: 0 hr 47 min 15 sec) 
Heartbeat CPU 0 instructions: 92000000 cycles: 88160151 heartbeat IPC: 0.750376 cumulative IPC: 0.612927 (Simulation time: 0 hr 47 min 48 sec) 
Heartbeat CPU 0 instructions: 93000003 cycles: 89646176 heartbeat IPC: 0.672938 cumulative IPC: 0.614201 (Simulation time: 0 hr 48 min 20 sec) 
Heartbeat CPU 0 instructions: 94000002 cycles: 91090678 heartbeat IPC: 0.692279 cumulative IPC: 0.61578 (Simulation time: 0 hr 48 min 54 sec) 
Heartbeat CPU 0 instructions: 95000000 cycles: 92462487 heartbeat IPC: 0.728963 cumulative IPC: 0.617912 (Simulation time: 0 hr 49 min 27 sec) 
Heartbeat CPU 0 instructions: 96000000 cycles: 93795519 heartbeat IPC: 0.75017 cumulative IPC: 0.620289 (Simulation time: 0 hr 50 min 2 sec) 
Heartbeat CPU 0 instructions: 97000002 cycles: 95271471 heartbeat IPC: 0.67753 cumulative IPC: 0.621406 (Simulation time: 0 hr 50 min 35 sec) 
Heartbeat CPU 0 instructions: 98000001 cycles: 96745928 heartbeat IPC: 0.678215 cumulative IPC: 0.622492 (Simulation time: 0 hr 51 min 8 sec) 
Heartbeat CPU 0 instructions: 99000000 cycles: 98144700 heartbeat IPC: 0.714912 cumulative IPC: 0.624139 (Simulation time: 0 hr 51 min 41 sec) 
Heartbeat CPU 0 instructions: 100000000 cycles: 99573436 heartbeat IPC: 0.699919 cumulative IPC: 0.625493 (Simulation time: 0 hr 52 min 15 sec) 
Heartbeat CPU 0 instructions: 101000000 cycles: 100959312 heartbeat IPC: 0.721565 cumulative IPC: 0.627131 (Simulation time: 0 hr 52 min 48 sec) 
Heartbeat CPU 0 instructions: 102000000 cycles: 102405100 heartbeat IPC: 0.691664 cumulative IPC: 0.628258 (Simulation time: 0 hr 53 min 19 sec) 
Heartbeat CPU 0 instructions: 103000001 cycles: 103857359 heartbeat IPC: 0.688583 cumulative IPC: 0.629298 (Simulation time: 0 hr 53 min 51 sec) 
Heartbeat CPU 0 instructions: 104000000 cycles: 105297779 heartbeat IPC: 0.694241 cumulative IPC: 0.63039 (Simulation time: 0 hr 54 min 23 sec) 
Heartbeat CPU 0 instructions: 105000001 cycles: 106716196 heartbeat IPC: 0.705012 cumulative IPC: 0.631606 (Simulation time: 0 hr 54 min 54 sec) 
Heartbeat CPU 0 instructions: 106000000 cycles: 108095767 heartbeat IPC: 0.724862 cumulative IPC: 0.63306 (Simulation time: 0 hr 55 min 29 sec) 
Heartbeat CPU 0 instructions: 107000000 cycles: 109581124 heartbeat IPC: 0.673239 cumulative IPC: 0.633723 (Simulation time: 0 hr 56 min 3 sec) 
Heartbeat CPU 0 instructions: 108000000 cycles: 111064947 heartbeat IPC: 0.673935 cumulative IPC: 0.634376 (Simulation time: 0 hr 56 min 38 sec) 
Heartbeat CPU 0 instructions: 109000003 cycles: 112442650 heartbeat IPC: 0.725848 cumulative IPC: 0.635734 (Simulation time: 0 hr 57 min 17 sec) 
Heartbeat CPU 0 instructions: 110000001 cycles: 113843807 heartbeat IPC: 0.713694 cumulative IPC: 0.636893 (Simulation time: 0 hr 57 min 55 sec) 
Heartbeat CPU 0 instructions: 111000003 cycles: 115305350 heartbeat IPC: 0.68421 cumulative IPC: 0.637616 (Simulation time: 0 hr 58 min 32 sec) 
Heartbeat CPU 0 instructions: 112000000 cycles: 116728838 heartbeat IPC: 0.702498 cumulative IPC: 0.638568 (Simulation time: 0 hr 59 min 7 sec) 
Heartbeat CPU 0 instructions: 113000001 cycles: 118180042 heartbeat IPC: 0.689084 cumulative IPC: 0.639311 (Simulation time: 0 hr 59 min 41 sec) 
Heartbeat CPU 0 instructions: 114000001 cycles: 119686273 heartbeat IPC: 0.663909 cumulative IPC: 0.639682 (Simulation time: 1 hr 0 min 15 sec) 
Heartbeat CPU 0 instructions: 115000000 cycles: 121173110 heartbeat IPC: 0.672568 cumulative IPC: 0.640163 (Simulation time: 1 hr 0 min 50 sec) 
Heartbeat CPU 0 instructions: 116000000 cycles: 122660331 heartbeat IPC: 0.672395 cumulative IPC: 0.640629 (Simulation time: 1 hr 1 min 28 sec) 
Heartbeat CPU 0 instructions: 117000000 cycles: 124157666 heartbeat IPC: 0.667853 cumulative IPC: 0.641019 (Simulation time: 1 hr 2 min 4 sec) 
Heartbeat CPU 0 instructions: 118000002 cycles: 125556066 heartbeat IPC: 0.715104 cumulative IPC: 0.641997 (Simulation time: 1 hr 2 min 39 sec) 
Heartbeat CPU 0 instructions: 119000002 cycles: 126949229 heartbeat IPC: 0.717791 cumulative IPC: 0.642981 (Simulation time: 1 hr 3 min 16 sec) 
Heartbeat CPU 0 instructions: 120000000 cycles: 128497579 heartbeat IPC: 0.645847 cumulative IPC: 0.643022 (Simulation time: 1 hr 3 min 52 sec) 
Heartbeat CPU 0 instructions: 121000002 cycles: 129985908 heartbeat IPC: 0.671896 cumulative IPC: 0.643411 (Simulation time: 1 hr 4 min 27 sec) 
Heartbeat CPU 0 instructions: 122000002 cycles: 131391887 heartbeat IPC: 0.711248 cumulative IPC: 0.644264 (Simulation time: 1 hr 4 min 57 sec) 
Heartbeat CPU 0 instructions: 123000002 cycles: 132850235 heartbeat IPC: 0.685707 cumulative IPC: 0.644798 (Simulation time: 1 hr 5 min 27 sec) 
Heartbeat CPU 0 instructions: 124000000 cycles: 134399929 heartbeat IPC: 0.645287 cumulative IPC: 0.644805 (Simulation time: 1 hr 6 min 3 sec) 
Heartbeat CPU 0 instructions: 125000000 cycles: 135890534 heartbeat IPC: 0.670869 cumulative IPC: 0.645139 (Simulation time: 1 hr 6 min 35 sec) 
Heartbeat CPU 0 instructions: 126000002 cycles: 137412177 heartbeat IPC: 0.657186 cumulative IPC: 0.645295 (Simulation time: 1 hr 7 min 10 sec) 
Heartbeat CPU 0 instructions: 127000000 cycles: 139032951 heartbeat IPC: 0.616988 cumulative IPC: 0.64491 (Simulation time: 1 hr 7 min 45 sec) 
Heartbeat CPU 0 instructions: 128000000 cycles: 140367543 heartbeat IPC: 0.749293 cumulative IPC: 0.646064 (Simulation time: 1 hr 8 min 16 sec) 
Heartbeat CPU 0 instructions: 129000000 cycles: 141799493 heartbeat IPC: 0.698348 cumulative IPC: 0.646677 (Simulation time: 1 hr 8 min 47 sec) 
Heartbeat CPU 0 instructions: 130000000 cycles: 143466081 heartbeat IPC: 0.600028 cumulative IPC: 0.646049 (Simulation time: 1 hr 9 min 19 sec) 
Heartbeat CPU 0 instructions: 131000000 cycles: 144899576 heartbeat IPC: 0.697596 cumulative IPC: 0.646639 (Simulation time: 1 hr 9 min 50 sec) 
Heartbeat CPU 0 instructions: 132000000 cycles: 146304334 heartbeat IPC: 0.711866 cumulative IPC: 0.647363 (Simulation time: 1 hr 10 min 21 sec) 
Heartbeat CPU 0 instructions: 133000001 cycles: 147962498 heartbeat IPC: 0.603077 cumulative IPC: 0.64679 (Simulation time: 1 hr 10 min 53 sec) 
Heartbeat CPU 0 instructions: 134000000 cycles: 149374867 heartbeat IPC: 0.70803 cumulative IPC: 0.647457 (Simulation time: 1 hr 11 min 21 sec) 
Heartbeat CPU 0 instructions: 135000003 cycles: 150855140 heartbeat IPC: 0.675553 cumulative IPC: 0.647774 (Simulation time: 1 hr 11 min 50 sec) 
Heartbeat CPU 0 instructions: 136000000 cycles: 152564119 heartbeat IPC: 0.585143 cumulative IPC: 0.646969 (Simulation time: 1 hr 12 min 24 sec) 
Heartbeat CPU 0 instructions: 137000000 cycles: 153997705 heartbeat IPC: 0.697551 cumulative IPC: 0.647509 (Simulation time: 1 hr 12 min 54 sec) 
Heartbeat CPU 0 instructions: 138000003 cycles: 155392314 heartbeat IPC: 0.717049 cumulative IPC: 0.648223 (Simulation time: 1 hr 13 min 25 sec) 
Heartbeat CPU 0 instructions: 139000000 cycles: 156943607 heartbeat IPC: 0.644622 cumulative IPC: 0.648182 (Simulation time: 1 hr 13 min 55 sec) 
Heartbeat CPU 0 instructions: 140000000 cycles: 158350764 heartbeat IPC: 0.710653 cumulative IPC: 0.648816 (Simulation time: 1 hr 14 min 23 sec) 
Heartbeat CPU 0 instructions: 141000001 cycles: 159870598 heartbeat IPC: 0.657967 cumulative IPC: 0.648915 (Simulation time: 1 hr 14 min 54 sec) 
Heartbeat CPU 0 instructions: 142000003 cycles: 161570861 heartbeat IPC: 0.588145 cumulative IPC: 0.648187 (Simulation time: 1 hr 15 min 23 sec) 
Heartbeat CPU 0 instructions: 143000000 cycles: 163020727 heartbeat IPC: 0.689717 cumulative IPC: 0.648607 (Simulation time: 1 hr 15 min 49 sec) 
Heartbeat CPU 0 instructions: 144000000 cycles: 164494836 heartbeat IPC: 0.678376 cumulative IPC: 0.64891 (Simulation time: 1 hr 16 min 15 sec) 
Heartbeat CPU 0 instructions: 145000000 cycles: 166186740 heartbeat IPC: 0.59105 cumulative IPC: 0.648242 (Simulation time: 1 hr 16 min 40 sec) 
Heartbeat CPU 0 instructions: 146000003 cycles: 167636893 heartbeat IPC: 0.689584 cumulative IPC: 0.648647 (Simulation time: 1 hr 17 min 3 sec) 
Heartbeat CPU 0 instructions: 147000000 cycles: 169104048 heartbeat IPC: 0.681589 cumulative IPC: 0.64897 (Simulation time: 1 hr 17 min 26 sec) 
Heartbeat CPU 0 instructions: 148000000 cycles: 170885151 heartbeat IPC: 0.56145 cumulative IPC: 0.64794 (Simulation time: 1 hr 17 min 51 sec) 
Heartbeat CPU 0 instructions: 149000001 cycles: 172317927 heartbeat IPC: 0.697946 cumulative IPC: 0.648409 (Simulation time: 1 hr 18 min 12 sec) 
Heartbeat CPU 0 instructions: 150000000 cycles: 173756006 heartbeat IPC: 0.695371 cumulative IPC: 0.648847 (Simulation time: 1 hr 18 min 34 sec) 
Finished CPU 0 instructions: 100000003 cycles: 154119512 cummulative IPC: 0.648847 (Simulation time: 1 hr 18 min 34 sec) 

ChampSim completed all CPUs

Region of Interest Statistics

CPU 0 cummulative IPC: 0.648847 instructions: 100000003 cycles: 154119512
LLC TOTAL     ACCESS:    5973007  HIT:    1918034  MISS:    4054973
LLC LOAD      ACCESS:     433420  HIT:      16032  MISS:     417388
LLC RFO       ACCESS:    2551851  HIT:     662575  MISS:    1889276
LLC PREFETCH  ACCESS:     435588  HIT:      21048  MISS:     414540
LLC WRITEBACK ACCESS:    2552148  HIT:    1218379  MISS:    1333769
OPTgen accesses: 66967
OPTgen hits: 21702
OPTgen hit rate: 32.407


