
*** ChampSim Multicore Out-of-Order Simulator ***

Warmup Instructions: 50000000
Simulation Instructions: 100000000
Configuration: 2
Number of CPUs: 1
LLC sets: 2048
LLC ways: 16
Off-chip DRAM Channels: 1 Width: 64-bit Data Rate: 1600 MT/s

CPU 0 runs /datasets/cs240c-wi22-a00-public/data/Assignment2-gz/bzip2_259B.trace.gz
CPU 0 L1D next line prefetcher
CPU 0 L2C IP-based stride prefetcher
Initialize Hawkeye state
Heartbeat CPU 0 instructions: 1000002 cycles: 428875 heartbeat IPC: 2.33169 cumulative IPC: 2.33169 (Simulation time: 0 hr 0 min 34 sec) 
Heartbeat CPU 0 instructions: 2000003 cycles: 861057 heartbeat IPC: 2.31384 cumulative IPC: 2.32273 (Simulation time: 0 hr 1 min 4 sec) 
Heartbeat CPU 0 instructions: 3000001 cycles: 1286790 heartbeat IPC: 2.34889 cumulative IPC: 2.33138 (Simulation time: 0 hr 1 min 35 sec) 
Heartbeat CPU 0 instructions: 4000000 cycles: 1685062 heartbeat IPC: 2.51084 cumulative IPC: 2.3738 (Simulation time: 0 hr 2 min 3 sec) 
Heartbeat CPU 0 instructions: 5000001 cycles: 2103495 heartbeat IPC: 2.38987 cumulative IPC: 2.377 (Simulation time: 0 hr 2 min 32 sec) 
Heartbeat CPU 0 instructions: 6000001 cycles: 2532858 heartbeat IPC: 2.32903 cumulative IPC: 2.36887 (Simulation time: 0 hr 3 min 4 sec) 
Heartbeat CPU 0 instructions: 7000003 cycles: 2961906 heartbeat IPC: 2.33075 cumulative IPC: 2.36334 (Simulation time: 0 hr 3 min 37 sec) 
Heartbeat CPU 0 instructions: 8000000 cycles: 3391719 heartbeat IPC: 2.32659 cumulative IPC: 2.35869 (Simulation time: 0 hr 4 min 9 sec) 
Heartbeat CPU 0 instructions: 9000000 cycles: 3819845 heartbeat IPC: 2.33576 cumulative IPC: 2.35612 (Simulation time: 0 hr 4 min 42 sec) 
Heartbeat CPU 0 instructions: 10000002 cycles: 4193917 heartbeat IPC: 2.67329 cumulative IPC: 2.38441 (Simulation time: 0 hr 5 min 8 sec) 
Heartbeat CPU 0 instructions: 11000003 cycles: 4560316 heartbeat IPC: 2.72927 cumulative IPC: 2.41211 (Simulation time: 0 hr 5 min 36 sec) 
Heartbeat CPU 0 instructions: 12000000 cycles: 5001191 heartbeat IPC: 2.26821 cumulative IPC: 2.39943 (Simulation time: 0 hr 6 min 7 sec) 
Heartbeat CPU 0 instructions: 13000003 cycles: 5458025 heartbeat IPC: 2.18899 cumulative IPC: 2.38181 (Simulation time: 0 hr 6 min 40 sec) 
Heartbeat CPU 0 instructions: 14000002 cycles: 5909699 heartbeat IPC: 2.21398 cumulative IPC: 2.36899 (Simulation time: 0 hr 7 min 12 sec) 
Heartbeat CPU 0 instructions: 15000003 cycles: 6349535 heartbeat IPC: 2.27358 cumulative IPC: 2.36238 (Simulation time: 0 hr 7 min 43 sec) 
Heartbeat CPU 0 instructions: 16000000 cycles: 6790847 heartbeat IPC: 2.26596 cumulative IPC: 2.35611 (Simulation time: 0 hr 8 min 13 sec) 
Heartbeat CPU 0 instructions: 17000003 cycles: 7220656 heartbeat IPC: 2.32662 cumulative IPC: 2.35436 (Simulation time: 0 hr 8 min 46 sec) 
Heartbeat CPU 0 instructions: 18000000 cycles: 7665091 heartbeat IPC: 2.25004 cumulative IPC: 2.34831 (Simulation time: 0 hr 9 min 14 sec) 
Heartbeat CPU 0 instructions: 19000002 cycles: 8147886 heartbeat IPC: 2.07128 cumulative IPC: 2.33189 (Simulation time: 0 hr 9 min 38 sec) 
Heartbeat CPU 0 instructions: 20000000 cycles: 8643239 heartbeat IPC: 2.01876 cumulative IPC: 2.31395 (Simulation time: 0 hr 10 min 2 sec) 
Heartbeat CPU 0 instructions: 21000001 cycles: 9135536 heartbeat IPC: 2.0313 cumulative IPC: 2.29872 (Simulation time: 0 hr 10 min 25 sec) 
Heartbeat CPU 0 instructions: 22000002 cycles: 9619242 heartbeat IPC: 2.06737 cumulative IPC: 2.28708 (Simulation time: 0 hr 10 min 47 sec) 
Heartbeat CPU 0 instructions: 23000003 cycles: 10104880 heartbeat IPC: 2.05915 cumulative IPC: 2.27613 (Simulation time: 0 hr 11 min 9 sec) 
Heartbeat CPU 0 instructions: 24000000 cycles: 10588647 heartbeat IPC: 2.0671 cumulative IPC: 2.26658 (Simulation time: 0 hr 11 min 31 sec) 
Heartbeat CPU 0 instructions: 25000000 cycles: 11073913 heartbeat IPC: 2.06073 cumulative IPC: 2.25756 (Simulation time: 0 hr 11 min 58 sec) 
Heartbeat CPU 0 instructions: 26000003 cycles: 11575248 heartbeat IPC: 1.99468 cumulative IPC: 2.24617 (Simulation time: 0 hr 12 min 22 sec) 
Heartbeat CPU 0 instructions: 27000000 cycles: 12067734 heartbeat IPC: 2.03051 cumulative IPC: 2.23737 (Simulation time: 0 hr 12 min 47 sec) 
Heartbeat CPU 0 instructions: 28000000 cycles: 12556510 heartbeat IPC: 2.04593 cumulative IPC: 2.22992 (Simulation time: 0 hr 13 min 10 sec) 
Heartbeat CPU 0 instructions: 29000000 cycles: 13046259 heartbeat IPC: 2.04186 cumulative IPC: 2.22286 (Simulation time: 0 hr 13 min 31 sec) 
Heartbeat CPU 0 instructions: 30000000 cycles: 13547976 heartbeat IPC: 1.99316 cumulative IPC: 2.21435 (Simulation time: 0 hr 13 min 53 sec) 
Heartbeat CPU 0 instructions: 31000000 cycles: 14111762 heartbeat IPC: 1.77372 cumulative IPC: 2.19675 (Simulation time: 0 hr 14 min 16 sec) 
Heartbeat CPU 0 instructions: 32000000 cycles: 14704895 heartbeat IPC: 1.68596 cumulative IPC: 2.17615 (Simulation time: 0 hr 14 min 37 sec) 
Heartbeat CPU 0 instructions: 33000003 cycles: 15227553 heartbeat IPC: 1.9133 cumulative IPC: 2.16712 (Simulation time: 0 hr 15 min 0 sec) 
Heartbeat CPU 0 instructions: 34000002 cycles: 15629027 heartbeat IPC: 2.49082 cumulative IPC: 2.17544 (Simulation time: 0 hr 15 min 23 sec) 
Heartbeat CPU 0 instructions: 35000003 cycles: 16028400 heartbeat IPC: 2.50393 cumulative IPC: 2.18362 (Simulation time: 0 hr 15 min 45 sec) 
Heartbeat CPU 0 instructions: 36000000 cycles: 16469401 heartbeat IPC: 2.26756 cumulative IPC: 2.18587 (Simulation time: 0 hr 16 min 12 sec) 
Heartbeat CPU 0 instructions: 37000000 cycles: 16860803 heartbeat IPC: 2.55492 cumulative IPC: 2.19444 (Simulation time: 0 hr 16 min 39 sec) 
Heartbeat CPU 0 instructions: 38000000 cycles: 17283217 heartbeat IPC: 2.36735 cumulative IPC: 2.19866 (Simulation time: 0 hr 17 min 10 sec) 
Heartbeat CPU 0 instructions: 39000000 cycles: 17714575 heartbeat IPC: 2.31826 cumulative IPC: 2.20158 (Simulation time: 0 hr 17 min 42 sec) 
Heartbeat CPU 0 instructions: 40000000 cycles: 18136290 heartbeat IPC: 2.37127 cumulative IPC: 2.20552 (Simulation time: 0 hr 18 min 18 sec) 
Heartbeat CPU 0 instructions: 41000001 cycles: 18560819 heartbeat IPC: 2.35555 cumulative IPC: 2.20895 (Simulation time: 0 hr 18 min 52 sec) 
Heartbeat CPU 0 instructions: 42000000 cycles: 18998519 heartbeat IPC: 2.28467 cumulative IPC: 2.2107 (Simulation time: 0 hr 19 min 25 sec) 
Heartbeat CPU 0 instructions: 43000003 cycles: 19431469 heartbeat IPC: 2.30974 cumulative IPC: 2.21291 (Simulation time: 0 hr 20 min 0 sec) 
Heartbeat CPU 0 instructions: 44000000 cycles: 19863446 heartbeat IPC: 2.31493 cumulative IPC: 2.21512 (Simulation time: 0 hr 20 min 34 sec) 
Heartbeat CPU 0 instructions: 45000002 cycles: 20294439 heartbeat IPC: 2.32023 cumulative IPC: 2.21736 (Simulation time: 0 hr 21 min 6 sec) 
Heartbeat CPU 0 instructions: 46000001 cycles: 20725852 heartbeat IPC: 2.31796 cumulative IPC: 2.21945 (Simulation time: 0 hr 21 min 39 sec) 
Heartbeat CPU 0 instructions: 47000003 cycles: 21157211 heartbeat IPC: 2.31826 cumulative IPC: 2.22146 (Simulation time: 0 hr 22 min 11 sec) 
Heartbeat CPU 0 instructions: 48000000 cycles: 21590707 heartbeat IPC: 2.30682 cumulative IPC: 2.22318 (Simulation time: 0 hr 22 min 42 sec) 
Heartbeat CPU 0 instructions: 49000003 cycles: 22028811 heartbeat IPC: 2.28257 cumulative IPC: 2.22436 (Simulation time: 0 hr 23 min 16 sec) 
Heartbeat CPU 0 instructions: 50000003 cycles: 22446610 heartbeat IPC: 2.3935 cumulative IPC: 2.22751 (Simulation time: 0 hr 23 min 50 sec) 

Warmup complete CPU 0 instructions: 50000003 cycles: 22446610 (Simulation time: 0 hr 23 min 50 sec) 

Heartbeat CPU 0 instructions: 51000002 cycles: 23610741 heartbeat IPC: 0.859009 cumulative IPC: 0.859009 (Simulation time: 0 hr 24 min 19 sec) 
Heartbeat CPU 0 instructions: 52000000 cycles: 24728902 heartbeat IPC: 0.894324 cumulative IPC: 0.876311 (Simulation time: 0 hr 24 min 47 sec) 
Heartbeat CPU 0 instructions: 53000001 cycles: 25925167 heartbeat IPC: 0.835936 cumulative IPC: 0.862426 (Simulation time: 0 hr 25 min 17 sec) 
Heartbeat CPU 0 instructions: 54000000 cycles: 27150955 heartbeat IPC: 0.815801 cumulative IPC: 0.850277 (Simulation time: 0 hr 25 min 48 sec) 
Heartbeat CPU 0 instructions: 55000000 cycles: 28302558 heartbeat IPC: 0.868355 cumulative IPC: 0.853832 (Simulation time: 0 hr 26 min 17 sec) 
Heartbeat CPU 0 instructions: 56000000 cycles: 29527424 heartbeat IPC: 0.816416 cumulative IPC: 0.84736 (Simulation time: 0 hr 26 min 47 sec) 
Heartbeat CPU 0 instructions: 57000000 cycles: 30748473 heartbeat IPC: 0.818968 cumulative IPC: 0.843184 (Simulation time: 0 hr 27 min 20 sec) 
Heartbeat CPU 0 instructions: 58000002 cycles: 31781778 heartbeat IPC: 0.96777 cumulative IPC: 0.856974 (Simulation time: 0 hr 27 min 53 sec) 
Heartbeat CPU 0 instructions: 59000000 cycles: 32882681 heartbeat IPC: 0.908343 cumulative IPC: 0.862393 (Simulation time: 0 hr 28 min 19 sec) 
Heartbeat CPU 0 instructions: 60000000 cycles: 34062129 heartbeat IPC: 0.847854 cumulative IPC: 0.860917 (Simulation time: 0 hr 28 min 47 sec) 
Heartbeat CPU 0 instructions: 61000000 cycles: 35206267 heartbeat IPC: 0.87402 cumulative IPC: 0.862092 (Simulation time: 0 hr 29 min 13 sec) 
Heartbeat CPU 0 instructions: 62000002 cycles: 36050092 heartbeat IPC: 1.18508 cumulative IPC: 0.882127 (Simulation time: 0 hr 29 min 38 sec) 
Heartbeat CPU 0 instructions: 63000003 cycles: 36954805 heartbeat IPC: 1.10532 cumulative IPC: 0.896045 (Simulation time: 0 hr 30 min 10 sec) 
Heartbeat CPU 0 instructions: 64000000 cycles: 38037923 heartbeat IPC: 0.923258 cumulative IPC: 0.897936 (Simulation time: 0 hr 30 min 48 sec) 
Heartbeat CPU 0 instructions: 65000003 cycles: 39058749 heartbeat IPC: 0.979602 cumulative IPC: 0.902954 (Simulation time: 0 hr 31 min 29 sec) 
Heartbeat CPU 0 instructions: 66000003 cycles: 40028528 heartbeat IPC: 1.03116 cumulative IPC: 0.910026 (Simulation time: 0 hr 32 min 4 sec) 
Heartbeat CPU 0 instructions: 67000003 cycles: 41103496 heartbeat IPC: 0.93026 cumulative IPC: 0.911192 (Simulation time: 0 hr 32 min 41 sec) 
Heartbeat CPU 0 instructions: 68000000 cycles: 42220368 heartbeat IPC: 0.895355 cumulative IPC: 0.910297 (Simulation time: 0 hr 33 min 18 sec) 
Heartbeat CPU 0 instructions: 69000003 cycles: 43371943 heartbeat IPC: 0.868379 cumulative IPC: 0.90799 (Simulation time: 0 hr 33 min 56 sec) 
Heartbeat CPU 0 instructions: 70000003 cycles: 44644583 heartbeat IPC: 0.785768 cumulative IPC: 0.900983 (Simulation time: 0 hr 34 min 31 sec) 
Heartbeat CPU 0 instructions: 71000000 cycles: 45939861 heartbeat IPC: 0.772033 cumulative IPC: 0.893874 (Simulation time: 0 hr 35 min 6 sec) 
Heartbeat CPU 0 instructions: 72000000 cycles: 47074149 heartbeat IPC: 0.88161 cumulative IPC: 0.893309 (Simulation time: 0 hr 35 min 38 sec) 
Heartbeat CPU 0 instructions: 73000003 cycles: 48387268 heartbeat IPC: 0.761548 cumulative IPC: 0.886639 (Simulation time: 0 hr 36 min 13 sec) 
Heartbeat CPU 0 instructions: 74000001 cycles: 49576827 heartbeat IPC: 0.840646 cumulative IPC: 0.884622 (Simulation time: 0 hr 36 min 49 sec) 
Heartbeat CPU 0 instructions: 75000000 cycles: 50729958 heartbeat IPC: 0.867203 cumulative IPC: 0.883912 (Simulation time: 0 hr 37 min 25 sec) 
Heartbeat CPU 0 instructions: 76000000 cycles: 51834200 heartbeat IPC: 0.905599 cumulative IPC: 0.884727 (Simulation time: 0 hr 38 min 1 sec) 
Heartbeat CPU 0 instructions: 77000003 cycles: 52813528 heartbeat IPC: 1.02111 cumulative IPC: 0.889125 (Simulation time: 0 hr 38 min 34 sec) 
Heartbeat CPU 0 instructions: 78000000 cycles: 53794565 heartbeat IPC: 1.01933 cumulative IPC: 0.8932 (Simulation time: 0 hr 39 min 7 sec) 
Heartbeat CPU 0 instructions: 79000003 cycles: 54894654 heartbeat IPC: 0.90902 cumulative IPC: 0.893736 (Simulation time: 0 hr 39 min 43 sec) 
Heartbeat CPU 0 instructions: 80000000 cycles: 56228237 heartbeat IPC: 0.749857 cumulative IPC: 0.888057 (Simulation time: 0 hr 40 min 18 sec) 
Heartbeat CPU 0 instructions: 81000002 cycles: 57410381 heartbeat IPC: 0.845922 cumulative IPC: 0.886632 (Simulation time: 0 hr 40 min 54 sec) 
Heartbeat CPU 0 instructions: 82000003 cycles: 58540933 heartbeat IPC: 0.884525 cumulative IPC: 0.886566 (Simulation time: 0 hr 41 min 28 sec) 
Heartbeat CPU 0 instructions: 83000002 cycles: 59623041 heartbeat IPC: 0.924121 cumulative IPC: 0.887659 (Simulation time: 0 hr 42 min 3 sec) 
Heartbeat CPU 0 instructions: 84000000 cycles: 60582848 heartbeat IPC: 1.04187 cumulative IPC: 0.89154 (Simulation time: 0 hr 42 min 35 sec) 
Heartbeat CPU 0 instructions: 85000003 cycles: 61542070 heartbeat IPC: 1.04251 cumulative IPC: 0.895245 (Simulation time: 0 hr 43 min 9 sec) 
Heartbeat CPU 0 instructions: 86000003 cycles: 62604526 heartbeat IPC: 0.941215 cumulative IPC: 0.896461 (Simulation time: 0 hr 43 min 41 sec) 
Heartbeat CPU 0 instructions: 87000002 cycles: 63674248 heartbeat IPC: 0.934821 cumulative IPC: 0.897456 (Simulation time: 0 hr 44 min 11 sec) 
Heartbeat CPU 0 instructions: 88000000 cycles: 64804010 heartbeat IPC: 0.88514 cumulative IPC: 0.897128 (Simulation time: 0 hr 44 min 38 sec) 
Heartbeat CPU 0 instructions: 89000002 cycles: 65810377 heartbeat IPC: 0.993675 cumulative IPC: 0.899368 (Simulation time: 0 hr 45 min 4 sec) 
Heartbeat CPU 0 instructions: 90000001 cycles: 66934140 heartbeat IPC: 0.889866 cumulative IPC: 0.899128 (Simulation time: 0 hr 45 min 31 sec) 
Heartbeat CPU 0 instructions: 91000002 cycles: 68047958 heartbeat IPC: 0.897814 cumulative IPC: 0.899096 (Simulation time: 0 hr 45 min 57 sec) 
Heartbeat CPU 0 instructions: 92000000 cycles: 69086216 heartbeat IPC: 0.96315 cumulative IPC: 0.900522 (Simulation time: 0 hr 46 min 24 sec) 
Heartbeat CPU 0 instructions: 93000000 cycles: 70276259 heartbeat IPC: 0.840306 cumulative IPC: 0.899024 (Simulation time: 0 hr 46 min 53 sec) 
Heartbeat CPU 0 instructions: 94000003 cycles: 71452451 heartbeat IPC: 0.850204 cumulative IPC: 0.897852 (Simulation time: 0 hr 47 min 20 sec) 
Heartbeat CPU 0 instructions: 95000002 cycles: 72638456 heartbeat IPC: 0.843166 cumulative IPC: 0.89656 (Simulation time: 0 hr 47 min 46 sec) 
Heartbeat CPU 0 instructions: 96000000 cycles: 73809198 heartbeat IPC: 0.854157 cumulative IPC: 0.895593 (Simulation time: 0 hr 48 min 15 sec) 
Heartbeat CPU 0 instructions: 97000002 cycles: 75026111 heartbeat IPC: 0.821753 cumulative IPC: 0.893884 (Simulation time: 0 hr 48 min 43 sec) 
Heartbeat CPU 0 instructions: 98000000 cycles: 76260025 heartbeat IPC: 0.810428 cumulative IPC: 0.891971 (Simulation time: 0 hr 49 min 11 sec) 
Heartbeat CPU 0 instructions: 99000000 cycles: 77500113 heartbeat IPC: 0.806394 cumulative IPC: 0.890043 (Simulation time: 0 hr 49 min 40 sec) 
Heartbeat CPU 0 instructions: 100000000 cycles: 78742180 heartbeat IPC: 0.80511 cumulative IPC: 0.888169 (Simulation time: 0 hr 50 min 9 sec) 
Heartbeat CPU 0 instructions: 101000003 cycles: 79889497 heartbeat IPC: 0.871601 cumulative IPC: 0.887838 (Simulation time: 0 hr 50 min 36 sec) 
Heartbeat CPU 0 instructions: 102000000 cycles: 81009616 heartbeat IPC: 0.89276 cumulative IPC: 0.887933 (Simulation time: 0 hr 51 min 3 sec) 
Heartbeat CPU 0 instructions: 103000000 cycles: 82110973 heartbeat IPC: 0.907971 cumulative IPC: 0.888302 (Simulation time: 0 hr 51 min 29 sec) 
Heartbeat CPU 0 instructions: 104000000 cycles: 83265228 heartbeat IPC: 0.86636 cumulative IPC: 0.887886 (Simulation time: 0 hr 51 min 56 sec) 
Heartbeat CPU 0 instructions: 105000002 cycles: 84477285 heartbeat IPC: 0.825045 cumulative IPC: 0.886658 (Simulation time: 0 hr 52 min 23 sec) 
Heartbeat CPU 0 instructions: 106000001 cycles: 85610845 heartbeat IPC: 0.882176 cumulative IPC: 0.886578 (Simulation time: 0 hr 52 min 50 sec) 
Heartbeat CPU 0 instructions: 107000000 cycles: 86815612 heartbeat IPC: 0.830035 cumulative IPC: 0.885519 (Simulation time: 0 hr 53 min 18 sec) 
Heartbeat CPU 0 instructions: 108000000 cycles: 88015505 heartbeat IPC: 0.833408 cumulative IPC: 0.884566 (Simulation time: 0 hr 53 min 48 sec) 
Heartbeat CPU 0 instructions: 109000000 cycles: 89027848 heartbeat IPC: 0.987808 cumulative IPC: 0.886135 (Simulation time: 0 hr 54 min 14 sec) 
Heartbeat CPU 0 instructions: 110000000 cycles: 90189971 heartbeat IPC: 0.860494 cumulative IPC: 0.885696 (Simulation time: 0 hr 54 min 43 sec) 
Heartbeat CPU 0 instructions: 111000002 cycles: 91315028 heartbeat IPC: 0.888846 cumulative IPC: 0.885747 (Simulation time: 0 hr 55 min 12 sec) 
Heartbeat CPU 0 instructions: 112000000 cycles: 92462871 heartbeat IPC: 0.871198 cumulative IPC: 0.885509 (Simulation time: 0 hr 55 min 46 sec) 
Heartbeat CPU 0 instructions: 113000003 cycles: 93393202 heartbeat IPC: 1.07489 cumulative IPC: 0.887992 (Simulation time: 0 hr 56 min 19 sec) 
Heartbeat CPU 0 instructions: 114000001 cycles: 94134439 heartbeat IPC: 1.34909 cumulative IPC: 0.89276 (Simulation time: 0 hr 56 min 53 sec) 
Heartbeat CPU 0 instructions: 115000001 cycles: 95262995 heartbeat IPC: 0.886088 cumulative IPC: 0.892656 (Simulation time: 0 hr 57 min 31 sec) 
Heartbeat CPU 0 instructions: 116000000 cycles: 96237213 heartbeat IPC: 1.02646 cumulative IPC: 0.894423 (Simulation time: 0 hr 58 min 13 sec) 
Heartbeat CPU 0 instructions: 117000003 cycles: 97192202 heartbeat IPC: 1.04714 cumulative IPC: 0.896374 (Simulation time: 0 hr 58 min 53 sec) 
Heartbeat CPU 0 instructions: 118000001 cycles: 98131573 heartbeat IPC: 1.06454 cumulative IPC: 0.898461 (Simulation time: 0 hr 59 min 31 sec) 
Heartbeat CPU 0 instructions: 119000001 cycles: 99204347 heartbeat IPC: 0.932163 cumulative IPC: 0.898932 (Simulation time: 1 hr 0 min 12 sec) 
Heartbeat CPU 0 instructions: 120000000 cycles: 100413183 heartbeat IPC: 0.827241 cumulative IPC: 0.897821 (Simulation time: 1 hr 0 min 50 sec) 
Heartbeat CPU 0 instructions: 121000002 cycles: 101570731 heartbeat IPC: 0.863897 cumulative IPC: 0.897324 (Simulation time: 1 hr 1 min 27 sec) 
Heartbeat CPU 0 instructions: 122000000 cycles: 103095038 heartbeat IPC: 0.656035 cumulative IPC: 0.892764 (Simulation time: 1 hr 2 min 7 sec) 
Heartbeat CPU 0 instructions: 123000000 cycles: 104429166 heartbeat IPC: 0.749553 cumulative IPC: 0.890433 (Simulation time: 1 hr 2 min 43 sec) 
Heartbeat CPU 0 instructions: 124000000 cycles: 105697120 heartbeat IPC: 0.788672 cumulative IPC: 0.888883 (Simulation time: 1 hr 3 min 22 sec) 
Heartbeat CPU 0 instructions: 125000001 cycles: 106895415 heartbeat IPC: 0.83452 cumulative IPC: 0.888112 (Simulation time: 1 hr 4 min 0 sec) 
Heartbeat CPU 0 instructions: 126000002 cycles: 107924054 heartbeat IPC: 0.972159 cumulative IPC: 0.889123 (Simulation time: 1 hr 4 min 37 sec) 
Heartbeat CPU 0 instructions: 127000001 cycles: 108973767 heartbeat IPC: 0.95264 cumulative IPC: 0.889894 (Simulation time: 1 hr 5 min 11 sec) 
Heartbeat CPU 0 instructions: 128000000 cycles: 110067265 heartbeat IPC: 0.914496 cumulative IPC: 0.890201 (Simulation time: 1 hr 5 min 41 sec) 
Heartbeat CPU 0 instructions: 129000001 cycles: 111263183 heartbeat IPC: 0.836179 cumulative IPC: 0.889474 (Simulation time: 1 hr 6 min 12 sec) 
Heartbeat CPU 0 instructions: 130000001 cycles: 112561341 heartbeat IPC: 0.770322 cumulative IPC: 0.887757 (Simulation time: 1 hr 6 min 47 sec) 
Heartbeat CPU 0 instructions: 131000003 cycles: 113816631 heartbeat IPC: 0.79663 cumulative IPC: 0.886505 (Simulation time: 1 hr 7 min 25 sec) 
Heartbeat CPU 0 instructions: 132000000 cycles: 114861540 heartbeat IPC: 0.957018 cumulative IPC: 0.887302 (Simulation time: 1 hr 7 min 58 sec) 
Heartbeat CPU 0 instructions: 133000001 cycles: 115857497 heartbeat IPC: 1.00406 cumulative IPC: 0.888547 (Simulation time: 1 hr 8 min 27 sec) 
Heartbeat CPU 0 instructions: 134000002 cycles: 116849128 heartbeat IPC: 1.00844 cumulative IPC: 0.889807 (Simulation time: 1 hr 8 min 57 sec) 
Heartbeat CPU 0 instructions: 135000000 cycles: 117856540 heartbeat IPC: 0.992641 cumulative IPC: 0.890893 (Simulation time: 1 hr 9 min 26 sec) 
Heartbeat CPU 0 instructions: 136000000 cycles: 118788095 heartbeat IPC: 1.07347 cumulative IPC: 0.892658 (Simulation time: 1 hr 9 min 53 sec) 
Heartbeat CPU 0 instructions: 137000000 cycles: 119725505 heartbeat IPC: 1.06677 cumulative IPC: 0.894336 (Simulation time: 1 hr 10 min 22 sec) 
Heartbeat CPU 0 instructions: 138000003 cycles: 120653509 heartbeat IPC: 1.07758 cumulative IPC: 0.896067 (Simulation time: 1 hr 10 min 47 sec) 
Heartbeat CPU 0 instructions: 139000001 cycles: 121726437 heartbeat IPC: 0.932027 cumulative IPC: 0.896456 (Simulation time: 1 hr 11 min 15 sec) 
Heartbeat CPU 0 instructions: 140000000 cycles: 122749467 heartbeat IPC: 0.977487 cumulative IPC: 0.897282 (Simulation time: 1 hr 11 min 41 sec) 
Heartbeat CPU 0 instructions: 141000000 cycles: 123822823 heartbeat IPC: 0.931657 cumulative IPC: 0.897646 (Simulation time: 1 hr 12 min 7 sec) 
Heartbeat CPU 0 instructions: 142000000 cycles: 124740576 heartbeat IPC: 1.08962 cumulative IPC: 0.899369 (Simulation time: 1 hr 12 min 38 sec) 
Heartbeat CPU 0 instructions: 143000001 cycles: 125535097 heartbeat IPC: 1.25862 cumulative IPC: 0.902138 (Simulation time: 1 hr 13 min 4 sec) 
Heartbeat CPU 0 instructions: 144000000 cycles: 126357772 heartbeat IPC: 1.21555 cumulative IPC: 0.904619 (Simulation time: 1 hr 13 min 32 sec) 
Heartbeat CPU 0 instructions: 145000001 cycles: 127354761 heartbeat IPC: 1.00302 cumulative IPC: 0.905554 (Simulation time: 1 hr 14 min 2 sec) 
Heartbeat CPU 0 instructions: 146000000 cycles: 128308113 heartbeat IPC: 1.04893 cumulative IPC: 0.906845 (Simulation time: 1 hr 14 min 27 sec) 
Heartbeat CPU 0 instructions: 147000001 cycles: 129311764 heartbeat IPC: 0.996363 cumulative IPC: 0.907686 (Simulation time: 1 hr 14 min 50 sec) 
Heartbeat CPU 0 instructions: 148000000 cycles: 130289539 heartbeat IPC: 1.02273 cumulative IPC: 0.908729 (Simulation time: 1 hr 15 min 15 sec) 
Heartbeat CPU 0 instructions: 149000003 cycles: 131282514 heartbeat IPC: 1.00708 cumulative IPC: 0.909626 (Simulation time: 1 hr 15 min 37 sec) 
Heartbeat CPU 0 instructions: 150000003 cycles: 132294942 heartbeat IPC: 0.987725 cumulative IPC: 0.910346 (Simulation time: 1 hr 16 min 3 sec) 
Finished CPU 0 instructions: 100000000 cycles: 109848332 cummulative IPC: 0.910346 (Simulation time: 1 hr 16 min 3 sec) 

ChampSim completed all CPUs

Region of Interest Statistics

CPU 0 cummulative IPC: 0.910346 instructions: 100000000 cycles: 109848332
LLC TOTAL     ACCESS:    1666370  HIT:    1313079  MISS:     353291
LLC LOAD      ACCESS:     531454  HIT:     453192  MISS:      78262
LLC RFO       ACCESS:     108420  HIT:      63250  MISS:      45170
LLC PREFETCH  ACCESS:     824397  HIT:     622562  MISS:     201835
LLC WRITEBACK ACCESS:     202099  HIT:     174075  MISS:      28024
OPTgen accesses: 12325
OPTgen hits: 12867
OPTgen hit rate: 104.398


