
*** ChampSim Multicore Out-of-Order Simulator ***

Warmup Instructions: 50000000
Simulation Instructions: 100000000
Configuration: 2
Number of CPUs: 1
LLC sets: 2048
LLC ways: 16
Off-chip DRAM Channels: 1 Width: 64-bit Data Rate: 1600 MT/s

CPU 0 runs /datasets/cs240c-wi22-a00-public/data/Assignment2-gz/lbm_564B.trace.gz
CPU 0 L1D next line prefetcher
CPU 0 L2C IP-based stride prefetcher
Initialize Hawkeye state
Heartbeat CPU 0 instructions: 1000000 cycles: 390168 heartbeat IPC: 2.563 cumulative IPC: 2.563 (Simulation time: 0 hr 0 min 30 sec) 
Heartbeat CPU 0 instructions: 2000003 cycles: 785204 heartbeat IPC: 2.53142 cumulative IPC: 2.54711 (Simulation time: 0 hr 1 min 1 sec) 
Heartbeat CPU 0 instructions: 3000002 cycles: 1175398 heartbeat IPC: 2.56283 cumulative IPC: 2.55233 (Simulation time: 0 hr 1 min 31 sec) 
Heartbeat CPU 0 instructions: 4000000 cycles: 1565574 heartbeat IPC: 2.56294 cumulative IPC: 2.55497 (Simulation time: 0 hr 2 min 4 sec) 
Heartbeat CPU 0 instructions: 5000000 cycles: 1960690 heartbeat IPC: 2.5309 cumulative IPC: 2.55012 (Simulation time: 0 hr 2 min 34 sec) 
Heartbeat CPU 0 instructions: 6000002 cycles: 2350864 heartbeat IPC: 2.56296 cumulative IPC: 2.55225 (Simulation time: 0 hr 3 min 5 sec) 
Heartbeat CPU 0 instructions: 7000001 cycles: 2741130 heartbeat IPC: 2.56235 cumulative IPC: 2.55369 (Simulation time: 0 hr 3 min 36 sec) 
Heartbeat CPU 0 instructions: 8000000 cycles: 3136126 heartbeat IPC: 2.53167 cumulative IPC: 2.55092 (Simulation time: 0 hr 4 min 6 sec) 
Heartbeat CPU 0 instructions: 9000000 cycles: 3526365 heartbeat IPC: 2.56253 cumulative IPC: 2.5522 (Simulation time: 0 hr 4 min 35 sec) 
Heartbeat CPU 0 instructions: 10000002 cycles: 3916516 heartbeat IPC: 2.56312 cumulative IPC: 2.55329 (Simulation time: 0 hr 5 min 4 sec) 
Heartbeat CPU 0 instructions: 11000000 cycles: 4306749 heartbeat IPC: 2.56257 cumulative IPC: 2.55413 (Simulation time: 0 hr 5 min 37 sec) 
Heartbeat CPU 0 instructions: 12000000 cycles: 4701704 heartbeat IPC: 2.53193 cumulative IPC: 2.55227 (Simulation time: 0 hr 6 min 6 sec) 
Heartbeat CPU 0 instructions: 13000001 cycles: 5091909 heartbeat IPC: 2.56276 cumulative IPC: 2.55307 (Simulation time: 0 hr 6 min 37 sec) 
Heartbeat CPU 0 instructions: 14000003 cycles: 5482093 heartbeat IPC: 2.5629 cumulative IPC: 2.55377 (Simulation time: 0 hr 7 min 5 sec) 
Heartbeat CPU 0 instructions: 15000000 cycles: 5877150 heartbeat IPC: 2.53127 cumulative IPC: 2.55226 (Simulation time: 0 hr 7 min 36 sec) 
Heartbeat CPU 0 instructions: 16000000 cycles: 6267359 heartbeat IPC: 2.56273 cumulative IPC: 2.55291 (Simulation time: 0 hr 8 min 5 sec) 
Heartbeat CPU 0 instructions: 17000000 cycles: 6657556 heartbeat IPC: 2.56281 cumulative IPC: 2.55349 (Simulation time: 0 hr 8 min 33 sec) 
Heartbeat CPU 0 instructions: 18000000 cycles: 7052641 heartbeat IPC: 2.5311 cumulative IPC: 2.55224 (Simulation time: 0 hr 9 min 2 sec) 
Heartbeat CPU 0 instructions: 19000001 cycles: 7442806 heartbeat IPC: 2.56302 cumulative IPC: 2.5528 (Simulation time: 0 hr 9 min 32 sec) 
Heartbeat CPU 0 instructions: 20000000 cycles: 7832985 heartbeat IPC: 2.56292 cumulative IPC: 2.55331 (Simulation time: 0 hr 10 min 6 sec) 
Heartbeat CPU 0 instructions: 21000003 cycles: 8223168 heartbeat IPC: 2.56291 cumulative IPC: 2.55376 (Simulation time: 0 hr 10 min 36 sec) 
Heartbeat CPU 0 instructions: 22000002 cycles: 8687180 heartbeat IPC: 2.15511 cumulative IPC: 2.53247 (Simulation time: 0 hr 11 min 10 sec) 
Heartbeat CPU 0 instructions: 23000003 cycles: 9180363 heartbeat IPC: 2.02765 cumulative IPC: 2.50535 (Simulation time: 0 hr 11 min 49 sec) 
Heartbeat CPU 0 instructions: 24000000 cycles: 10024382 heartbeat IPC: 1.1848 cumulative IPC: 2.39416 (Simulation time: 0 hr 12 min 37 sec) 
Heartbeat CPU 0 instructions: 25000003 cycles: 10553046 heartbeat IPC: 1.89157 cumulative IPC: 2.36898 (Simulation time: 0 hr 13 min 14 sec) 
Heartbeat CPU 0 instructions: 26000002 cycles: 11043397 heartbeat IPC: 2.03935 cumulative IPC: 2.35435 (Simulation time: 0 hr 13 min 48 sec) 
Heartbeat CPU 0 instructions: 27000001 cycles: 11433680 heartbeat IPC: 2.56224 cumulative IPC: 2.36144 (Simulation time: 0 hr 14 min 18 sec) 
Heartbeat CPU 0 instructions: 28000000 cycles: 11824029 heartbeat IPC: 2.56181 cumulative IPC: 2.36806 (Simulation time: 0 hr 14 min 48 sec) 
Heartbeat CPU 0 instructions: 29000002 cycles: 12214334 heartbeat IPC: 2.5621 cumulative IPC: 2.37426 (Simulation time: 0 hr 15 min 19 sec) 
Heartbeat CPU 0 instructions: 30000000 cycles: 12609460 heartbeat IPC: 2.53083 cumulative IPC: 2.37917 (Simulation time: 0 hr 15 min 49 sec) 
Heartbeat CPU 0 instructions: 31000000 cycles: 12999777 heartbeat IPC: 2.56202 cumulative IPC: 2.38466 (Simulation time: 0 hr 16 min 20 sec) 
Heartbeat CPU 0 instructions: 32000000 cycles: 13390118 heartbeat IPC: 2.56186 cumulative IPC: 2.38982 (Simulation time: 0 hr 16 min 50 sec) 
Heartbeat CPU 0 instructions: 33000001 cycles: 13785267 heartbeat IPC: 2.53069 cumulative IPC: 2.39386 (Simulation time: 0 hr 17 min 22 sec) 
Heartbeat CPU 0 instructions: 34000001 cycles: 14175493 heartbeat IPC: 2.56262 cumulative IPC: 2.39851 (Simulation time: 0 hr 17 min 53 sec) 
Heartbeat CPU 0 instructions: 35000002 cycles: 14565853 heartbeat IPC: 2.56174 cumulative IPC: 2.40288 (Simulation time: 0 hr 18 min 24 sec) 
Heartbeat CPU 0 instructions: 36000000 cycles: 14956109 heartbeat IPC: 2.56242 cumulative IPC: 2.40704 (Simulation time: 0 hr 18 min 54 sec) 
Heartbeat CPU 0 instructions: 37000003 cycles: 15351206 heartbeat IPC: 2.53103 cumulative IPC: 2.41023 (Simulation time: 0 hr 19 min 27 sec) 
Heartbeat CPU 0 instructions: 38000003 cycles: 15741508 heartbeat IPC: 2.56212 cumulative IPC: 2.414 (Simulation time: 0 hr 19 min 57 sec) 
Heartbeat CPU 0 instructions: 39000002 cycles: 16131860 heartbeat IPC: 2.56179 cumulative IPC: 2.41758 (Simulation time: 0 hr 20 min 26 sec) 
Heartbeat CPU 0 instructions: 40000000 cycles: 16526886 heartbeat IPC: 2.53147 cumulative IPC: 2.4203 (Simulation time: 0 hr 20 min 59 sec) 
Heartbeat CPU 0 instructions: 41000000 cycles: 16917190 heartbeat IPC: 2.56211 cumulative IPC: 2.42357 (Simulation time: 0 hr 21 min 30 sec) 
Heartbeat CPU 0 instructions: 42000002 cycles: 17307546 heartbeat IPC: 2.56177 cumulative IPC: 2.42669 (Simulation time: 0 hr 22 min 1 sec) 
Heartbeat CPU 0 instructions: 43000001 cycles: 17702665 heartbeat IPC: 2.53088 cumulative IPC: 2.42901 (Simulation time: 0 hr 22 min 32 sec) 
Heartbeat CPU 0 instructions: 44000000 cycles: 18092954 heartbeat IPC: 2.5622 cumulative IPC: 2.43189 (Simulation time: 0 hr 23 min 3 sec) 
Heartbeat CPU 0 instructions: 45000001 cycles: 18483300 heartbeat IPC: 2.56183 cumulative IPC: 2.43463 (Simulation time: 0 hr 23 min 32 sec) 
Heartbeat CPU 0 instructions: 46000002 cycles: 18873612 heartbeat IPC: 2.56206 cumulative IPC: 2.43727 (Simulation time: 0 hr 24 min 2 sec) 
Heartbeat CPU 0 instructions: 47000002 cycles: 19268654 heartbeat IPC: 2.53138 cumulative IPC: 2.43919 (Simulation time: 0 hr 24 min 34 sec) 
Heartbeat CPU 0 instructions: 48000000 cycles: 19658980 heartbeat IPC: 2.56196 cumulative IPC: 2.44163 (Simulation time: 0 hr 25 min 2 sec) 
Heartbeat CPU 0 instructions: 49000003 cycles: 20049316 heartbeat IPC: 2.5619 cumulative IPC: 2.44397 (Simulation time: 0 hr 25 min 33 sec) 
Heartbeat CPU 0 instructions: 50000002 cycles: 20444440 heartbeat IPC: 2.53085 cumulative IPC: 2.44565 (Simulation time: 0 hr 26 min 4 sec) 

Warmup complete CPU 0 instructions: 50000002 cycles: 20444440 (Simulation time: 0 hr 26 min 4 sec) 

Heartbeat CPU 0 instructions: 51000002 cycles: 21850121 heartbeat IPC: 0.711399 cumulative IPC: 0.711399 (Simulation time: 0 hr 26 min 42 sec) 
Heartbeat CPU 0 instructions: 52000000 cycles: 23294133 heartbeat IPC: 0.692514 cumulative IPC: 0.701829 (Simulation time: 0 hr 27 min 18 sec) 
Heartbeat CPU 0 instructions: 53000001 cycles: 24723752 heartbeat IPC: 0.699488 cumulative IPC: 0.701047 (Simulation time: 0 hr 27 min 53 sec) 
Heartbeat CPU 0 instructions: 54000001 cycles: 26144126 heartbeat IPC: 0.70404 cumulative IPC: 0.701793 (Simulation time: 0 hr 28 min 28 sec) 
Heartbeat CPU 0 instructions: 55000003 cycles: 27574683 heartbeat IPC: 0.69903 cumulative IPC: 0.701239 (Simulation time: 0 hr 29 min 2 sec) 
Heartbeat CPU 0 instructions: 56000000 cycles: 29048298 heartbeat IPC: 0.678601 cumulative IPC: 0.697361 (Simulation time: 0 hr 29 min 39 sec) 
Heartbeat CPU 0 instructions: 57000001 cycles: 30526702 heartbeat IPC: 0.676406 cumulative IPC: 0.694289 (Simulation time: 0 hr 30 min 15 sec) 
Heartbeat CPU 0 instructions: 58000002 cycles: 31999325 heartbeat IPC: 0.679061 cumulative IPC: 0.692348 (Simulation time: 0 hr 30 min 51 sec) 
Heartbeat CPU 0 instructions: 59000001 cycles: 33403113 heartbeat IPC: 0.712358 cumulative IPC: 0.694515 (Simulation time: 0 hr 31 min 26 sec) 
Heartbeat CPU 0 instructions: 60000000 cycles: 34868549 heartbeat IPC: 0.68239 cumulative IPC: 0.693284 (Simulation time: 0 hr 32 min 5 sec) 
Heartbeat CPU 0 instructions: 61000003 cycles: 36380420 heartbeat IPC: 0.661434 cumulative IPC: 0.690262 (Simulation time: 0 hr 32 min 44 sec) 
Heartbeat CPU 0 instructions: 62000003 cycles: 37789231 heartbeat IPC: 0.709818 cumulative IPC: 0.69185 (Simulation time: 0 hr 33 min 20 sec) 
Heartbeat CPU 0 instructions: 63000000 cycles: 39305796 heartbeat IPC: 0.659383 cumulative IPC: 0.68924 (Simulation time: 0 hr 33 min 56 sec) 
Heartbeat CPU 0 instructions: 64000000 cycles: 40835325 heartbeat IPC: 0.653796 cumulative IPC: 0.686581 (Simulation time: 0 hr 34 min 30 sec) 
Heartbeat CPU 0 instructions: 65000003 cycles: 42259393 heartbeat IPC: 0.702216 cumulative IPC: 0.687602 (Simulation time: 0 hr 35 min 4 sec) 
Heartbeat CPU 0 instructions: 66000001 cycles: 43564383 heartbeat IPC: 0.766288 cumulative IPC: 0.692043 (Simulation time: 0 hr 35 min 37 sec) 
Heartbeat CPU 0 instructions: 67000001 cycles: 45114267 heartbeat IPC: 0.64521 cumulative IPC: 0.689101 (Simulation time: 0 hr 36 min 12 sec) 
Heartbeat CPU 0 instructions: 68000000 cycles: 46693035 heartbeat IPC: 0.633405 cumulative IPC: 0.685751 (Simulation time: 0 hr 36 min 49 sec) 
Heartbeat CPU 0 instructions: 69000003 cycles: 48092664 heartbeat IPC: 0.714477 cumulative IPC: 0.687205 (Simulation time: 0 hr 37 min 24 sec) 
Heartbeat CPU 0 instructions: 70000003 cycles: 49427219 heartbeat IPC: 0.749313 cumulative IPC: 0.690065 (Simulation time: 0 hr 37 min 58 sec) 
Heartbeat CPU 0 instructions: 71000000 cycles: 50929084 heartbeat IPC: 0.665837 cumulative IPC: 0.688871 (Simulation time: 0 hr 38 min 34 sec) 
Heartbeat CPU 0 instructions: 72000000 cycles: 52386280 heartbeat IPC: 0.686249 cumulative IPC: 0.688752 (Simulation time: 0 hr 39 min 12 sec) 
Heartbeat CPU 0 instructions: 73000003 cycles: 53890216 heartbeat IPC: 0.664924 cumulative IPC: 0.68768 (Simulation time: 0 hr 39 min 49 sec) 
Heartbeat CPU 0 instructions: 74000002 cycles: 55513297 heartbeat IPC: 0.616112 cumulative IPC: 0.684368 (Simulation time: 0 hr 40 min 26 sec) 
Heartbeat CPU 0 instructions: 75000002 cycles: 56937113 heartbeat IPC: 0.702338 cumulative IPC: 0.685069 (Simulation time: 0 hr 41 min 3 sec) 
Heartbeat CPU 0 instructions: 76000000 cycles: 58432833 heartbeat IPC: 0.668573 cumulative IPC: 0.68442 (Simulation time: 0 hr 41 min 39 sec) 
Heartbeat CPU 0 instructions: 77000001 cycles: 60048211 heartbeat IPC: 0.619051 cumulative IPC: 0.681753 (Simulation time: 0 hr 42 min 20 sec) 
Heartbeat CPU 0 instructions: 78000002 cycles: 61499853 heartbeat IPC: 0.688876 cumulative IPC: 0.682005 (Simulation time: 0 hr 42 min 56 sec) 
Heartbeat CPU 0 instructions: 79000000 cycles: 62987255 heartbeat IPC: 0.672312 cumulative IPC: 0.681666 (Simulation time: 0 hr 43 min 34 sec) 
Heartbeat CPU 0 instructions: 80000000 cycles: 64646453 heartbeat IPC: 0.602701 cumulative IPC: 0.678702 (Simulation time: 0 hr 44 min 10 sec) 
Heartbeat CPU 0 instructions: 81000003 cycles: 66028476 heartbeat IPC: 0.723579 cumulative IPC: 0.680063 (Simulation time: 0 hr 44 min 44 sec) 
Heartbeat CPU 0 instructions: 82000001 cycles: 67473369 heartbeat IPC: 0.692091 cumulative IPC: 0.680432 (Simulation time: 0 hr 45 min 19 sec) 
Heartbeat CPU 0 instructions: 83000001 cycles: 69081789 heartbeat IPC: 0.621728 cumulative IPC: 0.678491 (Simulation time: 0 hr 46 min 1 sec) 
Heartbeat CPU 0 instructions: 84000000 cycles: 70590911 heartbeat IPC: 0.662636 cumulative IPC: 0.678014 (Simulation time: 0 hr 46 min 37 sec) 
Heartbeat CPU 0 instructions: 85000002 cycles: 71995019 heartbeat IPC: 0.712197 cumulative IPC: 0.678945 (Simulation time: 0 hr 47 min 12 sec) 
Heartbeat CPU 0 instructions: 86000001 cycles: 73562244 heartbeat IPC: 0.63807 cumulative IPC: 0.677739 (Simulation time: 0 hr 47 min 49 sec) 
Heartbeat CPU 0 instructions: 87000003 cycles: 75061283 heartbeat IPC: 0.667095 cumulative IPC: 0.677447 (Simulation time: 0 hr 48 min 23 sec) 
Heartbeat CPU 0 instructions: 88000000 cycles: 76484278 heartbeat IPC: 0.702741 cumulative IPC: 0.678089 (Simulation time: 0 hr 48 min 58 sec) 
Heartbeat CPU 0 instructions: 89000003 cycles: 78116501 heartbeat IPC: 0.612663 cumulative IPC: 0.676237 (Simulation time: 0 hr 49 min 36 sec) 
Heartbeat CPU 0 instructions: 90000001 cycles: 79702045 heartbeat IPC: 0.630697 cumulative IPC: 0.675019 (Simulation time: 0 hr 50 min 11 sec) 
Heartbeat CPU 0 instructions: 91000000 cycles: 81104057 heartbeat IPC: 0.71326 cumulative IPC: 0.675903 (Simulation time: 0 hr 50 min 45 sec) 
Heartbeat CPU 0 instructions: 92000000 cycles: 82623263 heartbeat IPC: 0.658239 cumulative IPC: 0.675471 (Simulation time: 0 hr 51 min 24 sec) 
Heartbeat CPU 0 instructions: 93000003 cycles: 84156978 heartbeat IPC: 0.652014 cumulative IPC: 0.674906 (Simulation time: 0 hr 52 min 2 sec) 
Heartbeat CPU 0 instructions: 94000002 cycles: 85554563 heartbeat IPC: 0.715519 cumulative IPC: 0.675778 (Simulation time: 0 hr 52 min 38 sec) 
Heartbeat CPU 0 instructions: 95000001 cycles: 87188599 heartbeat IPC: 0.611981 cumulative IPC: 0.674216 (Simulation time: 0 hr 53 min 14 sec) 
Heartbeat CPU 0 instructions: 96000000 cycles: 88804144 heartbeat IPC: 0.618986 cumulative IPC: 0.672911 (Simulation time: 0 hr 53 min 51 sec) 
Heartbeat CPU 0 instructions: 97000002 cycles: 90233786 heartbeat IPC: 0.699477 cumulative IPC: 0.673455 (Simulation time: 0 hr 54 min 26 sec) 
Heartbeat CPU 0 instructions: 98000000 cycles: 91877455 heartbeat IPC: 0.608394 cumulative IPC: 0.671958 (Simulation time: 0 hr 55 min 4 sec) 
Heartbeat CPU 0 instructions: 99000001 cycles: 93429709 heartbeat IPC: 0.644225 cumulative IPC: 0.671368 (Simulation time: 0 hr 55 min 45 sec) 
Heartbeat CPU 0 instructions: 100000000 cycles: 94835830 heartbeat IPC: 0.711176 cumulative IPC: 0.672121 (Simulation time: 0 hr 56 min 24 sec) 
Heartbeat CPU 0 instructions: 101000002 cycles: 96457054 heartbeat IPC: 0.616819 cumulative IPC: 0.670941 (Simulation time: 0 hr 57 min 4 sec) 
Heartbeat CPU 0 instructions: 102000002 cycles: 98006431 heartbeat IPC: 0.645421 cumulative IPC: 0.670431 (Simulation time: 0 hr 57 min 41 sec) 
Heartbeat CPU 0 instructions: 103000001 cycles: 99428080 heartbeat IPC: 0.703408 cumulative IPC: 0.671025 (Simulation time: 0 hr 58 min 22 sec) 
Heartbeat CPU 0 instructions: 104000000 cycles: 101101678 heartbeat IPC: 0.597514 cumulative IPC: 0.6695 (Simulation time: 0 hr 59 min 8 sec) 
Heartbeat CPU 0 instructions: 105000001 cycles: 102656251 heartbeat IPC: 0.643264 cumulative IPC: 0.669004 (Simulation time: 0 hr 59 min 46 sec) 
Heartbeat CPU 0 instructions: 106000001 cycles: 104100991 heartbeat IPC: 0.692166 cumulative IPC: 0.669404 (Simulation time: 1 hr 0 min 20 sec) 
Heartbeat CPU 0 instructions: 107000001 cycles: 105778271 heartbeat IPC: 0.596203 cumulative IPC: 0.667965 (Simulation time: 1 hr 0 min 59 sec) 
Heartbeat CPU 0 instructions: 108000000 cycles: 107356335 heartbeat IPC: 0.633687 cumulative IPC: 0.667342 (Simulation time: 1 hr 1 min 38 sec) 
Heartbeat CPU 0 instructions: 109000003 cycles: 108733473 heartbeat IPC: 0.726146 cumulative IPC: 0.66826 (Simulation time: 1 hr 2 min 18 sec) 
Heartbeat CPU 0 instructions: 110000001 cycles: 110429908 heartbeat IPC: 0.58947 cumulative IPC: 0.666774 (Simulation time: 1 hr 2 min 59 sec) 
Heartbeat CPU 0 instructions: 111000002 cycles: 111986938 heartbeat IPC: 0.642249 cumulative IPC: 0.666357 (Simulation time: 1 hr 3 min 38 sec) 
Heartbeat CPU 0 instructions: 112000000 cycles: 113488600 heartbeat IPC: 0.665927 cumulative IPC: 0.66635 (Simulation time: 1 hr 4 min 13 sec) 
Heartbeat CPU 0 instructions: 113000001 cycles: 115164119 heartbeat IPC: 0.596831 cumulative IPC: 0.66512 (Simulation time: 1 hr 4 min 54 sec) 
Heartbeat CPU 0 instructions: 114000002 cycles: 116659701 heartbeat IPC: 0.668637 cumulative IPC: 0.665175 (Simulation time: 1 hr 5 min 33 sec) 
Heartbeat CPU 0 instructions: 115000002 cycles: 118101339 heartbeat IPC: 0.693655 cumulative IPC: 0.665596 (Simulation time: 1 hr 6 min 9 sec) 
Heartbeat CPU 0 instructions: 116000000 cycles: 119843930 heartbeat IPC: 0.573857 cumulative IPC: 0.663987 (Simulation time: 1 hr 6 min 49 sec) 
Heartbeat CPU 0 instructions: 117000001 cycles: 121310550 heartbeat IPC: 0.681841 cumulative IPC: 0.664247 (Simulation time: 1 hr 7 min 29 sec) 
Heartbeat CPU 0 instructions: 118000003 cycles: 122764262 heartbeat IPC: 0.687896 cumulative IPC: 0.664583 (Simulation time: 1 hr 8 min 5 sec) 
Heartbeat CPU 0 instructions: 119000002 cycles: 124436748 heartbeat IPC: 0.597912 cumulative IPC: 0.663511 (Simulation time: 1 hr 8 min 42 sec) 
Heartbeat CPU 0 instructions: 120000000 cycles: 125823470 heartbeat IPC: 0.721124 cumulative IPC: 0.664269 (Simulation time: 1 hr 9 min 18 sec) 
Heartbeat CPU 0 instructions: 121000000 cycles: 127313189 heartbeat IPC: 0.671268 cumulative IPC: 0.664366 (Simulation time: 1 hr 9 min 51 sec) 
Heartbeat CPU 0 instructions: 122000001 cycles: 129157834 heartbeat IPC: 0.54211 cumulative IPC: 0.662292 (Simulation time: 1 hr 10 min 30 sec) 
Heartbeat CPU 0 instructions: 123000002 cycles: 130645415 heartbeat IPC: 0.672233 cumulative IPC: 0.662426 (Simulation time: 1 hr 11 min 1 sec) 
Heartbeat CPU 0 instructions: 124000000 cycles: 132086463 heartbeat IPC: 0.693938 cumulative IPC: 0.662833 (Simulation time: 1 hr 11 min 36 sec) 
Heartbeat CPU 0 instructions: 125000003 cycles: 133897776 heartbeat IPC: 0.552087 cumulative IPC: 0.661065 (Simulation time: 1 hr 12 min 12 sec) 
Heartbeat CPU 0 instructions: 126000001 cycles: 135306316 heartbeat IPC: 0.709954 cumulative IPC: 0.661664 (Simulation time: 1 hr 12 min 49 sec) 
Heartbeat CPU 0 instructions: 127000001 cycles: 136786266 heartbeat IPC: 0.675699 cumulative IPC: 0.661843 (Simulation time: 1 hr 13 min 21 sec) 
Heartbeat CPU 0 instructions: 128000000 cycles: 138542307 heartbeat IPC: 0.569462 cumulative IPC: 0.660469 (Simulation time: 1 hr 13 min 58 sec) 
Heartbeat CPU 0 instructions: 129000003 cycles: 139970467 heartbeat IPC: 0.700204 cumulative IPC: 0.660944 (Simulation time: 1 hr 14 min 29 sec) 
Heartbeat CPU 0 instructions: 130000003 cycles: 141488671 heartbeat IPC: 0.658673 cumulative IPC: 0.660915 (Simulation time: 1 hr 15 min 8 sec) 
Heartbeat CPU 0 instructions: 131000000 cycles: 143230515 heartbeat IPC: 0.574103 cumulative IPC: 0.659684 (Simulation time: 1 hr 15 min 45 sec) 
Heartbeat CPU 0 instructions: 132000000 cycles: 144613416 heartbeat IPC: 0.723118 cumulative IPC: 0.66039 (Simulation time: 1 hr 16 min 15 sec) 
Heartbeat CPU 0 instructions: 133000001 cycles: 146060106 heartbeat IPC: 0.691234 cumulative IPC: 0.660746 (Simulation time: 1 hr 16 min 42 sec) 
Heartbeat CPU 0 instructions: 134000000 cycles: 147762068 heartbeat IPC: 0.587557 cumulative IPC: 0.659767 (Simulation time: 1 hr 17 min 8 sec) 
Heartbeat CPU 0 instructions: 135000003 cycles: 149214426 heartbeat IPC: 0.688538 cumulative IPC: 0.660092 (Simulation time: 1 hr 17 min 32 sec) 
Heartbeat CPU 0 instructions: 136000000 cycles: 150748700 heartbeat IPC: 0.651772 cumulative IPC: 0.659994 (Simulation time: 1 hr 18 min 0 sec) 
Heartbeat CPU 0 instructions: 137000001 cycles: 152443131 heartbeat IPC: 0.590169 cumulative IPC: 0.659097 (Simulation time: 1 hr 18 min 32 sec) 
Heartbeat CPU 0 instructions: 138000000 cycles: 153774951 heartbeat IPC: 0.750851 cumulative IPC: 0.660014 (Simulation time: 1 hr 19 min 2 sec) 
Heartbeat CPU 0 instructions: 139000003 cycles: 155255888 heartbeat IPC: 0.67525 cumulative IPC: 0.660181 (Simulation time: 1 hr 19 min 31 sec) 
Heartbeat CPU 0 instructions: 140000000 cycles: 157010140 heartbeat IPC: 0.570042 cumulative IPC: 0.659023 (Simulation time: 1 hr 20 min 2 sec) 
Heartbeat CPU 0 instructions: 141000003 cycles: 158397247 heartbeat IPC: 0.720927 cumulative IPC: 0.659646 (Simulation time: 1 hr 20 min 33 sec) 
Heartbeat CPU 0 instructions: 142000001 cycles: 159896568 heartbeat IPC: 0.666967 cumulative IPC: 0.659725 (Simulation time: 1 hr 21 min 4 sec) 
Heartbeat CPU 0 instructions: 143000000 cycles: 161604142 heartbeat IPC: 0.585626 cumulative IPC: 0.658828 (Simulation time: 1 hr 21 min 29 sec) 
Heartbeat CPU 0 instructions: 144000000 cycles: 163051758 heartbeat IPC: 0.690791 cumulative IPC: 0.659153 (Simulation time: 1 hr 21 min 51 sec) 
Heartbeat CPU 0 instructions: 145000002 cycles: 164585668 heartbeat IPC: 0.65193 cumulative IPC: 0.659076 (Simulation time: 1 hr 22 min 13 sec) 
Heartbeat CPU 0 instructions: 146000001 cycles: 166286870 heartbeat IPC: 0.587819 cumulative IPC: 0.658245 (Simulation time: 1 hr 22 min 39 sec) 
Heartbeat CPU 0 instructions: 147000000 cycles: 167704994 heartbeat IPC: 0.705156 cumulative IPC: 0.658696 (Simulation time: 1 hr 23 min 2 sec) 
Heartbeat CPU 0 instructions: 148000000 cycles: 169167269 heartbeat IPC: 0.683866 cumulative IPC: 0.658944 (Simulation time: 1 hr 23 min 26 sec) 
Heartbeat CPU 0 instructions: 149000003 cycles: 170892157 heartbeat IPC: 0.57975 cumulative IPC: 0.658036 (Simulation time: 1 hr 23 min 51 sec) 
Heartbeat CPU 0 instructions: 150000003 cycles: 172309963 heartbeat IPC: 0.705315 cumulative IPC: 0.658477 (Simulation time: 1 hr 24 min 11 sec) 
Finished CPU 0 instructions: 100000001 cycles: 151865523 cummulative IPC: 0.658477 (Simulation time: 1 hr 24 min 11 sec) 

ChampSim completed all CPUs

Region of Interest Statistics

CPU 0 cummulative IPC: 0.658477 instructions: 100000001 cycles: 151865523
LLC TOTAL     ACCESS:    5884940  HIT:    1958401  MISS:    3926539
LLC LOAD      ACCESS:     432537  HIT:      17482  MISS:     415055
LLC RFO       ACCESS:    2513640  HIT:     680106  MISS:    1833534
LLC PREFETCH  ACCESS:     424828  HIT:      21660  MISS:     403168
LLC WRITEBACK ACCESS:    2513935  HIT:    1239153  MISS:    1274782
OPTgen accesses: 69821
OPTgen hits: 22626
OPTgen hit rate: 32.4057


