
*** ChampSim Multicore Out-of-Order Simulator ***

Warmup Instructions: 50000000
Simulation Instructions: 100000000
Configuration: 2
Number of CPUs: 1
LLC sets: 2048
LLC ways: 16
Off-chip DRAM Channels: 1 Width: 64-bit Data Rate: 1600 MT/s

CPU 0 runs /datasets/cs240c-wi22-a00-public/data/Assignment2-gz/wrf_1228B.trace.gz
CPU 0 L1D next line prefetcher
CPU 0 L2C IP-based stride prefetcher
Initialize Hawkeye state
Heartbeat CPU 0 instructions: 1000003 cycles: 591062 heartbeat IPC: 1.69187 cumulative IPC: 1.69187 (Simulation time: 0 hr 0 min 41 sec) 
Heartbeat CPU 0 instructions: 2000003 cycles: 1111191 heartbeat IPC: 1.9226 cumulative IPC: 1.79987 (Simulation time: 0 hr 1 min 19 sec) 
Heartbeat CPU 0 instructions: 3000000 cycles: 1729169 heartbeat IPC: 1.61818 cumulative IPC: 1.73494 (Simulation time: 0 hr 1 min 58 sec) 
Heartbeat CPU 0 instructions: 4000000 cycles: 2349823 heartbeat IPC: 1.6112 cumulative IPC: 1.70226 (Simulation time: 0 hr 2 min 36 sec) 
Heartbeat CPU 0 instructions: 5000000 cycles: 3052186 heartbeat IPC: 1.42377 cumulative IPC: 1.63817 (Simulation time: 0 hr 3 min 13 sec) 
Heartbeat CPU 0 instructions: 6000000 cycles: 3612274 heartbeat IPC: 1.78543 cumulative IPC: 1.661 (Simulation time: 0 hr 3 min 49 sec) 
Heartbeat CPU 0 instructions: 7000001 cycles: 4165036 heartbeat IPC: 1.8091 cumulative IPC: 1.68066 (Simulation time: 0 hr 4 min 23 sec) 
Heartbeat CPU 0 instructions: 8000000 cycles: 4716402 heartbeat IPC: 1.81368 cumulative IPC: 1.69621 (Simulation time: 0 hr 4 min 56 sec) 
Heartbeat CPU 0 instructions: 9000002 cycles: 5266587 heartbeat IPC: 1.81757 cumulative IPC: 1.70889 (Simulation time: 0 hr 5 min 33 sec) 
Heartbeat CPU 0 instructions: 10000001 cycles: 5819483 heartbeat IPC: 1.80866 cumulative IPC: 1.71837 (Simulation time: 0 hr 6 min 9 sec) 
Heartbeat CPU 0 instructions: 11000002 cycles: 6373227 heartbeat IPC: 1.80589 cumulative IPC: 1.72597 (Simulation time: 0 hr 6 min 42 sec) 
Heartbeat CPU 0 instructions: 12000000 cycles: 6924072 heartbeat IPC: 1.81539 cumulative IPC: 1.73308 (Simulation time: 0 hr 7 min 17 sec) 
Heartbeat CPU 0 instructions: 13000003 cycles: 7475097 heartbeat IPC: 1.81481 cumulative IPC: 1.73911 (Simulation time: 0 hr 7 min 51 sec) 
Heartbeat CPU 0 instructions: 14000000 cycles: 7938739 heartbeat IPC: 2.15683 cumulative IPC: 1.7635 (Simulation time: 0 hr 8 min 31 sec) 
Heartbeat CPU 0 instructions: 15000002 cycles: 8329225 heartbeat IPC: 2.56092 cumulative IPC: 1.80089 (Simulation time: 0 hr 9 min 1 sec) 
Heartbeat CPU 0 instructions: 16000000 cycles: 8719690 heartbeat IPC: 2.56104 cumulative IPC: 1.83493 (Simulation time: 0 hr 9 min 29 sec) 
Heartbeat CPU 0 instructions: 17000001 cycles: 9108854 heartbeat IPC: 2.56961 cumulative IPC: 1.86632 (Simulation time: 0 hr 9 min 59 sec) 
Heartbeat CPU 0 instructions: 18000003 cycles: 9499585 heartbeat IPC: 2.55931 cumulative IPC: 1.89482 (Simulation time: 0 hr 10 min 28 sec) 
Heartbeat CPU 0 instructions: 19000001 cycles: 9889929 heartbeat IPC: 2.56184 cumulative IPC: 1.92115 (Simulation time: 0 hr 10 min 58 sec) 
Heartbeat CPU 0 instructions: 20000000 cycles: 10279441 heartbeat IPC: 2.56731 cumulative IPC: 1.94563 (Simulation time: 0 hr 11 min 28 sec) 
Heartbeat CPU 0 instructions: 21000003 cycles: 10669384 heartbeat IPC: 2.56449 cumulative IPC: 1.96825 (Simulation time: 0 hr 11 min 57 sec) 
Heartbeat CPU 0 instructions: 22000000 cycles: 11071715 heartbeat IPC: 2.48551 cumulative IPC: 1.98705 (Simulation time: 0 hr 12 min 25 sec) 
Heartbeat CPU 0 instructions: 23000003 cycles: 11599063 heartbeat IPC: 1.89629 cumulative IPC: 1.98292 (Simulation time: 0 hr 13 min 0 sec) 
Heartbeat CPU 0 instructions: 24000000 cycles: 12126780 heartbeat IPC: 1.89495 cumulative IPC: 1.97909 (Simulation time: 0 hr 13 min 34 sec) 
Heartbeat CPU 0 instructions: 25000000 cycles: 12654061 heartbeat IPC: 1.89652 cumulative IPC: 1.97565 (Simulation time: 0 hr 14 min 7 sec) 
Heartbeat CPU 0 instructions: 26000003 cycles: 13181037 heartbeat IPC: 1.89763 cumulative IPC: 1.97253 (Simulation time: 0 hr 14 min 43 sec) 
Heartbeat CPU 0 instructions: 27000001 cycles: 13707939 heartbeat IPC: 1.89788 cumulative IPC: 1.96966 (Simulation time: 0 hr 15 min 19 sec) 
Heartbeat CPU 0 instructions: 28000000 cycles: 14234997 heartbeat IPC: 1.89732 cumulative IPC: 1.96698 (Simulation time: 0 hr 15 min 52 sec) 
Heartbeat CPU 0 instructions: 29000003 cycles: 14865529 heartbeat IPC: 1.58597 cumulative IPC: 1.95082 (Simulation time: 0 hr 16 min 27 sec) 
Heartbeat CPU 0 instructions: 30000003 cycles: 15479036 heartbeat IPC: 1.62997 cumulative IPC: 1.93811 (Simulation time: 0 hr 17 min 5 sec) 
Heartbeat CPU 0 instructions: 31000001 cycles: 16036365 heartbeat IPC: 1.79427 cumulative IPC: 1.93311 (Simulation time: 0 hr 17 min 42 sec) 
Heartbeat CPU 0 instructions: 32000000 cycles: 16591944 heartbeat IPC: 1.79992 cumulative IPC: 1.92865 (Simulation time: 0 hr 18 min 20 sec) 
Heartbeat CPU 0 instructions: 33000001 cycles: 17212762 heartbeat IPC: 1.61078 cumulative IPC: 1.91718 (Simulation time: 0 hr 18 min 58 sec) 
Heartbeat CPU 0 instructions: 34000003 cycles: 17833334 heartbeat IPC: 1.61142 cumulative IPC: 1.90654 (Simulation time: 0 hr 19 min 35 sec) 
Heartbeat CPU 0 instructions: 35000002 cycles: 18516763 heartbeat IPC: 1.46321 cumulative IPC: 1.89018 (Simulation time: 0 hr 20 min 13 sec) 
Heartbeat CPU 0 instructions: 36000000 cycles: 19069574 heartbeat IPC: 1.80893 cumulative IPC: 1.88782 (Simulation time: 0 hr 20 min 51 sec) 
Heartbeat CPU 0 instructions: 37000001 cycles: 19623064 heartbeat IPC: 1.80672 cumulative IPC: 1.88554 (Simulation time: 0 hr 21 min 27 sec) 
Heartbeat CPU 0 instructions: 38000001 cycles: 20173249 heartbeat IPC: 1.81757 cumulative IPC: 1.88368 (Simulation time: 0 hr 22 min 2 sec) 
Heartbeat CPU 0 instructions: 39000002 cycles: 20724717 heartbeat IPC: 1.81334 cumulative IPC: 1.88181 (Simulation time: 0 hr 22 min 38 sec) 
Heartbeat CPU 0 instructions: 40000000 cycles: 21277178 heartbeat IPC: 1.81008 cumulative IPC: 1.87995 (Simulation time: 0 hr 23 min 13 sec) 
Heartbeat CPU 0 instructions: 41000000 cycles: 21829693 heartbeat IPC: 1.80991 cumulative IPC: 1.87818 (Simulation time: 0 hr 23 min 50 sec) 
Heartbeat CPU 0 instructions: 42000000 cycles: 22382168 heartbeat IPC: 1.81004 cumulative IPC: 1.87649 (Simulation time: 0 hr 24 min 25 sec) 
Heartbeat CPU 0 instructions: 43000000 cycles: 22932662 heartbeat IPC: 1.81655 cumulative IPC: 1.87505 (Simulation time: 0 hr 24 min 59 sec) 
Heartbeat CPU 0 instructions: 44000000 cycles: 23336515 heartbeat IPC: 2.47615 cumulative IPC: 1.88546 (Simulation time: 0 hr 25 min 33 sec) 
Heartbeat CPU 0 instructions: 45000000 cycles: 23726023 heartbeat IPC: 2.56734 cumulative IPC: 1.89665 (Simulation time: 0 hr 26 min 1 sec) 
Heartbeat CPU 0 instructions: 46000000 cycles: 24116150 heartbeat IPC: 2.56327 cumulative IPC: 1.90744 (Simulation time: 0 hr 26 min 30 sec) 
Heartbeat CPU 0 instructions: 47000002 cycles: 24506644 heartbeat IPC: 2.56086 cumulative IPC: 1.91785 (Simulation time: 0 hr 27 min 6 sec) 
Heartbeat CPU 0 instructions: 48000000 cycles: 24896752 heartbeat IPC: 2.56339 cumulative IPC: 1.92796 (Simulation time: 0 hr 27 min 40 sec) 
Heartbeat CPU 0 instructions: 49000001 cycles: 25285999 heartbeat IPC: 2.56907 cumulative IPC: 1.93783 (Simulation time: 0 hr 28 min 15 sec) 
Heartbeat CPU 0 instructions: 50000003 cycles: 25676666 heartbeat IPC: 2.55973 cumulative IPC: 1.94729 (Simulation time: 0 hr 28 min 44 sec) 

Warmup complete CPU 0 instructions: 50000003 cycles: 25676666 (Simulation time: 0 hr 28 min 44 sec) 

Heartbeat CPU 0 instructions: 51000001 cycles: 26516922 heartbeat IPC: 1.19011 cumulative IPC: 1.19011 (Simulation time: 0 hr 29 min 15 sec) 
Heartbeat CPU 0 instructions: 52000000 cycles: 27420221 heartbeat IPC: 1.10705 cumulative IPC: 1.14708 (Simulation time: 0 hr 29 min 47 sec) 
Heartbeat CPU 0 instructions: 53000002 cycles: 28367172 heartbeat IPC: 1.05602 cumulative IPC: 1.11503 (Simulation time: 0 hr 30 min 26 sec) 
Heartbeat CPU 0 instructions: 54000001 cycles: 29320607 heartbeat IPC: 1.04884 cumulative IPC: 1.09771 (Simulation time: 0 hr 31 min 7 sec) 
Heartbeat CPU 0 instructions: 55000001 cycles: 30242036 heartbeat IPC: 1.08527 cumulative IPC: 1.0952 (Simulation time: 0 hr 31 min 44 sec) 
Heartbeat CPU 0 instructions: 56000000 cycles: 31191125 heartbeat IPC: 1.05364 cumulative IPC: 1.08805 (Simulation time: 0 hr 32 min 18 sec) 
Heartbeat CPU 0 instructions: 57000001 cycles: 32127464 heartbeat IPC: 1.06799 cumulative IPC: 1.08514 (Simulation time: 0 hr 32 min 55 sec) 
Heartbeat CPU 0 instructions: 58000000 cycles: 33054139 heartbeat IPC: 1.07913 cumulative IPC: 1.08438 (Simulation time: 0 hr 33 min 29 sec) 
Heartbeat CPU 0 instructions: 59000001 cycles: 34860941 heartbeat IPC: 0.553465 cumulative IPC: 0.979936 (Simulation time: 0 hr 34 min 12 sec) 
Heartbeat CPU 0 instructions: 60000000 cycles: 36428999 heartbeat IPC: 0.637731 cumulative IPC: 0.93003 (Simulation time: 0 hr 34 min 51 sec) 
Heartbeat CPU 0 instructions: 61000000 cycles: 38788958 heartbeat IPC: 0.423736 cumulative IPC: 0.838907 (Simulation time: 0 hr 35 min 34 sec) 
Heartbeat CPU 0 instructions: 62000000 cycles: 40472007 heartbeat IPC: 0.59416 cumulative IPC: 0.811066 (Simulation time: 0 hr 36 min 12 sec) 
Heartbeat CPU 0 instructions: 63000001 cycles: 41931330 heartbeat IPC: 0.68525 cumulative IPC: 0.79977 (Simulation time: 0 hr 36 min 51 sec) 
Heartbeat CPU 0 instructions: 64000000 cycles: 43470230 heartbeat IPC: 0.649814 cumulative IPC: 0.786801 (Simulation time: 0 hr 37 min 27 sec) 
Heartbeat CPU 0 instructions: 65000003 cycles: 44965054 heartbeat IPC: 0.668977 cumulative IPC: 0.77767 (Simulation time: 0 hr 38 min 11 sec) 
Heartbeat CPU 0 instructions: 66000000 cycles: 46460702 heartbeat IPC: 0.668604 cumulative IPC: 0.769821 (Simulation time: 0 hr 38 min 53 sec) 
Heartbeat CPU 0 instructions: 67000000 cycles: 47955340 heartbeat IPC: 0.669058 cumulative IPC: 0.763061 (Simulation time: 0 hr 39 min 37 sec) 
Heartbeat CPU 0 instructions: 68000000 cycles: 49449797 heartbeat IPC: 0.669139 cumulative IPC: 0.757157 (Simulation time: 0 hr 40 min 20 sec) 
Heartbeat CPU 0 instructions: 69000000 cycles: 50957244 heartbeat IPC: 0.663373 cumulative IPC: 0.751565 (Simulation time: 0 hr 41 min 0 sec) 
Heartbeat CPU 0 instructions: 70000001 cycles: 52454275 heartbeat IPC: 0.667989 cumulative IPC: 0.746893 (Simulation time: 0 hr 41 min 41 sec) 
Heartbeat CPU 0 instructions: 71000001 cycles: 53948342 heartbeat IPC: 0.669314 cumulative IPC: 0.742793 (Simulation time: 0 hr 42 min 35 sec) 
Heartbeat CPU 0 instructions: 72000000 cycles: 55431295 heartbeat IPC: 0.67433 cumulative IPC: 0.739381 (Simulation time: 0 hr 43 min 18 sec) 
Heartbeat CPU 0 instructions: 73000003 cycles: 56919004 heartbeat IPC: 0.672176 cumulative IPC: 0.73618 (Simulation time: 0 hr 43 min 57 sec) 
Heartbeat CPU 0 instructions: 74000000 cycles: 58416533 heartbeat IPC: 0.667765 cumulative IPC: 0.733051 (Simulation time: 0 hr 44 min 39 sec) 
Heartbeat CPU 0 instructions: 75000001 cycles: 59910383 heartbeat IPC: 0.669412 cumulative IPC: 0.730274 (Simulation time: 0 hr 45 min 24 sec) 
Heartbeat CPU 0 instructions: 76000000 cycles: 61406867 heartbeat IPC: 0.668232 cumulative IPC: 0.727676 (Simulation time: 0 hr 46 min 11 sec) 
Heartbeat CPU 0 instructions: 77000003 cycles: 62900954 heartbeat IPC: 0.669307 cumulative IPC: 0.725333 (Simulation time: 0 hr 46 min 54 sec) 
Heartbeat CPU 0 instructions: 78000001 cycles: 64395668 heartbeat IPC: 0.669023 cumulative IPC: 0.723159 (Simulation time: 0 hr 47 min 40 sec) 
Heartbeat CPU 0 instructions: 79000000 cycles: 65892108 heartbeat IPC: 0.668252 cumulative IPC: 0.721116 (Simulation time: 0 hr 48 min 20 sec) 
Heartbeat CPU 0 instructions: 80000000 cycles: 67382579 heartbeat IPC: 0.670929 cumulative IPC: 0.719322 (Simulation time: 0 hr 49 min 5 sec) 
Heartbeat CPU 0 instructions: 81000001 cycles: 68866685 heartbeat IPC: 0.673807 cumulative IPC: 0.717758 (Simulation time: 0 hr 49 min 50 sec) 
Heartbeat CPU 0 instructions: 82000000 cycles: 70349508 heartbeat IPC: 0.674389 cumulative IPC: 0.716319 (Simulation time: 0 hr 50 min 29 sec) 
Heartbeat CPU 0 instructions: 83000000 cycles: 71832858 heartbeat IPC: 0.67415 cumulative IPC: 0.714964 (Simulation time: 0 hr 51 min 9 sec) 
Heartbeat CPU 0 instructions: 84000000 cycles: 73327648 heartbeat IPC: 0.66899 cumulative IPC: 0.713521 (Simulation time: 0 hr 51 min 50 sec) 
Heartbeat CPU 0 instructions: 85000000 cycles: 74822821 heartbeat IPC: 0.668819 cumulative IPC: 0.712161 (Simulation time: 0 hr 52 min 30 sec) 
Heartbeat CPU 0 instructions: 86000000 cycles: 76316585 heartbeat IPC: 0.66945 cumulative IPC: 0.710902 (Simulation time: 0 hr 53 min 12 sec) 
Heartbeat CPU 0 instructions: 87000000 cycles: 77811443 heartbeat IPC: 0.66896 cumulative IPC: 0.709699 (Simulation time: 0 hr 53 min 56 sec) 
Heartbeat CPU 0 instructions: 88000000 cycles: 79306723 heartbeat IPC: 0.668771 cumulative IPC: 0.708558 (Simulation time: 0 hr 54 min 36 sec) 
Heartbeat CPU 0 instructions: 89000002 cycles: 80802352 heartbeat IPC: 0.668616 cumulative IPC: 0.707474 (Simulation time: 0 hr 55 min 21 sec) 
Heartbeat CPU 0 instructions: 90000000 cycles: 82286689 heartbeat IPC: 0.6737 cumulative IPC: 0.706589 (Simulation time: 0 hr 56 min 13 sec) 
Heartbeat CPU 0 instructions: 91000000 cycles: 83770308 heartbeat IPC: 0.674028 cumulative IPC: 0.705757 (Simulation time: 0 hr 56 min 59 sec) 
Heartbeat CPU 0 instructions: 92000000 cycles: 85254150 heartbeat IPC: 0.673926 cumulative IPC: 0.704964 (Simulation time: 0 hr 57 min 41 sec) 
Heartbeat CPU 0 instructions: 93000000 cycles: 86743889 heartbeat IPC: 0.671259 cumulative IPC: 0.704142 (Simulation time: 0 hr 58 min 27 sec) 
Heartbeat CPU 0 instructions: 94000003 cycles: 88237743 heartbeat IPC: 0.669411 cumulative IPC: 0.703313 (Simulation time: 0 hr 59 min 10 sec) 
Heartbeat CPU 0 instructions: 95000000 cycles: 89733510 heartbeat IPC: 0.668551 cumulative IPC: 0.702501 (Simulation time: 0 hr 59 min 52 sec) 
Heartbeat CPU 0 instructions: 96000000 cycles: 91227464 heartbeat IPC: 0.669365 cumulative IPC: 0.701746 (Simulation time: 1 hr 0 min 36 sec) 
Heartbeat CPU 0 instructions: 97000001 cycles: 92723011 heartbeat IPC: 0.668652 cumulative IPC: 0.701008 (Simulation time: 1 hr 1 min 19 sec) 
Heartbeat CPU 0 instructions: 98000003 cycles: 94218354 heartbeat IPC: 0.668744 cumulative IPC: 0.700304 (Simulation time: 1 hr 1 min 59 sec) 
Heartbeat CPU 0 instructions: 99000000 cycles: 95707458 heartbeat IPC: 0.671543 cumulative IPC: 0.699692 (Simulation time: 1 hr 2 min 45 sec) 
Heartbeat CPU 0 instructions: 100000000 cycles: 97190850 heartbeat IPC: 0.674131 cumulative IPC: 0.699162 (Simulation time: 1 hr 3 min 28 sec) 
Heartbeat CPU 0 instructions: 101000000 cycles: 98674057 heartbeat IPC: 0.674215 cumulative IPC: 0.698655 (Simulation time: 1 hr 4 min 10 sec) 
Heartbeat CPU 0 instructions: 102000003 cycles: 100157642 heartbeat IPC: 0.674045 cumulative IPC: 0.698165 (Simulation time: 1 hr 4 min 55 sec) 
Heartbeat CPU 0 instructions: 103000003 cycles: 101653903 heartbeat IPC: 0.668333 cumulative IPC: 0.697577 (Simulation time: 1 hr 5 min 35 sec) 
Heartbeat CPU 0 instructions: 104000000 cycles: 103148435 heartbeat IPC: 0.669104 cumulative IPC: 0.697028 (Simulation time: 1 hr 6 min 21 sec) 
Heartbeat CPU 0 instructions: 105000000 cycles: 104643328 heartbeat IPC: 0.668944 cumulative IPC: 0.696496 (Simulation time: 1 hr 7 min 4 sec) 
Heartbeat CPU 0 instructions: 106000000 cycles: 106138389 heartbeat IPC: 0.668869 cumulative IPC: 0.695983 (Simulation time: 1 hr 7 min 46 sec) 
Heartbeat CPU 0 instructions: 107000000 cycles: 107634231 heartbeat IPC: 0.66852 cumulative IPC: 0.695482 (Simulation time: 1 hr 8 min 32 sec) 
Heartbeat CPU 0 instructions: 108000000 cycles: 109129812 heartbeat IPC: 0.668636 cumulative IPC: 0.695001 (Simulation time: 1 hr 9 min 10 sec) 
Heartbeat CPU 0 instructions: 109000003 cycles: 110612655 heartbeat IPC: 0.674382 cumulative IPC: 0.694641 (Simulation time: 1 hr 9 min 46 sec) 
Heartbeat CPU 0 instructions: 110000001 cycles: 112095852 heartbeat IPC: 0.674218 cumulative IPC: 0.69429 (Simulation time: 1 hr 10 min 26 sec) 
Heartbeat CPU 0 instructions: 111000000 cycles: 113579755 heartbeat IPC: 0.673898 cumulative IPC: 0.693946 (Simulation time: 1 hr 11 min 2 sec) 
Heartbeat CPU 0 instructions: 112000000 cycles: 115071130 heartbeat IPC: 0.670522 cumulative IPC: 0.693555 (Simulation time: 1 hr 11 min 42 sec) 
Heartbeat CPU 0 instructions: 113000000 cycles: 116565092 heartbeat IPC: 0.669361 cumulative IPC: 0.693158 (Simulation time: 1 hr 12 min 21 sec) 
Heartbeat CPU 0 instructions: 114000000 cycles: 118060862 heartbeat IPC: 0.668552 cumulative IPC: 0.692759 (Simulation time: 1 hr 13 min 2 sec) 
Heartbeat CPU 0 instructions: 115000003 cycles: 119554955 heartbeat IPC: 0.669304 cumulative IPC: 0.692386 (Simulation time: 1 hr 13 min 40 sec) 
Heartbeat CPU 0 instructions: 116000000 cycles: 121051028 heartbeat IPC: 0.668415 cumulative IPC: 0.69201 (Simulation time: 1 hr 14 min 16 sec) 
Heartbeat CPU 0 instructions: 117000000 cycles: 122546620 heartbeat IPC: 0.668632 cumulative IPC: 0.691649 (Simulation time: 1 hr 14 min 54 sec) 
Heartbeat CPU 0 instructions: 118000000 cycles: 124034419 heartbeat IPC: 0.672134 cumulative IPC: 0.691354 (Simulation time: 1 hr 15 min 28 sec) 
Heartbeat CPU 0 instructions: 119000001 cycles: 125518337 heartbeat IPC: 0.673892 cumulative IPC: 0.691094 (Simulation time: 1 hr 15 min 57 sec) 
Heartbeat CPU 0 instructions: 120000000 cycles: 127001601 heartbeat IPC: 0.674188 cumulative IPC: 0.690847 (Simulation time: 1 hr 16 min 30 sec) 
Heartbeat CPU 0 instructions: 121000000 cycles: 128486313 heartbeat IPC: 0.673531 cumulative IPC: 0.690597 (Simulation time: 1 hr 17 min 2 sec) 
Heartbeat CPU 0 instructions: 122000002 cycles: 129984594 heartbeat IPC: 0.667433 cumulative IPC: 0.690264 (Simulation time: 1 hr 17 min 30 sec) 
Heartbeat CPU 0 instructions: 123000002 cycles: 131486171 heartbeat IPC: 0.665967 cumulative IPC: 0.689919 (Simulation time: 1 hr 17 min 57 sec) 
Heartbeat CPU 0 instructions: 124000000 cycles: 132983389 heartbeat IPC: 0.667904 cumulative IPC: 0.689612 (Simulation time: 1 hr 18 min 25 sec) 
Heartbeat CPU 0 instructions: 125000000 cycles: 134479182 heartbeat IPC: 0.668542 cumulative IPC: 0.689322 (Simulation time: 1 hr 18 min 53 sec) 
Heartbeat CPU 0 instructions: 126000000 cycles: 135992286 heartbeat IPC: 0.660893 cumulative IPC: 0.688932 (Simulation time: 1 hr 19 min 21 sec) 
Heartbeat CPU 0 instructions: 127000000 cycles: 137489205 heartbeat IPC: 0.668039 cumulative IPC: 0.688653 (Simulation time: 1 hr 19 min 48 sec) 
Heartbeat CPU 0 instructions: 128000000 cycles: 138980170 heartbeat IPC: 0.670707 cumulative IPC: 0.688416 (Simulation time: 1 hr 20 min 15 sec) 
Heartbeat CPU 0 instructions: 129000000 cycles: 140463816 heartbeat IPC: 0.674015 cumulative IPC: 0.68823 (Simulation time: 1 hr 20 min 44 sec) 
Heartbeat CPU 0 instructions: 130000001 cycles: 141954236 heartbeat IPC: 0.670952 cumulative IPC: 0.688009 (Simulation time: 1 hr 21 min 12 sec) 
Heartbeat CPU 0 instructions: 131000001 cycles: 143449389 heartbeat IPC: 0.668828 cumulative IPC: 0.687765 (Simulation time: 1 hr 21 min 37 sec) 
Heartbeat CPU 0 instructions: 132000000 cycles: 144944882 heartbeat IPC: 0.668675 cumulative IPC: 0.687526 (Simulation time: 1 hr 22 min 4 sec) 
Heartbeat CPU 0 instructions: 133000000 cycles: 146443295 heartbeat IPC: 0.667373 cumulative IPC: 0.687276 (Simulation time: 1 hr 22 min 30 sec) 
Heartbeat CPU 0 instructions: 134000000 cycles: 147937853 heartbeat IPC: 0.669094 cumulative IPC: 0.687054 (Simulation time: 1 hr 22 min 58 sec) 
Heartbeat CPU 0 instructions: 135000001 cycles: 149433086 heartbeat IPC: 0.668793 cumulative IPC: 0.686833 (Simulation time: 1 hr 23 min 23 sec) 
Heartbeat CPU 0 instructions: 136000000 cycles: 150930733 heartbeat IPC: 0.667713 cumulative IPC: 0.686604 (Simulation time: 1 hr 23 min 53 sec) 
Heartbeat CPU 0 instructions: 137000002 cycles: 152417410 heartbeat IPC: 0.672642 cumulative IPC: 0.686441 (Simulation time: 1 hr 24 min 17 sec) 
Heartbeat CPU 0 instructions: 138000001 cycles: 153902207 heartbeat IPC: 0.673492 cumulative IPC: 0.686291 (Simulation time: 1 hr 24 min 42 sec) 
Heartbeat CPU 0 instructions: 139000001 cycles: 155385897 heartbeat IPC: 0.673995 cumulative IPC: 0.68615 (Simulation time: 1 hr 25 min 3 sec) 
Heartbeat CPU 0 instructions: 140000000 cycles: 156871890 heartbeat IPC: 0.67295 cumulative IPC: 0.686001 (Simulation time: 1 hr 25 min 25 sec) 
Heartbeat CPU 0 instructions: 141000002 cycles: 158368016 heartbeat IPC: 0.668394 cumulative IPC: 0.685802 (Simulation time: 1 hr 25 min 49 sec) 
Heartbeat CPU 0 instructions: 142000000 cycles: 159863098 heartbeat IPC: 0.668858 cumulative IPC: 0.685613 (Simulation time: 1 hr 26 min 11 sec) 
Heartbeat CPU 0 instructions: 143000000 cycles: 161357617 heartbeat IPC: 0.669112 cumulative IPC: 0.685431 (Simulation time: 1 hr 26 min 31 sec) 
Heartbeat CPU 0 instructions: 144000000 cycles: 162852418 heartbeat IPC: 0.668985 cumulative IPC: 0.685252 (Simulation time: 1 hr 26 min 50 sec) 
Heartbeat CPU 0 instructions: 145000000 cycles: 164348656 heartbeat IPC: 0.668343 cumulative IPC: 0.68507 (Simulation time: 1 hr 27 min 9 sec) 
Heartbeat CPU 0 instructions: 146000000 cycles: 165840385 heartbeat IPC: 0.670363 cumulative IPC: 0.684913 (Simulation time: 1 hr 27 min 27 sec) 
Heartbeat CPU 0 instructions: 147000003 cycles: 167323227 heartbeat IPC: 0.674383 cumulative IPC: 0.684803 (Simulation time: 1 hr 27 min 44 sec) 
Heartbeat CPU 0 instructions: 148000000 cycles: 168807358 heartbeat IPC: 0.673793 cumulative IPC: 0.684689 (Simulation time: 1 hr 28 min 1 sec) 
Heartbeat CPU 0 instructions: 149000002 cycles: 170290842 heartbeat IPC: 0.67409 cumulative IPC: 0.68458 (Simulation time: 1 hr 28 min 19 sec) 
Heartbeat CPU 0 instructions: 150000001 cycles: 171784377 heartbeat IPC: 0.669552 cumulative IPC: 0.684427 (Simulation time: 1 hr 28 min 36 sec) 
Finished CPU 0 instructions: 100000001 cycles: 146107715 cummulative IPC: 0.684427 (Simulation time: 1 hr 28 min 36 sec) 

ChampSim completed all CPUs

Region of Interest Statistics

CPU 0 cummulative IPC: 0.684427 instructions: 100000001 cycles: 146107715
LLC TOTAL     ACCESS:     644665  HIT:     138573  MISS:     506092
LLC LOAD      ACCESS:      35853  HIT:      11764  MISS:      24089
LLC RFO       ACCESS:     120254  HIT:       1599  MISS:     118655
LLC PREFETCH  ACCESS:     305934  HIT:      56141  MISS:     249793
LLC WRITEBACK ACCESS:     182624  HIT:      69069  MISS:     113555
OPTgen accesses: 5896
OPTgen hits: 1886
OPTgen hit rate: 31.9878


