
*** ChampSim Multicore Out-of-Order Simulator ***

Warmup Instructions: 50000000
Simulation Instructions: 100000000
Configuration: 2
Number of CPUs: 1
LLC sets: 2048
LLC ways: 16
Off-chip DRAM Channels: 1 Width: 64-bit Data Rate: 1600 MT/s

CPU 0 runs /datasets/cs240c-wi22-a00-public/data/Assignment2-gz/soplex_66B.trace.gz
CPU 0 L1D next line prefetcher
CPU 0 L2C IP-based stride prefetcher
Initialize Hawkeye state
Heartbeat CPU 0 instructions: 1000003 cycles: 415067 heartbeat IPC: 2.40926 cumulative IPC: 2.40926 (Simulation time: 0 hr 0 min 30 sec) 
Heartbeat CPU 0 instructions: 2000003 cycles: 837422 heartbeat IPC: 2.36768 cumulative IPC: 2.38829 (Simulation time: 0 hr 1 min 2 sec) 
Heartbeat CPU 0 instructions: 3000003 cycles: 1242452 heartbeat IPC: 2.46895 cumulative IPC: 2.41458 (Simulation time: 0 hr 1 min 33 sec) 
Heartbeat CPU 0 instructions: 4000000 cycles: 1626564 heartbeat IPC: 2.6034 cumulative IPC: 2.45917 (Simulation time: 0 hr 2 min 3 sec) 
Heartbeat CPU 0 instructions: 5000000 cycles: 2037923 heartbeat IPC: 2.43097 cumulative IPC: 2.45348 (Simulation time: 0 hr 2 min 29 sec) 
Heartbeat CPU 0 instructions: 6000000 cycles: 2510079 heartbeat IPC: 2.11794 cumulative IPC: 2.39036 (Simulation time: 0 hr 2 min 58 sec) 
Heartbeat CPU 0 instructions: 7000002 cycles: 2882274 heartbeat IPC: 2.68677 cumulative IPC: 2.42864 (Simulation time: 0 hr 3 min 31 sec) 
Heartbeat CPU 0 instructions: 8000000 cycles: 3307644 heartbeat IPC: 2.35089 cumulative IPC: 2.41864 (Simulation time: 0 hr 4 min 2 sec) 
Heartbeat CPU 0 instructions: 9000001 cycles: 3746211 heartbeat IPC: 2.28016 cumulative IPC: 2.40243 (Simulation time: 0 hr 4 min 30 sec) 
Heartbeat CPU 0 instructions: 10000002 cycles: 4158351 heartbeat IPC: 2.42636 cumulative IPC: 2.4048 (Simulation time: 0 hr 5 min 1 sec) 
Heartbeat CPU 0 instructions: 11000001 cycles: 4569578 heartbeat IPC: 2.43174 cumulative IPC: 2.40722 (Simulation time: 0 hr 5 min 32 sec) 
Heartbeat CPU 0 instructions: 12000000 cycles: 4953515 heartbeat IPC: 2.60459 cumulative IPC: 2.42252 (Simulation time: 0 hr 5 min 58 sec) 
Heartbeat CPU 0 instructions: 13000003 cycles: 5352316 heartbeat IPC: 2.50752 cumulative IPC: 2.42886 (Simulation time: 0 hr 6 min 25 sec) 
Heartbeat CPU 0 instructions: 14000002 cycles: 5840165 heartbeat IPC: 2.04981 cumulative IPC: 2.39719 (Simulation time: 0 hr 6 min 53 sec) 
Heartbeat CPU 0 instructions: 15000003 cycles: 6214670 heartbeat IPC: 2.67019 cumulative IPC: 2.41364 (Simulation time: 0 hr 7 min 19 sec) 
Heartbeat CPU 0 instructions: 16000000 cycles: 6622646 heartbeat IPC: 2.45112 cumulative IPC: 2.41595 (Simulation time: 0 hr 7 min 49 sec) 
Heartbeat CPU 0 instructions: 17000001 cycles: 7076603 heartbeat IPC: 2.20285 cumulative IPC: 2.40228 (Simulation time: 0 hr 8 min 17 sec) 
Heartbeat CPU 0 instructions: 18000003 cycles: 7485690 heartbeat IPC: 2.44447 cumulative IPC: 2.40459 (Simulation time: 0 hr 8 min 46 sec) 
Heartbeat CPU 0 instructions: 19000002 cycles: 7903704 heartbeat IPC: 2.39226 cumulative IPC: 2.40394 (Simulation time: 0 hr 9 min 17 sec) 
Heartbeat CPU 0 instructions: 20000000 cycles: 8287674 heartbeat IPC: 2.60436 cumulative IPC: 2.41322 (Simulation time: 0 hr 9 min 44 sec) 
Heartbeat CPU 0 instructions: 21000000 cycles: 8681881 heartbeat IPC: 2.53674 cumulative IPC: 2.41883 (Simulation time: 0 hr 10 min 11 sec) 
Heartbeat CPU 0 instructions: 22000000 cycles: 9175481 heartbeat IPC: 2.02593 cumulative IPC: 2.39769 (Simulation time: 0 hr 10 min 38 sec) 
Heartbeat CPU 0 instructions: 23000002 cycles: 9548453 heartbeat IPC: 2.68117 cumulative IPC: 2.40877 (Simulation time: 0 hr 11 min 7 sec) 
Heartbeat CPU 0 instructions: 24000000 cycles: 9939767 heartbeat IPC: 2.55549 cumulative IPC: 2.41454 (Simulation time: 0 hr 11 min 38 sec) 
Heartbeat CPU 0 instructions: 25000003 cycles: 10418023 heartbeat IPC: 2.09094 cumulative IPC: 2.39969 (Simulation time: 0 hr 12 min 10 sec) 
Heartbeat CPU 0 instructions: 26000001 cycles: 10816909 heartbeat IPC: 2.50698 cumulative IPC: 2.40364 (Simulation time: 0 hr 12 min 40 sec) 
Heartbeat CPU 0 instructions: 27000002 cycles: 11234945 heartbeat IPC: 2.39214 cumulative IPC: 2.40322 (Simulation time: 0 hr 13 min 13 sec) 
Heartbeat CPU 0 instructions: 28000000 cycles: 11619134 heartbeat IPC: 2.60288 cumulative IPC: 2.40982 (Simulation time: 0 hr 13 min 41 sec) 
Heartbeat CPU 0 instructions: 29000000 cycles: 12009037 heartbeat IPC: 2.56474 cumulative IPC: 2.41485 (Simulation time: 0 hr 14 min 14 sec) 
Heartbeat CPU 0 instructions: 30000003 cycles: 12507303 heartbeat IPC: 2.00697 cumulative IPC: 2.3986 (Simulation time: 0 hr 14 min 43 sec) 
Heartbeat CPU 0 instructions: 31000001 cycles: 12879500 heartbeat IPC: 2.68674 cumulative IPC: 2.40693 (Simulation time: 0 hr 15 min 14 sec) 
Heartbeat CPU 0 instructions: 32000000 cycles: 13259597 heartbeat IPC: 2.6309 cumulative IPC: 2.41335 (Simulation time: 0 hr 15 min 44 sec) 
Heartbeat CPU 0 instructions: 33000002 cycles: 13682539 heartbeat IPC: 2.3644 cumulative IPC: 2.41183 (Simulation time: 0 hr 16 min 17 sec) 
Heartbeat CPU 0 instructions: 34000003 cycles: 14094170 heartbeat IPC: 2.42936 cumulative IPC: 2.41235 (Simulation time: 0 hr 16 min 48 sec) 
Heartbeat CPU 0 instructions: 35000003 cycles: 14504943 heartbeat IPC: 2.43443 cumulative IPC: 2.41297 (Simulation time: 0 hr 17 min 20 sec) 
Heartbeat CPU 0 instructions: 36000000 cycles: 14888700 heartbeat IPC: 2.60581 cumulative IPC: 2.41794 (Simulation time: 0 hr 17 min 46 sec) 
Heartbeat CPU 0 instructions: 37000000 cycles: 15287385 heartbeat IPC: 2.50825 cumulative IPC: 2.4203 (Simulation time: 0 hr 18 min 15 sec) 
Heartbeat CPU 0 instructions: 38000000 cycles: 15773740 heartbeat IPC: 2.05611 cumulative IPC: 2.40907 (Simulation time: 0 hr 18 min 44 sec) 
Heartbeat CPU 0 instructions: 39000002 cycles: 16145100 heartbeat IPC: 2.69281 cumulative IPC: 2.41559 (Simulation time: 0 hr 19 min 13 sec) 
Heartbeat CPU 0 instructions: 40000000 cycles: 16554210 heartbeat IPC: 2.44433 cumulative IPC: 2.4163 (Simulation time: 0 hr 19 min 50 sec) 
Heartbeat CPU 0 instructions: 41000001 cycles: 17008740 heartbeat IPC: 2.20008 cumulative IPC: 2.41053 (Simulation time: 0 hr 20 min 18 sec) 
Heartbeat CPU 0 instructions: 42000000 cycles: 17417763 heartbeat IPC: 2.44485 cumulative IPC: 2.41133 (Simulation time: 0 hr 20 min 48 sec) 
Heartbeat CPU 0 instructions: 43000000 cycles: 17836082 heartbeat IPC: 2.39052 cumulative IPC: 2.41084 (Simulation time: 0 hr 21 min 18 sec) 
Heartbeat CPU 0 instructions: 44000000 cycles: 18219798 heartbeat IPC: 2.60609 cumulative IPC: 2.41496 (Simulation time: 0 hr 21 min 46 sec) 
Heartbeat CPU 0 instructions: 45000003 cycles: 18613294 heartbeat IPC: 2.54133 cumulative IPC: 2.41763 (Simulation time: 0 hr 22 min 15 sec) 
Heartbeat CPU 0 instructions: 46000001 cycles: 19107477 heartbeat IPC: 2.02354 cumulative IPC: 2.40743 (Simulation time: 0 hr 22 min 47 sec) 
Heartbeat CPU 0 instructions: 47000001 cycles: 19481813 heartbeat IPC: 2.6714 cumulative IPC: 2.41251 (Simulation time: 0 hr 23 min 19 sec) 
Heartbeat CPU 0 instructions: 48000000 cycles: 19872106 heartbeat IPC: 2.56218 cumulative IPC: 2.41545 (Simulation time: 0 hr 23 min 51 sec) 
Heartbeat CPU 0 instructions: 49000000 cycles: 20527901 heartbeat IPC: 1.52487 cumulative IPC: 2.387 (Simulation time: 0 hr 24 min 32 sec) 
Heartbeat CPU 0 instructions: 50000003 cycles: 21053030 heartbeat IPC: 1.9043 cumulative IPC: 2.37496 (Simulation time: 0 hr 25 min 12 sec) 

Warmup complete CPU 0 instructions: 50000003 cycles: 21053030 (Simulation time: 0 hr 25 min 12 sec) 

Heartbeat CPU 0 instructions: 51000002 cycles: 23549681 heartbeat IPC: 0.400536 cumulative IPC: 0.400536 (Simulation time: 0 hr 25 min 58 sec) 
Heartbeat CPU 0 instructions: 52000000 cycles: 27278908 heartbeat IPC: 0.268152 cumulative IPC: 0.321239 (Simulation time: 0 hr 26 min 51 sec) 
Heartbeat CPU 0 instructions: 53000003 cycles: 29919286 heartbeat IPC: 0.378735 cumulative IPC: 0.338362 (Simulation time: 0 hr 27 min 34 sec) 
Heartbeat CPU 0 instructions: 54000000 cycles: 32363655 heartbeat IPC: 0.409102 cumulative IPC: 0.353649 (Simulation time: 0 hr 28 min 16 sec) 
Heartbeat CPU 0 instructions: 55000002 cycles: 35763514 heartbeat IPC: 0.29413 cumulative IPC: 0.339894 (Simulation time: 0 hr 28 min 54 sec) 
Heartbeat CPU 0 instructions: 56000000 cycles: 38996850 heartbeat IPC: 0.309277 cumulative IPC: 0.334377 (Simulation time: 0 hr 29 min 36 sec) 
Heartbeat CPU 0 instructions: 57000003 cycles: 41546132 heartbeat IPC: 0.392268 cumulative IPC: 0.341578 (Simulation time: 0 hr 30 min 13 sec) 
Heartbeat CPU 0 instructions: 58000002 cycles: 43732570 heartbeat IPC: 0.457364 cumulative IPC: 0.352741 (Simulation time: 0 hr 30 min 52 sec) 
Heartbeat CPU 0 instructions: 59000002 cycles: 45268963 heartbeat IPC: 0.650875 cumulative IPC: 0.371656 (Simulation time: 0 hr 31 min 29 sec) 
Heartbeat CPU 0 instructions: 60000000 cycles: 46813038 heartbeat IPC: 0.647636 cumulative IPC: 0.388199 (Simulation time: 0 hr 32 min 6 sec) 
Heartbeat CPU 0 instructions: 61000002 cycles: 49523613 heartbeat IPC: 0.368926 cumulative IPC: 0.386364 (Simulation time: 0 hr 32 min 50 sec) 
Heartbeat CPU 0 instructions: 62000000 cycles: 51952455 heartbeat IPC: 0.411718 cumulative IPC: 0.388357 (Simulation time: 0 hr 33 min 36 sec) 
Heartbeat CPU 0 instructions: 63000002 cycles: 53870404 heartbeat IPC: 0.521391 cumulative IPC: 0.396132 (Simulation time: 0 hr 34 min 15 sec) 
Heartbeat CPU 0 instructions: 64000000 cycles: 56302610 heartbeat IPC: 0.411149 cumulative IPC: 0.397168 (Simulation time: 0 hr 34 min 50 sec) 
Heartbeat CPU 0 instructions: 65000000 cycles: 59576792 heartbeat IPC: 0.30542 cumulative IPC: 0.38937 (Simulation time: 0 hr 35 min 33 sec) 
Heartbeat CPU 0 instructions: 66000001 cycles: 60793582 heartbeat IPC: 0.821835 cumulative IPC: 0.402611 (Simulation time: 0 hr 35 min 58 sec) 
Heartbeat CPU 0 instructions: 67000000 cycles: 62079129 heartbeat IPC: 0.777878 cumulative IPC: 0.41437 (Simulation time: 0 hr 36 min 26 sec) 
Heartbeat CPU 0 instructions: 68000000 cycles: 65449371 heartbeat IPC: 0.296715 cumulative IPC: 0.405439 (Simulation time: 0 hr 37 min 6 sec) 
Heartbeat CPU 0 instructions: 69000000 cycles: 68100080 heartbeat IPC: 0.377258 cumulative IPC: 0.403851 (Simulation time: 0 hr 37 min 35 sec) 
Heartbeat CPU 0 instructions: 70000001 cycles: 70635873 heartbeat IPC: 0.394354 cumulative IPC: 0.403365 (Simulation time: 0 hr 38 min 4 sec) 
Heartbeat CPU 0 instructions: 71000000 cycles: 73143640 heartbeat IPC: 0.398761 cumulative IPC: 0.403144 (Simulation time: 0 hr 38 min 47 sec) 
Heartbeat CPU 0 instructions: 72000000 cycles: 75966157 heartbeat IPC: 0.354294 cumulative IPC: 0.400633 (Simulation time: 0 hr 39 min 24 sec) 
Heartbeat CPU 0 instructions: 73000001 cycles: 78751490 heartbeat IPC: 0.359024 cumulative IPC: 0.398624 (Simulation time: 0 hr 40 min 8 sec) 
Heartbeat CPU 0 instructions: 74000000 cycles: 80636290 heartbeat IPC: 0.53056 cumulative IPC: 0.402798 (Simulation time: 0 hr 40 min 36 sec) 
Heartbeat CPU 0 instructions: 75000002 cycles: 81861830 heartbeat IPC: 0.815968 cumulative IPC: 0.411125 (Simulation time: 0 hr 41 min 2 sec) 
Heartbeat CPU 0 instructions: 76000000 cycles: 85382387 heartbeat IPC: 0.284045 cumulative IPC: 0.40417 (Simulation time: 0 hr 41 min 43 sec) 
Heartbeat CPU 0 instructions: 77000000 cycles: 87837098 heartbeat IPC: 0.40738 cumulative IPC: 0.404288 (Simulation time: 0 hr 42 min 16 sec) 
Heartbeat CPU 0 instructions: 78000003 cycles: 90382003 heartbeat IPC: 0.392943 cumulative IPC: 0.403872 (Simulation time: 0 hr 42 min 49 sec) 
Heartbeat CPU 0 instructions: 79000001 cycles: 93667421 heartbeat IPC: 0.304375 cumulative IPC: 0.39937 (Simulation time: 0 hr 43 min 36 sec) 
Heartbeat CPU 0 instructions: 80000000 cycles: 96085036 heartbeat IPC: 0.41363 cumulative IPC: 0.399829 (Simulation time: 0 hr 44 min 12 sec) 
Heartbeat CPU 0 instructions: 81000003 cycles: 99081085 heartbeat IPC: 0.333774 cumulative IPC: 0.397293 (Simulation time: 0 hr 44 min 54 sec) 
Heartbeat CPU 0 instructions: 82000000 cycles: 100716892 heartbeat IPC: 0.611317 cumulative IPC: 0.401688 (Simulation time: 0 hr 45 min 22 sec) 
Heartbeat CPU 0 instructions: 83000001 cycles: 101987345 heartbeat IPC: 0.787122 cumulative IPC: 0.407738 (Simulation time: 0 hr 45 min 49 sec) 
Heartbeat CPU 0 instructions: 84000000 cycles: 105277096 heartbeat IPC: 0.303974 cumulative IPC: 0.403685 (Simulation time: 0 hr 46 min 29 sec) 
Heartbeat CPU 0 instructions: 85000000 cycles: 107719092 heartbeat IPC: 0.409501 cumulative IPC: 0.403849 (Simulation time: 0 hr 46 min 58 sec) 
Heartbeat CPU 0 instructions: 86000000 cycles: 110394084 heartbeat IPC: 0.373833 cumulative IPC: 0.40295 (Simulation time: 0 hr 47 min 29 sec) 
Heartbeat CPU 0 instructions: 87000000 cycles: 113540539 heartbeat IPC: 0.317818 cumulative IPC: 0.400054 (Simulation time: 0 hr 48 min 15 sec) 
Heartbeat CPU 0 instructions: 88000000 cycles: 115675856 heartbeat IPC: 0.468315 cumulative IPC: 0.401594 (Simulation time: 0 hr 48 min 50 sec) 
Heartbeat CPU 0 instructions: 89000001 cycles: 118913707 heartbeat IPC: 0.308847 cumulative IPC: 0.398526 (Simulation time: 0 hr 49 min 32 sec) 
Heartbeat CPU 0 instructions: 90000002 cycles: 120126131 heartbeat IPC: 0.824795 cumulative IPC: 0.403742 (Simulation time: 0 hr 49 min 57 sec) 
Heartbeat CPU 0 instructions: 91000000 cycles: 121442172 heartbeat IPC: 0.759853 cumulative IPC: 0.408411 (Simulation time: 0 hr 50 min 23 sec) 
Heartbeat CPU 0 instructions: 92000000 cycles: 124948154 heartbeat IPC: 0.285227 cumulative IPC: 0.404254 (Simulation time: 0 hr 51 min 5 sec) 
Heartbeat CPU 0 instructions: 93000000 cycles: 127599633 heartbeat IPC: 0.377148 cumulative IPC: 0.403579 (Simulation time: 0 hr 51 min 35 sec) 
Heartbeat CPU 0 instructions: 94000001 cycles: 130173396 heartbeat IPC: 0.388537 cumulative IPC: 0.403224 (Simulation time: 0 hr 52 min 5 sec) 
Heartbeat CPU 0 instructions: 95000003 cycles: 133444190 heartbeat IPC: 0.305737 cumulative IPC: 0.400387 (Simulation time: 0 hr 52 min 50 sec) 
Heartbeat CPU 0 instructions: 96000000 cycles: 135304655 heartbeat IPC: 0.537498 cumulative IPC: 0.40262 (Simulation time: 0 hr 53 min 28 sec) 
Heartbeat CPU 0 instructions: 97000003 cycles: 138433597 heartbeat IPC: 0.319598 cumulative IPC: 0.400407 (Simulation time: 0 hr 54 min 9 sec) 
Heartbeat CPU 0 instructions: 98000003 cycles: 139661843 heartbeat IPC: 0.814169 cumulative IPC: 0.404692 (Simulation time: 0 hr 54 min 34 sec) 
Heartbeat CPU 0 instructions: 99000000 cycles: 142079284 heartbeat IPC: 0.413659 cumulative IPC: 0.404871 (Simulation time: 0 hr 55 min 8 sec) 
Heartbeat CPU 0 instructions: 100000000 cycles: 144813470 heartbeat IPC: 0.36574 cumulative IPC: 0.404006 (Simulation time: 0 hr 55 min 47 sec) 
Heartbeat CPU 0 instructions: 101000001 cycles: 147379163 heartbeat IPC: 0.389759 cumulative IPC: 0.403717 (Simulation time: 0 hr 56 min 20 sec) 
Heartbeat CPU 0 instructions: 102000002 cycles: 150173030 heartbeat IPC: 0.357927 cumulative IPC: 0.402726 (Simulation time: 0 hr 56 min 53 sec) 
Heartbeat CPU 0 instructions: 103000002 cycles: 153218396 heartbeat IPC: 0.328368 cumulative IPC: 0.401013 (Simulation time: 0 hr 57 min 43 sec) 
Heartbeat CPU 0 instructions: 104000000 cycles: 155413530 heartbeat IPC: 0.455552 cumulative IPC: 0.401904 (Simulation time: 0 hr 58 min 25 sec) 
Heartbeat CPU 0 instructions: 105000000 cycles: 157731789 heartbeat IPC: 0.431358 cumulative IPC: 0.402403 (Simulation time: 0 hr 58 min 56 sec) 
Heartbeat CPU 0 instructions: 106000001 cycles: 158945845 heartbeat IPC: 0.823686 cumulative IPC: 0.406113 (Simulation time: 0 hr 59 min 21 sec) 
Heartbeat CPU 0 instructions: 107000001 cycles: 162263622 heartbeat IPC: 0.301407 cumulative IPC: 0.403652 (Simulation time: 1 hr 0 min 1 sec) 
Heartbeat CPU 0 instructions: 108000000 cycles: 164614246 heartbeat IPC: 0.425419 cumulative IPC: 0.404009 (Simulation time: 1 hr 0 min 35 sec) 
Heartbeat CPU 0 instructions: 109000003 cycles: 167222509 heartbeat IPC: 0.383398 cumulative IPC: 0.403641 (Simulation time: 1 hr 1 min 8 sec) 
Heartbeat CPU 0 instructions: 110000001 cycles: 170412042 heartbeat IPC: 0.313525 cumulative IPC: 0.401717 (Simulation time: 1 hr 1 min 53 sec) 
Heartbeat CPU 0 instructions: 111000001 cycles: 172367757 heartbeat IPC: 0.511322 cumulative IPC: 0.403133 (Simulation time: 1 hr 2 min 27 sec) 
Heartbeat CPU 0 instructions: 112000000 cycles: 174365422 heartbeat IPC: 0.500584 cumulative IPC: 0.404403 (Simulation time: 1 hr 3 min 9 sec) 
Heartbeat CPU 0 instructions: 113000000 cycles: 176988422 heartbeat IPC: 0.381243 cumulative IPC: 0.404013 (Simulation time: 1 hr 3 min 47 sec) 
Heartbeat CPU 0 instructions: 114000000 cycles: 178233503 heartbeat IPC: 0.803161 cumulative IPC: 0.407175 (Simulation time: 1 hr 4 min 14 sec) 
Heartbeat CPU 0 instructions: 115000003 cycles: 181128115 heartbeat IPC: 0.34547 cumulative IPC: 0.406059 (Simulation time: 1 hr 4 min 51 sec) 
Heartbeat CPU 0 instructions: 116000000 cycles: 183544602 heartbeat IPC: 0.413823 cumulative IPC: 0.406175 (Simulation time: 1 hr 5 min 26 sec) 
Heartbeat CPU 0 instructions: 117000000 cycles: 186206930 heartbeat IPC: 0.375611 cumulative IPC: 0.405682 (Simulation time: 1 hr 5 min 56 sec) 
Heartbeat CPU 0 instructions: 118000003 cycles: 189461719 heartbeat IPC: 0.30724 cumulative IPC: 0.40378 (Simulation time: 1 hr 6 min 38 sec) 
Heartbeat CPU 0 instructions: 119000002 cycles: 191337725 heartbeat IPC: 0.533047 cumulative IPC: 0.405204 (Simulation time: 1 hr 7 min 17 sec) 
Heartbeat CPU 0 instructions: 120000000 cycles: 193297577 heartbeat IPC: 0.510242 cumulative IPC: 0.406399 (Simulation time: 1 hr 7 min 57 sec) 
Heartbeat CPU 0 instructions: 121000000 cycles: 196142640 heartbeat IPC: 0.351486 cumulative IPC: 0.405507 (Simulation time: 1 hr 8 min 31 sec) 
Heartbeat CPU 0 instructions: 122000000 cycles: 197350345 heartbeat IPC: 0.828017 cumulative IPC: 0.408401 (Simulation time: 1 hr 8 min 58 sec) 
Heartbeat CPU 0 instructions: 123000000 cycles: 200291278 heartbeat IPC: 0.340028 cumulative IPC: 0.407279 (Simulation time: 1 hr 9 min 30 sec) 
Heartbeat CPU 0 instructions: 124000000 cycles: 202909278 heartbeat IPC: 0.381971 cumulative IPC: 0.406915 (Simulation time: 1 hr 10 min 3 sec) 
Heartbeat CPU 0 instructions: 125000001 cycles: 205513016 heartbeat IPC: 0.384064 cumulative IPC: 0.406592 (Simulation time: 1 hr 10 min 35 sec) 
Heartbeat CPU 0 instructions: 126000000 cycles: 208394136 heartbeat IPC: 0.347087 cumulative IPC: 0.405677 (Simulation time: 1 hr 11 min 9 sec) 
Heartbeat CPU 0 instructions: 127000002 cycles: 211285535 heartbeat IPC: 0.345854 cumulative IPC: 0.404768 (Simulation time: 1 hr 11 min 51 sec) 
Heartbeat CPU 0 instructions: 128000000 cycles: 213669221 heartbeat IPC: 0.419518 cumulative IPC: 0.40495 (Simulation time: 1 hr 12 min 32 sec) 
Heartbeat CPU 0 instructions: 129000000 cycles: 215797630 heartbeat IPC: 0.469835 cumulative IPC: 0.405659 (Simulation time: 1 hr 13 min 5 sec) 
Heartbeat CPU 0 instructions: 130000000 cycles: 217057620 heartbeat IPC: 0.793657 cumulative IPC: 0.408154 (Simulation time: 1 hr 13 min 29 sec) 
Heartbeat CPU 0 instructions: 131000000 cycles: 220142625 heartbeat IPC: 0.324149 cumulative IPC: 0.406852 (Simulation time: 1 hr 14 min 7 sec) 
Heartbeat CPU 0 instructions: 132000000 cycles: 222581689 heartbeat IPC: 0.409993 cumulative IPC: 0.40689 (Simulation time: 1 hr 14 min 40 sec) 
Heartbeat CPU 0 instructions: 133000000 cycles: 225210041 heartbeat IPC: 0.380467 cumulative IPC: 0.40655 (Simulation time: 1 hr 15 min 6 sec) 
Heartbeat CPU 0 instructions: 134000003 cycles: 228536297 heartbeat IPC: 0.300639 cumulative IPC: 0.404852 (Simulation time: 1 hr 15 min 39 sec) 
Heartbeat CPU 0 instructions: 135000003 cycles: 230488855 heartbeat IPC: 0.512149 cumulative IPC: 0.405852 (Simulation time: 1 hr 16 min 5 sec) 
Heartbeat CPU 0 instructions: 136000000 cycles: 232478295 heartbeat IPC: 0.502653 cumulative IPC: 0.406763 (Simulation time: 1 hr 16 min 31 sec) 
Heartbeat CPU 0 instructions: 137000000 cycles: 235147657 heartbeat IPC: 0.374621 cumulative IPC: 0.406362 (Simulation time: 1 hr 16 min 55 sec) 
Heartbeat CPU 0 instructions: 138000000 cycles: 236354114 heartbeat IPC: 0.828873 cumulative IPC: 0.40873 (Simulation time: 1 hr 17 min 12 sec) 
Heartbeat CPU 0 instructions: 139000001 cycles: 239395887 heartbeat IPC: 0.328756 cumulative IPC: 0.407616 (Simulation time: 1 hr 17 min 42 sec) 
Heartbeat CPU 0 instructions: 140000000 cycles: 241846564 heartbeat IPC: 0.40805 cumulative IPC: 0.407621 (Simulation time: 1 hr 18 min 11 sec) 
Heartbeat CPU 0 instructions: 141000003 cycles: 244483748 heartbeat IPC: 0.379193 cumulative IPC: 0.407285 (Simulation time: 1 hr 18 min 36 sec) 
Heartbeat CPU 0 instructions: 142000001 cycles: 247636904 heartbeat IPC: 0.317142 cumulative IPC: 0.406031 (Simulation time: 1 hr 19 min 2 sec) 
Heartbeat CPU 0 instructions: 143000001 cycles: 252241262 heartbeat IPC: 0.217186 cumulative IPC: 0.40227 (Simulation time: 1 hr 19 min 31 sec) 
Heartbeat CPU 0 instructions: 144000000 cycles: 255860976 heartbeat IPC: 0.276265 cumulative IPC: 0.400327 (Simulation time: 1 hr 20 min 2 sec) 
Heartbeat CPU 0 instructions: 145000001 cycles: 258804037 heartbeat IPC: 0.339783 cumulative IPC: 0.399578 (Simulation time: 1 hr 20 min 31 sec) 
Heartbeat CPU 0 instructions: 146000000 cycles: 262670009 heartbeat IPC: 0.258667 cumulative IPC: 0.397323 (Simulation time: 1 hr 20 min 58 sec) 
Heartbeat CPU 0 instructions: 147000000 cycles: 265242648 heartbeat IPC: 0.388706 cumulative IPC: 0.397232 (Simulation time: 1 hr 21 min 26 sec) 
Heartbeat CPU 0 instructions: 148000000 cycles: 268378896 heartbeat IPC: 0.318852 cumulative IPC: 0.396238 (Simulation time: 1 hr 21 min 59 sec) 
Heartbeat CPU 0 instructions: 149000000 cycles: 271566219 heartbeat IPC: 0.313743 cumulative IPC: 0.395189 (Simulation time: 1 hr 22 min 25 sec) 
Heartbeat CPU 0 instructions: 150000001 cycles: 274457771 heartbeat IPC: 0.345835 cumulative IPC: 0.394626 (Simulation time: 1 hr 22 min 56 sec) 
Finished CPU 0 instructions: 100000001 cycles: 253404745 cummulative IPC: 0.394626 (Simulation time: 1 hr 22 min 56 sec) 

ChampSim completed all CPUs

Region of Interest Statistics

CPU 0 cummulative IPC: 0.394626 instructions: 100000001 cycles: 253404745
LLC TOTAL     ACCESS:    6714227  HIT:    3331677  MISS:    3382550
LLC LOAD      ACCESS:    1680071  HIT:     721163  MISS:     958908
LLC RFO       ACCESS:     736916  HIT:     256555  MISS:     480361
LLC PREFETCH  ACCESS:    2657069  HIT:    1143072  MISS:    1513997
LLC WRITEBACK ACCESS:    1640171  HIT:    1210887  MISS:     429284
OPTgen accesses: 53003
OPTgen hits: 37015
OPTgen hit rate: 69.8357


