
*** ChampSim Multicore Out-of-Order Simulator ***

Warmup Instructions: 50000000
Simulation Instructions: 100000000
Configuration: 2
Number of CPUs: 1
LLC sets: 2048
LLC ways: 16
Off-chip DRAM Channels: 1 Width: 64-bit Data Rate: 1600 MT/s

CPU 0 runs /datasets/cs240c-wi22-a00-public/data/Assignment2-gz/sphinx3_1339B.trace.gz
CPU 0 L1D next line prefetcher
CPU 0 L2C IP-based stride prefetcher
Initialize Hawkeye state
Heartbeat CPU 0 instructions: 1000000 cycles: 339022 heartbeat IPC: 2.94966 cumulative IPC: 2.94966 (Simulation time: 0 hr 0 min 29 sec) 
Heartbeat CPU 0 instructions: 2000001 cycles: 693417 heartbeat IPC: 2.82171 cumulative IPC: 2.88427 (Simulation time: 0 hr 0 min 59 sec) 
Heartbeat CPU 0 instructions: 3000000 cycles: 1084470 heartbeat IPC: 2.5572 cumulative IPC: 2.76633 (Simulation time: 0 hr 1 min 31 sec) 
Heartbeat CPU 0 instructions: 4000000 cycles: 1529991 heartbeat IPC: 2.24456 cumulative IPC: 2.61439 (Simulation time: 0 hr 1 min 58 sec) 
Heartbeat CPU 0 instructions: 5000003 cycles: 1869006 heartbeat IPC: 2.94973 cumulative IPC: 2.67522 (Simulation time: 0 hr 2 min 26 sec) 
Heartbeat CPU 0 instructions: 6000002 cycles: 2253186 heartbeat IPC: 2.60294 cumulative IPC: 2.6629 (Simulation time: 0 hr 2 min 56 sec) 
Heartbeat CPU 0 instructions: 7000001 cycles: 2716925 heartbeat IPC: 2.15638 cumulative IPC: 2.57644 (Simulation time: 0 hr 3 min 27 sec) 
Heartbeat CPU 0 instructions: 8000000 cycles: 3055794 heartbeat IPC: 2.95099 cumulative IPC: 2.61798 (Simulation time: 0 hr 3 min 54 sec) 
Heartbeat CPU 0 instructions: 9000003 cycles: 3412353 heartbeat IPC: 2.80459 cumulative IPC: 2.63748 (Simulation time: 0 hr 4 min 23 sec) 
Heartbeat CPU 0 instructions: 10000001 cycles: 3799026 heartbeat IPC: 2.58616 cumulative IPC: 2.63225 (Simulation time: 0 hr 4 min 53 sec) 
Heartbeat CPU 0 instructions: 11000002 cycles: 4242148 heartbeat IPC: 2.25672 cumulative IPC: 2.59303 (Simulation time: 0 hr 5 min 21 sec) 
Heartbeat CPU 0 instructions: 12000000 cycles: 4581105 heartbeat IPC: 2.95022 cumulative IPC: 2.61946 (Simulation time: 0 hr 5 min 49 sec) 
Heartbeat CPU 0 instructions: 13000000 cycles: 4972916 heartbeat IPC: 2.55225 cumulative IPC: 2.61416 (Simulation time: 0 hr 6 min 19 sec) 
Heartbeat CPU 0 instructions: 14000003 cycles: 5427741 heartbeat IPC: 2.19865 cumulative IPC: 2.57934 (Simulation time: 0 hr 6 min 44 sec) 
Heartbeat CPU 0 instructions: 15000003 cycles: 5766701 heartbeat IPC: 2.9502 cumulative IPC: 2.60114 (Simulation time: 0 hr 7 min 9 sec) 
Heartbeat CPU 0 instructions: 16000000 cycles: 6131592 heartbeat IPC: 2.74054 cumulative IPC: 2.60944 (Simulation time: 0 hr 7 min 37 sec) 
Heartbeat CPU 0 instructions: 17000000 cycles: 6578455 heartbeat IPC: 2.23782 cumulative IPC: 2.58419 (Simulation time: 0 hr 8 min 9 sec) 
Heartbeat CPU 0 instructions: 18000000 cycles: 7017741 heartbeat IPC: 2.27642 cumulative IPC: 2.56493 (Simulation time: 0 hr 8 min 38 sec) 
Heartbeat CPU 0 instructions: 19000001 cycles: 7462704 heartbeat IPC: 2.24738 cumulative IPC: 2.54599 (Simulation time: 0 hr 9 min 6 sec) 
Heartbeat CPU 0 instructions: 20000000 cycles: 7801758 heartbeat IPC: 2.94938 cumulative IPC: 2.56352 (Simulation time: 0 hr 9 min 33 sec) 
Heartbeat CPU 0 instructions: 21000000 cycles: 8183312 heartbeat IPC: 2.62086 cumulative IPC: 2.5662 (Simulation time: 0 hr 10 min 2 sec) 
Heartbeat CPU 0 instructions: 22000000 cycles: 8648980 heartbeat IPC: 2.14745 cumulative IPC: 2.54365 (Simulation time: 0 hr 10 min 32 sec) 
Heartbeat CPU 0 instructions: 23000001 cycles: 8988014 heartbeat IPC: 2.94956 cumulative IPC: 2.55896 (Simulation time: 0 hr 10 min 59 sec) 
Heartbeat CPU 0 instructions: 24000000 cycles: 9338303 heartbeat IPC: 2.85478 cumulative IPC: 2.57006 (Simulation time: 0 hr 11 min 28 sec) 
Heartbeat CPU 0 instructions: 25000000 cycles: 9746462 heartbeat IPC: 2.45003 cumulative IPC: 2.56503 (Simulation time: 0 hr 11 min 56 sec) 
Heartbeat CPU 0 instructions: 26000003 cycles: 10149373 heartbeat IPC: 2.48195 cumulative IPC: 2.56173 (Simulation time: 0 hr 12 min 23 sec) 
Heartbeat CPU 0 instructions: 27000002 cycles: 10488311 heartbeat IPC: 2.95039 cumulative IPC: 2.57429 (Simulation time: 0 hr 12 min 52 sec) 
Heartbeat CPU 0 instructions: 28000000 cycles: 10865409 heartbeat IPC: 2.65183 cumulative IPC: 2.57699 (Simulation time: 0 hr 13 min 21 sec) 
Heartbeat CPU 0 instructions: 29000001 cycles: 11306063 heartbeat IPC: 2.26936 cumulative IPC: 2.565 (Simulation time: 0 hr 13 min 47 sec) 
Heartbeat CPU 0 instructions: 30000002 cycles: 11645079 heartbeat IPC: 2.94972 cumulative IPC: 2.5762 (Simulation time: 0 hr 14 min 14 sec) 
Heartbeat CPU 0 instructions: 31000003 cycles: 12015683 heartbeat IPC: 2.6983 cumulative IPC: 2.57996 (Simulation time: 0 hr 14 min 40 sec) 
Heartbeat CPU 0 instructions: 32000000 cycles: 12458413 heartbeat IPC: 2.25871 cumulative IPC: 2.56855 (Simulation time: 0 hr 15 min 7 sec) 
Heartbeat CPU 0 instructions: 33000000 cycles: 12797473 heartbeat IPC: 2.94933 cumulative IPC: 2.57863 (Simulation time: 0 hr 15 min 35 sec) 
Heartbeat CPU 0 instructions: 34000001 cycles: 13185065 heartbeat IPC: 2.58004 cumulative IPC: 2.57868 (Simulation time: 0 hr 16 min 4 sec) 
Heartbeat CPU 0 instructions: 35000003 cycles: 13646187 heartbeat IPC: 2.16863 cumulative IPC: 2.56482 (Simulation time: 0 hr 16 min 33 sec) 
Heartbeat CPU 0 instructions: 36000000 cycles: 13985067 heartbeat IPC: 2.95089 cumulative IPC: 2.57417 (Simulation time: 0 hr 16 min 59 sec) 
Heartbeat CPU 0 instructions: 37000003 cycles: 14341702 heartbeat IPC: 2.804 cumulative IPC: 2.57989 (Simulation time: 0 hr 17 min 26 sec) 
Heartbeat CPU 0 instructions: 38000000 cycles: 14729508 heartbeat IPC: 2.5786 cumulative IPC: 2.57986 (Simulation time: 0 hr 17 min 55 sec) 
Heartbeat CPU 0 instructions: 39000002 cycles: 15172769 heartbeat IPC: 2.25601 cumulative IPC: 2.57039 (Simulation time: 0 hr 18 min 26 sec) 
Heartbeat CPU 0 instructions: 40000000 cycles: 15511790 heartbeat IPC: 2.94966 cumulative IPC: 2.57868 (Simulation time: 0 hr 18 min 50 sec) 
Heartbeat CPU 0 instructions: 41000003 cycles: 15896355 heartbeat IPC: 2.60035 cumulative IPC: 2.57921 (Simulation time: 0 hr 19 min 16 sec) 
Heartbeat CPU 0 instructions: 42000002 cycles: 16351031 heartbeat IPC: 2.19937 cumulative IPC: 2.56865 (Simulation time: 0 hr 19 min 40 sec) 
Heartbeat CPU 0 instructions: 43000001 cycles: 16690007 heartbeat IPC: 2.95006 cumulative IPC: 2.57639 (Simulation time: 0 hr 20 min 5 sec) 
Heartbeat CPU 0 instructions: 44000000 cycles: 17054093 heartbeat IPC: 2.7466 cumulative IPC: 2.58003 (Simulation time: 0 hr 20 min 32 sec) 
Heartbeat CPU 0 instructions: 45000000 cycles: 17467224 heartbeat IPC: 2.42054 cumulative IPC: 2.57625 (Simulation time: 0 hr 21 min 0 sec) 
Heartbeat CPU 0 instructions: 46000002 cycles: 17866774 heartbeat IPC: 2.50282 cumulative IPC: 2.57461 (Simulation time: 0 hr 21 min 25 sec) 
Heartbeat CPU 0 instructions: 47000003 cycles: 18205760 heartbeat IPC: 2.94998 cumulative IPC: 2.5816 (Simulation time: 0 hr 21 min 53 sec) 
Heartbeat CPU 0 instructions: 48000000 cycles: 18582719 heartbeat IPC: 2.6528 cumulative IPC: 2.58305 (Simulation time: 0 hr 22 min 20 sec) 
Heartbeat CPU 0 instructions: 49000002 cycles: 19023814 heartbeat IPC: 2.26709 cumulative IPC: 2.57572 (Simulation time: 0 hr 22 min 48 sec) 
Heartbeat CPU 0 instructions: 50000002 cycles: 19362760 heartbeat IPC: 2.95032 cumulative IPC: 2.58228 (Simulation time: 0 hr 23 min 15 sec) 

Warmup complete CPU 0 instructions: 50000002 cycles: 19362760 (Simulation time: 0 hr 23 min 15 sec) 

Heartbeat CPU 0 instructions: 51000001 cycles: 20560174 heartbeat IPC: 0.835132 cumulative IPC: 0.835132 (Simulation time: 0 hr 23 min 50 sec) 
Heartbeat CPU 0 instructions: 52000000 cycles: 21407237 heartbeat IPC: 1.18055 cumulative IPC: 0.978244 (Simulation time: 0 hr 24 min 24 sec) 
Heartbeat CPU 0 instructions: 53000002 cycles: 22295765 heartbeat IPC: 1.12546 cumulative IPC: 1.02284 (Simulation time: 0 hr 25 min 1 sec) 
Heartbeat CPU 0 instructions: 54000003 cycles: 23414022 heartbeat IPC: 0.89425 cumulative IPC: 0.987347 (Simulation time: 0 hr 25 min 35 sec) 
Heartbeat CPU 0 instructions: 55000001 cycles: 24296010 heartbeat IPC: 1.1338 cumulative IPC: 1.01353 (Simulation time: 0 hr 26 min 6 sec) 
Heartbeat CPU 0 instructions: 56000000 cycles: 25187447 heartbeat IPC: 1.12178 cumulative IPC: 1.0301 (Simulation time: 0 hr 26 min 37 sec) 
Heartbeat CPU 0 instructions: 57000000 cycles: 26155631 heartbeat IPC: 1.03286 cumulative IPC: 1.03049 (Simulation time: 0 hr 27 min 9 sec) 
Heartbeat CPU 0 instructions: 58000000 cycles: 27184696 heartbeat IPC: 0.971756 cumulative IPC: 1.02276 (Simulation time: 0 hr 27 min 41 sec) 
Heartbeat CPU 0 instructions: 59000001 cycles: 28041695 heartbeat IPC: 1.16686 cumulative IPC: 1.03699 (Simulation time: 0 hr 28 min 13 sec) 
Heartbeat CPU 0 instructions: 60000000 cycles: 28900643 heartbeat IPC: 1.16421 cumulative IPC: 1.04845 (Simulation time: 0 hr 28 min 44 sec) 
Heartbeat CPU 0 instructions: 61000000 cycles: 30173790 heartbeat IPC: 0.785455 cumulative IPC: 1.01748 (Simulation time: 0 hr 29 min 15 sec) 
Heartbeat CPU 0 instructions: 62000002 cycles: 31315926 heartbeat IPC: 0.875554 cumulative IPC: 1.00392 (Simulation time: 0 hr 29 min 46 sec) 
Heartbeat CPU 0 instructions: 63000003 cycles: 32141054 heartbeat IPC: 1.21193 cumulative IPC: 1.01735 (Simulation time: 0 hr 30 min 13 sec) 
Heartbeat CPU 0 instructions: 64000000 cycles: 33017579 heartbeat IPC: 1.14087 cumulative IPC: 1.02528 (Simulation time: 0 hr 30 min 45 sec) 
Heartbeat CPU 0 instructions: 65000000 cycles: 34073617 heartbeat IPC: 0.946936 cumulative IPC: 1.01965 (Simulation time: 0 hr 31 min 16 sec) 
Heartbeat CPU 0 instructions: 66000001 cycles: 35021050 heartbeat IPC: 1.05548 cumulative IPC: 1.02182 (Simulation time: 0 hr 31 min 46 sec) 
Heartbeat CPU 0 instructions: 67000000 cycles: 35881760 heartbeat IPC: 1.16183 cumulative IPC: 1.02912 (Simulation time: 0 hr 32 min 18 sec) 
Heartbeat CPU 0 instructions: 68000000 cycles: 36785410 heartbeat IPC: 1.10662 cumulative IPC: 1.03314 (Simulation time: 0 hr 32 min 50 sec) 
Heartbeat CPU 0 instructions: 69000003 cycles: 37878300 heartbeat IPC: 0.915008 cumulative IPC: 1.02617 (Simulation time: 0 hr 33 min 22 sec) 
Heartbeat CPU 0 instructions: 70000001 cycles: 38755390 heartbeat IPC: 1.14013 cumulative IPC: 1.03132 (Simulation time: 0 hr 33 min 56 sec) 
Heartbeat CPU 0 instructions: 71000001 cycles: 39612875 heartbeat IPC: 1.1662 cumulative IPC: 1.03703 (Simulation time: 0 hr 34 min 27 sec) 
Heartbeat CPU 0 instructions: 72000000 cycles: 40831797 heartbeat IPC: 0.820396 cumulative IPC: 1.02473 (Simulation time: 0 hr 35 min 0 sec) 
Heartbeat CPU 0 instructions: 73000001 cycles: 41674524 heartbeat IPC: 1.18663 cumulative IPC: 1.03085 (Simulation time: 0 hr 35 min 32 sec) 
Heartbeat CPU 0 instructions: 74000001 cycles: 42494171 heartbeat IPC: 1.22004 cumulative IPC: 1.03755 (Simulation time: 0 hr 36 min 10 sec) 
Heartbeat CPU 0 instructions: 75000003 cycles: 43515245 heartbeat IPC: 0.979363 cumulative IPC: 1.03509 (Simulation time: 0 hr 36 min 45 sec) 
Heartbeat CPU 0 instructions: 76000000 cycles: 44433006 heartbeat IPC: 1.0896 cumulative IPC: 1.03709 (Simulation time: 0 hr 37 min 25 sec) 
Heartbeat CPU 0 instructions: 77000002 cycles: 45283894 heartbeat IPC: 1.17525 cumulative IPC: 1.04162 (Simulation time: 0 hr 37 min 57 sec) 
Heartbeat CPU 0 instructions: 78000002 cycles: 46168702 heartbeat IPC: 1.13019 cumulative IPC: 1.04454 (Simulation time: 0 hr 38 min 30 sec) 
Heartbeat CPU 0 instructions: 79000001 cycles: 47220074 heartbeat IPC: 0.951137 cumulative IPC: 1.04102 (Simulation time: 0 hr 39 min 3 sec) 
Heartbeat CPU 0 instructions: 80000000 cycles: 48095157 heartbeat IPC: 1.14275 cumulative IPC: 1.04412 (Simulation time: 0 hr 39 min 36 sec) 
Heartbeat CPU 0 instructions: 81000001 cycles: 48953598 heartbeat IPC: 1.1649 cumulative IPC: 1.04762 (Simulation time: 0 hr 40 min 9 sec) 
Heartbeat CPU 0 instructions: 82000000 cycles: 50123239 heartbeat IPC: 0.854962 cumulative IPC: 1.0403 (Simulation time: 0 hr 40 min 41 sec) 
Heartbeat CPU 0 instructions: 83000001 cycles: 50920885 heartbeat IPC: 1.25369 cumulative IPC: 1.04569 (Simulation time: 0 hr 41 min 12 sec) 
Heartbeat CPU 0 instructions: 84000000 cycles: 51712414 heartbeat IPC: 1.26338 cumulative IPC: 1.05102 (Simulation time: 0 hr 41 min 42 sec) 
Heartbeat CPU 0 instructions: 85000002 cycles: 52831731 heartbeat IPC: 0.893404 cumulative IPC: 1.04574 (Simulation time: 0 hr 42 min 14 sec) 
Heartbeat CPU 0 instructions: 86000003 cycles: 53704880 heartbeat IPC: 1.14528 cumulative IPC: 1.04828 (Simulation time: 0 hr 42 min 45 sec) 
Heartbeat CPU 0 instructions: 87000001 cycles: 54505771 heartbeat IPC: 1.24861 cumulative IPC: 1.05284 (Simulation time: 0 hr 43 min 17 sec) 
Heartbeat CPU 0 instructions: 88000000 cycles: 55507827 heartbeat IPC: 0.997947 cumulative IPC: 1.05132 (Simulation time: 0 hr 43 min 49 sec) 
Heartbeat CPU 0 instructions: 89000000 cycles: 56500597 heartbeat IPC: 1.00728 cumulative IPC: 1.05014 (Simulation time: 0 hr 44 min 21 sec) 
Heartbeat CPU 0 instructions: 90000003 cycles: 57295400 heartbeat IPC: 1.25818 cumulative IPC: 1.0545 (Simulation time: 0 hr 44 min 52 sec) 
Heartbeat CPU 0 instructions: 91000000 cycles: 58145541 heartbeat IPC: 1.17627 cumulative IPC: 1.05717 (Simulation time: 0 hr 45 min 24 sec) 
Heartbeat CPU 0 instructions: 92000000 cycles: 59343882 heartbeat IPC: 0.834487 cumulative IPC: 1.0505 (Simulation time: 0 hr 46 min 5 sec) 
Heartbeat CPU 0 instructions: 93000001 cycles: 60195665 heartbeat IPC: 1.17401 cumulative IPC: 1.05307 (Simulation time: 0 hr 46 min 45 sec) 
Heartbeat CPU 0 instructions: 94000001 cycles: 60981484 heartbeat IPC: 1.27256 cumulative IPC: 1.05722 (Simulation time: 0 hr 47 min 15 sec) 
Heartbeat CPU 0 instructions: 95000002 cycles: 62141795 heartbeat IPC: 0.861839 cumulative IPC: 1.05192 (Simulation time: 0 hr 47 min 46 sec) 
Heartbeat CPU 0 instructions: 96000000 cycles: 62968370 heartbeat IPC: 1.20981 cumulative IPC: 1.05491 (Simulation time: 0 hr 48 min 16 sec) 
Heartbeat CPU 0 instructions: 97000002 cycles: 63813654 heartbeat IPC: 1.18304 cumulative IPC: 1.05735 (Simulation time: 0 hr 48 min 48 sec) 
Heartbeat CPU 0 instructions: 98000000 cycles: 64940273 heartbeat IPC: 0.88761 cumulative IPC: 1.05315 (Simulation time: 0 hr 49 min 19 sec) 
Heartbeat CPU 0 instructions: 99000003 cycles: 66076518 heartbeat IPC: 0.880095 cumulative IPC: 1.04894 (Simulation time: 0 hr 49 min 50 sec) 
Heartbeat CPU 0 instructions: 100000000 cycles: 66867138 heartbeat IPC: 1.26483 cumulative IPC: 1.05253 (Simulation time: 0 hr 50 min 21 sec) 
Heartbeat CPU 0 instructions: 101000000 cycles: 67646082 heartbeat IPC: 1.28379 cumulative IPC: 1.05627 (Simulation time: 0 hr 50 min 51 sec) 
Heartbeat CPU 0 instructions: 102000001 cycles: 69166510 heartbeat IPC: 0.65771 cumulative IPC: 1.0441 (Simulation time: 0 hr 51 min 25 sec) 
Heartbeat CPU 0 instructions: 103000000 cycles: 70449352 heartbeat IPC: 0.779518 cumulative IPC: 1.03745 (Simulation time: 0 hr 51 min 58 sec) 
Heartbeat CPU 0 instructions: 104000000 cycles: 71418346 heartbeat IPC: 1.032 cumulative IPC: 1.03735 (Simulation time: 0 hr 52 min 29 sec) 
Heartbeat CPU 0 instructions: 105000003 cycles: 72168652 heartbeat IPC: 1.33279 cumulative IPC: 1.04155 (Simulation time: 0 hr 53 min 0 sec) 
Heartbeat CPU 0 instructions: 106000000 cycles: 72931076 heartbeat IPC: 1.3116 cumulative IPC: 1.04539 (Simulation time: 0 hr 53 min 31 sec) 
Heartbeat CPU 0 instructions: 107000001 cycles: 74397474 heartbeat IPC: 0.681944 cumulative IPC: 1.03571 (Simulation time: 0 hr 54 min 4 sec) 
Heartbeat CPU 0 instructions: 108000000 cycles: 75303217 heartbeat IPC: 1.10406 cumulative IPC: 1.03682 (Simulation time: 0 hr 54 min 34 sec) 
Heartbeat CPU 0 instructions: 109000000 cycles: 76111816 heartbeat IPC: 1.23671 cumulative IPC: 1.03966 (Simulation time: 0 hr 55 min 9 sec) 
Heartbeat CPU 0 instructions: 110000000 cycles: 77198452 heartbeat IPC: 0.920271 cumulative IPC: 1.03742 (Simulation time: 0 hr 55 min 44 sec) 
Heartbeat CPU 0 instructions: 111000000 cycles: 78604246 heartbeat IPC: 0.711342 cumulative IPC: 1.02968 (Simulation time: 0 hr 56 min 21 sec) 
Heartbeat CPU 0 instructions: 112000000 cycles: 79555842 heartbeat IPC: 1.05087 cumulative IPC: 1.03002 (Simulation time: 0 hr 56 min 57 sec) 
Heartbeat CPU 0 instructions: 113000002 cycles: 80385578 heartbeat IPC: 1.20521 cumulative IPC: 1.0324 (Simulation time: 0 hr 57 min 30 sec) 
Heartbeat CPU 0 instructions: 114000000 cycles: 81606249 heartbeat IPC: 0.81922 cumulative IPC: 1.02822 (Simulation time: 0 hr 58 min 5 sec) 
Heartbeat CPU 0 instructions: 115000001 cycles: 82988403 heartbeat IPC: 0.723509 cumulative IPC: 1.0216 (Simulation time: 0 hr 58 min 38 sec) 
Heartbeat CPU 0 instructions: 116000000 cycles: 83861466 heartbeat IPC: 1.14539 cumulative IPC: 1.02328 (Simulation time: 0 hr 59 min 11 sec) 
Heartbeat CPU 0 instructions: 117000000 cycles: 84704515 heartbeat IPC: 1.18617 cumulative IPC: 1.02538 (Simulation time: 0 hr 59 min 44 sec) 
Heartbeat CPU 0 instructions: 118000003 cycles: 85973910 heartbeat IPC: 0.787779 cumulative IPC: 1.02085 (Simulation time: 1 hr 0 min 20 sec) 
Heartbeat CPU 0 instructions: 119000003 cycles: 87028651 heartbeat IPC: 0.9481 cumulative IPC: 1.01972 (Simulation time: 1 hr 0 min 53 sec) 
Heartbeat CPU 0 instructions: 120000000 cycles: 87880464 heartbeat IPC: 1.17396 cumulative IPC: 1.02163 (Simulation time: 1 hr 1 min 26 sec) 
Heartbeat CPU 0 instructions: 121000001 cycles: 88771746 heartbeat IPC: 1.12198 cumulative IPC: 1.02292 (Simulation time: 1 hr 2 min 1 sec) 
Heartbeat CPU 0 instructions: 122000002 cycles: 90062276 heartbeat IPC: 0.774876 cumulative IPC: 1.01839 (Simulation time: 1 hr 2 min 37 sec) 
Heartbeat CPU 0 instructions: 123000000 cycles: 90907459 heartbeat IPC: 1.18317 cumulative IPC: 1.02034 (Simulation time: 1 hr 3 min 9 sec) 
Heartbeat CPU 0 instructions: 124000000 cycles: 91745808 heartbeat IPC: 1.19282 cumulative IPC: 1.02234 (Simulation time: 1 hr 3 min 41 sec) 
Heartbeat CPU 0 instructions: 125000002 cycles: 92915013 heartbeat IPC: 0.855284 cumulative IPC: 1.01968 (Simulation time: 1 hr 4 min 17 sec) 
Heartbeat CPU 0 instructions: 126000000 cycles: 93778553 heartbeat IPC: 1.15802 cumulative IPC: 1.02129 (Simulation time: 1 hr 4 min 50 sec) 
Heartbeat CPU 0 instructions: 127000001 cycles: 94637974 heartbeat IPC: 1.16358 cumulative IPC: 1.02291 (Simulation time: 1 hr 5 min 23 sec) 
Heartbeat CPU 0 instructions: 128000000 cycles: 95530185 heartbeat IPC: 1.12081 cumulative IPC: 1.02406 (Simulation time: 1 hr 5 min 54 sec) 
Heartbeat CPU 0 instructions: 129000002 cycles: 96376705 heartbeat IPC: 1.18131 cumulative IPC: 1.02579 (Simulation time: 1 hr 6 min 24 sec) 
Heartbeat CPU 0 instructions: 130000000 cycles: 97211160 heartbeat IPC: 1.19838 cumulative IPC: 1.02764 (Simulation time: 1 hr 6 min 56 sec) 
Heartbeat CPU 0 instructions: 131000000 cycles: 98062786 heartbeat IPC: 1.17422 cumulative IPC: 1.02922 (Simulation time: 1 hr 7 min 29 sec) 
Heartbeat CPU 0 instructions: 132000000 cycles: 98951954 heartbeat IPC: 1.12465 cumulative IPC: 1.03029 (Simulation time: 1 hr 7 min 57 sec) 
Heartbeat CPU 0 instructions: 133000002 cycles: 99793040 heartbeat IPC: 1.18894 cumulative IPC: 1.03195 (Simulation time: 1 hr 8 min 27 sec) 
Heartbeat CPU 0 instructions: 134000000 cycles: 100741716 heartbeat IPC: 1.0541 cumulative IPC: 1.03221 (Simulation time: 1 hr 8 min 58 sec) 
Heartbeat CPU 0 instructions: 135000001 cycles: 101971895 heartbeat IPC: 0.812891 cumulative IPC: 1.02894 (Simulation time: 1 hr 9 min 30 sec) 
Heartbeat CPU 0 instructions: 136000000 cycles: 102862104 heartbeat IPC: 1.12333 cumulative IPC: 1.02995 (Simulation time: 1 hr 10 min 0 sec) 
Heartbeat CPU 0 instructions: 137000001 cycles: 103622378 heartbeat IPC: 1.31532 cumulative IPC: 1.03252 (Simulation time: 1 hr 10 min 31 sec) 
Heartbeat CPU 0 instructions: 138000001 cycles: 104856062 heartbeat IPC: 0.81058 cumulative IPC: 1.02932 (Simulation time: 1 hr 11 min 0 sec) 
Heartbeat CPU 0 instructions: 139000001 cycles: 105695145 heartbeat IPC: 1.19178 cumulative IPC: 1.0309 (Simulation time: 1 hr 11 min 29 sec) 
Heartbeat CPU 0 instructions: 140000000 cycles: 106520103 heartbeat IPC: 1.21218 cumulative IPC: 1.03262 (Simulation time: 1 hr 11 min 58 sec) 
Heartbeat CPU 0 instructions: 141000001 cycles: 107589749 heartbeat IPC: 0.93489 cumulative IPC: 1.03143 (Simulation time: 1 hr 12 min 31 sec) 
Heartbeat CPU 0 instructions: 142000000 cycles: 108547707 heartbeat IPC: 1.04389 cumulative IPC: 1.03156 (Simulation time: 1 hr 13 min 1 sec) 
Heartbeat CPU 0 instructions: 143000000 cycles: 109391345 heartbeat IPC: 1.18534 cumulative IPC: 1.03301 (Simulation time: 1 hr 13 min 32 sec) 
Heartbeat CPU 0 instructions: 144000000 cycles: 110270584 heartbeat IPC: 1.13735 cumulative IPC: 1.03401 (Simulation time: 1 hr 14 min 3 sec) 
Heartbeat CPU 0 instructions: 145000002 cycles: 111384524 heartbeat IPC: 0.897716 cumulative IPC: 1.03236 (Simulation time: 1 hr 14 min 35 sec) 
Heartbeat CPU 0 instructions: 146000000 cycles: 112240577 heartbeat IPC: 1.16815 cumulative IPC: 1.03362 (Simulation time: 1 hr 15 min 0 sec) 
Heartbeat CPU 0 instructions: 147000002 cycles: 113066019 heartbeat IPC: 1.21147 cumulative IPC: 1.03518 (Simulation time: 1 hr 15 min 23 sec) 
Heartbeat CPU 0 instructions: 148000000 cycles: 114361175 heartbeat IPC: 0.772106 cumulative IPC: 1.0316 (Simulation time: 1 hr 15 min 47 sec) 
Heartbeat CPU 0 instructions: 149000000 cycles: 115524182 heartbeat IPC: 0.85984 cumulative IPC: 1.02952 (Simulation time: 1 hr 16 min 11 sec) 
Heartbeat CPU 0 instructions: 150000001 cycles: 116368884 heartbeat IPC: 1.18385 cumulative IPC: 1.03086 (Simulation time: 1 hr 16 min 32 sec) 
Finished CPU 0 instructions: 100000003 cycles: 97006125 cummulative IPC: 1.03086 (Simulation time: 1 hr 16 min 32 sec) 

ChampSim completed all CPUs

Region of Interest Statistics

CPU 0 cummulative IPC: 1.03086 instructions: 100000003 cycles: 97006125
LLC TOTAL     ACCESS:    1600627  HIT:     827902  MISS:     772725
LLC LOAD      ACCESS:     216527  HIT:     172678  MISS:      43849
LLC RFO       ACCESS:     111333  HIT:     104763  MISS:       6570
LLC PREFETCH  ACCESS:    1135791  HIT:     413812  MISS:     721979
LLC WRITEBACK ACCESS:     136976  HIT:     136649  MISS:        327
OPTgen accesses: 7378
OPTgen hits: 7384
OPTgen hit rate: 100.081


