
*** ChampSim Multicore Out-of-Order Simulator ***

Warmup Instructions: 50000000
Simulation Instructions: 100000000
Configuration: 2
Number of CPUs: 1
LLC sets: 2048
LLC ways: 16
Off-chip DRAM Channels: 1 Width: 64-bit Data Rate: 1600 MT/s

CPU 0 runs /datasets/cs240c-wi22-a00-public/data/Assignment2-gz/GemsFDTD_109B.trace.gz
CPU 0 L1D next line prefetcher
CPU 0 L2C IP-based stride prefetcher
Initialize Hawkeye state
Heartbeat CPU 0 instructions: 1000002 cycles: 579772 heartbeat IPC: 1.72482 cumulative IPC: 1.72482 (Simulation time: 0 hr 0 min 38 sec) 
Heartbeat CPU 0 instructions: 2000001 cycles: 1159543 heartbeat IPC: 1.72482 cumulative IPC: 1.72482 (Simulation time: 0 hr 1 min 17 sec) 
Heartbeat CPU 0 instructions: 3000000 cycles: 1738735 heartbeat IPC: 1.72654 cumulative IPC: 1.72539 (Simulation time: 0 hr 1 min 56 sec) 
Heartbeat CPU 0 instructions: 4000000 cycles: 2317737 heartbeat IPC: 1.72711 cumulative IPC: 1.72582 (Simulation time: 0 hr 2 min 34 sec) 
Heartbeat CPU 0 instructions: 5000000 cycles: 2897551 heartbeat IPC: 1.72469 cumulative IPC: 1.7256 (Simulation time: 0 hr 3 min 12 sec) 
Heartbeat CPU 0 instructions: 6000002 cycles: 3478271 heartbeat IPC: 1.722 cumulative IPC: 1.725 (Simulation time: 0 hr 3 min 50 sec) 
Heartbeat CPU 0 instructions: 7000001 cycles: 4058933 heartbeat IPC: 1.72217 cumulative IPC: 1.72459 (Simulation time: 0 hr 4 min 27 sec) 
Heartbeat CPU 0 instructions: 8000000 cycles: 4639129 heartbeat IPC: 1.72355 cumulative IPC: 1.72446 (Simulation time: 0 hr 5 min 4 sec) 
Heartbeat CPU 0 instructions: 9000002 cycles: 5219299 heartbeat IPC: 1.72364 cumulative IPC: 1.72437 (Simulation time: 0 hr 5 min 43 sec) 
Heartbeat CPU 0 instructions: 10000001 cycles: 5799482 heartbeat IPC: 1.72359 cumulative IPC: 1.72429 (Simulation time: 0 hr 6 min 22 sec) 
Heartbeat CPU 0 instructions: 11000000 cycles: 6379303 heartbeat IPC: 1.72467 cumulative IPC: 1.72433 (Simulation time: 0 hr 7 min 0 sec) 
Heartbeat CPU 0 instructions: 12000000 cycles: 6959186 heartbeat IPC: 1.72449 cumulative IPC: 1.72434 (Simulation time: 0 hr 7 min 39 sec) 
Heartbeat CPU 0 instructions: 13000001 cycles: 7539244 heartbeat IPC: 1.72397 cumulative IPC: 1.72431 (Simulation time: 0 hr 8 min 20 sec) 
Heartbeat CPU 0 instructions: 14000003 cycles: 8119139 heartbeat IPC: 1.72445 cumulative IPC: 1.72432 (Simulation time: 0 hr 8 min 59 sec) 
Heartbeat CPU 0 instructions: 15000000 cycles: 8699238 heartbeat IPC: 1.72384 cumulative IPC: 1.72429 (Simulation time: 0 hr 9 min 34 sec) 
Heartbeat CPU 0 instructions: 16000000 cycles: 9279411 heartbeat IPC: 1.72362 cumulative IPC: 1.72425 (Simulation time: 0 hr 10 min 16 sec) 
Heartbeat CPU 0 instructions: 17000002 cycles: 9859633 heartbeat IPC: 1.72348 cumulative IPC: 1.7242 (Simulation time: 0 hr 10 min 53 sec) 
Heartbeat CPU 0 instructions: 18000003 cycles: 10439479 heartbeat IPC: 1.7246 cumulative IPC: 1.72422 (Simulation time: 0 hr 11 min 30 sec) 
Heartbeat CPU 0 instructions: 19000000 cycles: 11019321 heartbeat IPC: 1.7246 cumulative IPC: 1.72424 (Simulation time: 0 hr 12 min 19 sec) 
Heartbeat CPU 0 instructions: 20000000 cycles: 11596236 heartbeat IPC: 1.73336 cumulative IPC: 1.7247 (Simulation time: 0 hr 12 min 52 sec) 
Heartbeat CPU 0 instructions: 21000000 cycles: 12041369 heartbeat IPC: 2.24652 cumulative IPC: 1.74399 (Simulation time: 0 hr 13 min 21 sec) 
Heartbeat CPU 0 instructions: 22000000 cycles: 12573582 heartbeat IPC: 1.87895 cumulative IPC: 1.7497 (Simulation time: 0 hr 13 min 51 sec) 
Heartbeat CPU 0 instructions: 23000000 cycles: 13023020 heartbeat IPC: 2.225 cumulative IPC: 1.7661 (Simulation time: 0 hr 14 min 20 sec) 
Heartbeat CPU 0 instructions: 24000000 cycles: 13564895 heartbeat IPC: 1.84544 cumulative IPC: 1.76927 (Simulation time: 0 hr 14 min 49 sec) 
Heartbeat CPU 0 instructions: 25000001 cycles: 14023980 heartbeat IPC: 2.17825 cumulative IPC: 1.78266 (Simulation time: 0 hr 15 min 20 sec) 
Heartbeat CPU 0 instructions: 26000000 cycles: 14554217 heartbeat IPC: 1.88595 cumulative IPC: 1.78642 (Simulation time: 0 hr 15 min 49 sec) 
Heartbeat CPU 0 instructions: 27000000 cycles: 15030188 heartbeat IPC: 2.10097 cumulative IPC: 1.79638 (Simulation time: 0 hr 16 min 17 sec) 
Heartbeat CPU 0 instructions: 28000000 cycles: 15533184 heartbeat IPC: 1.98809 cumulative IPC: 1.80259 (Simulation time: 0 hr 16 min 46 sec) 
Heartbeat CPU 0 instructions: 29000000 cycles: 16006154 heartbeat IPC: 2.1143 cumulative IPC: 1.8118 (Simulation time: 0 hr 17 min 14 sec) 
Heartbeat CPU 0 instructions: 30000001 cycles: 16526092 heartbeat IPC: 1.92331 cumulative IPC: 1.81531 (Simulation time: 0 hr 17 min 40 sec) 
Heartbeat CPU 0 instructions: 31000001 cycles: 17026821 heartbeat IPC: 1.99709 cumulative IPC: 1.82066 (Simulation time: 0 hr 18 min 6 sec) 
Heartbeat CPU 0 instructions: 32000000 cycles: 17509027 heartbeat IPC: 2.0738 cumulative IPC: 1.82763 (Simulation time: 0 hr 18 min 33 sec) 
Heartbeat CPU 0 instructions: 33000003 cycles: 18012030 heartbeat IPC: 1.98807 cumulative IPC: 1.83211 (Simulation time: 0 hr 19 min 3 sec) 
Heartbeat CPU 0 instructions: 34000002 cycles: 18491916 heartbeat IPC: 2.08383 cumulative IPC: 1.83864 (Simulation time: 0 hr 19 min 33 sec) 
Heartbeat CPU 0 instructions: 35000002 cycles: 18994629 heartbeat IPC: 1.98921 cumulative IPC: 1.84263 (Simulation time: 0 hr 20 min 7 sec) 
Heartbeat CPU 0 instructions: 36000000 cycles: 19486780 heartbeat IPC: 2.03189 cumulative IPC: 1.84741 (Simulation time: 0 hr 20 min 34 sec) 
Heartbeat CPU 0 instructions: 37000000 cycles: 19901827 heartbeat IPC: 2.40937 cumulative IPC: 1.85913 (Simulation time: 0 hr 21 min 3 sec) 
Heartbeat CPU 0 instructions: 38000001 cycles: 20316872 heartbeat IPC: 2.40938 cumulative IPC: 1.87037 (Simulation time: 0 hr 21 min 32 sec) 
Heartbeat CPU 0 instructions: 39000000 cycles: 20731858 heartbeat IPC: 2.40972 cumulative IPC: 1.88116 (Simulation time: 0 hr 22 min 3 sec) 
Heartbeat CPU 0 instructions: 40000000 cycles: 21146867 heartbeat IPC: 2.40959 cumulative IPC: 1.89153 (Simulation time: 0 hr 22 min 33 sec) 
Heartbeat CPU 0 instructions: 41000000 cycles: 21657599 heartbeat IPC: 1.95797 cumulative IPC: 1.8931 (Simulation time: 0 hr 23 min 1 sec) 
Heartbeat CPU 0 instructions: 42000000 cycles: 22072616 heartbeat IPC: 2.40954 cumulative IPC: 1.90281 (Simulation time: 0 hr 23 min 32 sec) 
Heartbeat CPU 0 instructions: 43000000 cycles: 22487669 heartbeat IPC: 2.40933 cumulative IPC: 1.91216 (Simulation time: 0 hr 24 min 7 sec) 
Heartbeat CPU 0 instructions: 44000000 cycles: 22902621 heartbeat IPC: 2.40992 cumulative IPC: 1.92118 (Simulation time: 0 hr 24 min 37 sec) 
Heartbeat CPU 0 instructions: 45000000 cycles: 23317630 heartbeat IPC: 2.40959 cumulative IPC: 1.92987 (Simulation time: 0 hr 25 min 9 sec) 
Heartbeat CPU 0 instructions: 46000003 cycles: 23728093 heartbeat IPC: 2.43628 cumulative IPC: 1.93863 (Simulation time: 0 hr 25 min 40 sec) 
Heartbeat CPU 0 instructions: 47000001 cycles: 24361973 heartbeat IPC: 1.57758 cumulative IPC: 1.92924 (Simulation time: 0 hr 26 min 5 sec) 
Heartbeat CPU 0 instructions: 48000000 cycles: 24962819 heartbeat IPC: 1.66432 cumulative IPC: 1.92286 (Simulation time: 0 hr 26 min 33 sec) 
Heartbeat CPU 0 instructions: 49000003 cycles: 25556691 heartbeat IPC: 1.68387 cumulative IPC: 1.91731 (Simulation time: 0 hr 27 min 20 sec) 
Heartbeat CPU 0 instructions: 50000001 cycles: 26222917 heartbeat IPC: 1.50099 cumulative IPC: 1.90673 (Simulation time: 0 hr 27 min 56 sec) 

Warmup complete CPU 0 instructions: 50000001 cycles: 26222917 (Simulation time: 0 hr 27 min 56 sec) 

Heartbeat CPU 0 instructions: 51000000 cycles: 27729133 heartbeat IPC: 0.663915 cumulative IPC: 0.663915 (Simulation time: 0 hr 28 min 34 sec) 
Heartbeat CPU 0 instructions: 52000000 cycles: 29287304 heartbeat IPC: 0.641778 cumulative IPC: 0.652659 (Simulation time: 0 hr 29 min 15 sec) 
Heartbeat CPU 0 instructions: 53000000 cycles: 30892596 heartbeat IPC: 0.62294 cumulative IPC: 0.642442 (Simulation time: 0 hr 29 min 55 sec) 
Heartbeat CPU 0 instructions: 54000000 cycles: 32503316 heartbeat IPC: 0.62084 cumulative IPC: 0.636902 (Simulation time: 0 hr 30 min 37 sec) 
Heartbeat CPU 0 instructions: 55000000 cycles: 34104459 heartbeat IPC: 0.624554 cumulative IPC: 0.634394 (Simulation time: 0 hr 31 min 18 sec) 
Heartbeat CPU 0 instructions: 56000000 cycles: 35708953 heartbeat IPC: 0.623249 cumulative IPC: 0.632509 (Simulation time: 0 hr 32 min 3 sec) 
Heartbeat CPU 0 instructions: 57000002 cycles: 37351600 heartbeat IPC: 0.608775 cumulative IPC: 0.629005 (Simulation time: 0 hr 32 min 47 sec) 
Heartbeat CPU 0 instructions: 58000002 cycles: 38963315 heartbeat IPC: 0.620457 cumulative IPC: 0.627924 (Simulation time: 0 hr 33 min 31 sec) 
Heartbeat CPU 0 instructions: 59000001 cycles: 40585957 heartbeat IPC: 0.616278 cumulative IPC: 0.626608 (Simulation time: 0 hr 34 min 13 sec) 
Heartbeat CPU 0 instructions: 60000000 cycles: 42205482 heartbeat IPC: 0.617464 cumulative IPC: 0.625682 (Simulation time: 0 hr 34 min 56 sec) 
Heartbeat CPU 0 instructions: 61000000 cycles: 43797395 heartbeat IPC: 0.628175 cumulative IPC: 0.625908 (Simulation time: 0 hr 35 min 37 sec) 
Heartbeat CPU 0 instructions: 62000000 cycles: 45381849 heartbeat IPC: 0.631132 cumulative IPC: 0.62634 (Simulation time: 0 hr 36 min 19 sec) 
Heartbeat CPU 0 instructions: 63000002 cycles: 46984699 heartbeat IPC: 0.62389 cumulative IPC: 0.626151 (Simulation time: 0 hr 37 min 2 sec) 
Heartbeat CPU 0 instructions: 64000000 cycles: 48607105 heartbeat IPC: 0.616367 cumulative IPC: 0.625441 (Simulation time: 0 hr 37 min 44 sec) 
Heartbeat CPU 0 instructions: 65000003 cycles: 50236012 heartbeat IPC: 0.61391 cumulative IPC: 0.624659 (Simulation time: 0 hr 38 min 29 sec) 
Heartbeat CPU 0 instructions: 66000001 cycles: 51875695 heartbeat IPC: 0.609873 cumulative IPC: 0.623714 (Simulation time: 0 hr 39 min 12 sec) 
Heartbeat CPU 0 instructions: 67000000 cycles: 53482425 heartbeat IPC: 0.622382 cumulative IPC: 0.623636 (Simulation time: 0 hr 39 min 54 sec) 
Heartbeat CPU 0 instructions: 68000000 cycles: 55107767 heartbeat IPC: 0.615255 cumulative IPC: 0.623164 (Simulation time: 0 hr 40 min 39 sec) 
Heartbeat CPU 0 instructions: 69000000 cycles: 56730369 heartbeat IPC: 0.616294 cumulative IPC: 0.622799 (Simulation time: 0 hr 41 min 25 sec) 
Heartbeat CPU 0 instructions: 70000003 cycles: 58311695 heartbeat IPC: 0.632383 cumulative IPC: 0.623271 (Simulation time: 0 hr 42 min 10 sec) 
Heartbeat CPU 0 instructions: 71000003 cycles: 59927149 heartbeat IPC: 0.619021 cumulative IPC: 0.623067 (Simulation time: 0 hr 42 min 57 sec) 
Heartbeat CPU 0 instructions: 72000000 cycles: 61519433 heartbeat IPC: 0.628027 cumulative IPC: 0.623291 (Simulation time: 0 hr 43 min 40 sec) 
Heartbeat CPU 0 instructions: 73000002 cycles: 63144581 heartbeat IPC: 0.61533 cumulative IPC: 0.622941 (Simulation time: 0 hr 44 min 30 sec) 
Heartbeat CPU 0 instructions: 74000000 cycles: 64772754 heartbeat IPC: 0.614184 cumulative IPC: 0.622571 (Simulation time: 0 hr 45 min 17 sec) 
Heartbeat CPU 0 instructions: 75000000 cycles: 66406460 heartbeat IPC: 0.612105 cumulative IPC: 0.622145 (Simulation time: 0 hr 46 min 3 sec) 
Heartbeat CPU 0 instructions: 76000000 cycles: 67996468 heartbeat IPC: 0.628928 cumulative IPC: 0.622403 (Simulation time: 0 hr 46 min 45 sec) 
Heartbeat CPU 0 instructions: 77000003 cycles: 69633036 heartbeat IPC: 0.611037 cumulative IPC: 0.621975 (Simulation time: 0 hr 47 min 34 sec) 
Heartbeat CPU 0 instructions: 78000001 cycles: 71241746 heartbeat IPC: 0.621615 cumulative IPC: 0.621962 (Simulation time: 0 hr 48 min 15 sec) 
Heartbeat CPU 0 instructions: 79000001 cycles: 72830556 heartbeat IPC: 0.629402 cumulative IPC: 0.622216 (Simulation time: 0 hr 49 min 0 sec) 
Heartbeat CPU 0 instructions: 80000000 cycles: 74432566 heartbeat IPC: 0.624215 cumulative IPC: 0.622282 (Simulation time: 0 hr 49 min 42 sec) 
Heartbeat CPU 0 instructions: 81000001 cycles: 76044580 heartbeat IPC: 0.620343 cumulative IPC: 0.622219 (Simulation time: 0 hr 50 min 23 sec) 
Heartbeat CPU 0 instructions: 82000000 cycles: 77648008 heartbeat IPC: 0.623663 cumulative IPC: 0.622264 (Simulation time: 0 hr 51 min 7 sec) 
Heartbeat CPU 0 instructions: 83000003 cycles: 79241235 heartbeat IPC: 0.627659 cumulative IPC: 0.622426 (Simulation time: 0 hr 51 min 50 sec) 
Heartbeat CPU 0 instructions: 84000000 cycles: 80831327 heartbeat IPC: 0.628893 cumulative IPC: 0.622615 (Simulation time: 0 hr 52 min 31 sec) 
Heartbeat CPU 0 instructions: 85000001 cycles: 82449403 heartbeat IPC: 0.618019 cumulative IPC: 0.622482 (Simulation time: 0 hr 53 min 15 sec) 
Heartbeat CPU 0 instructions: 86000002 cycles: 84061375 heartbeat IPC: 0.620359 cumulative IPC: 0.622423 (Simulation time: 0 hr 53 min 58 sec) 
Heartbeat CPU 0 instructions: 87000002 cycles: 85668127 heartbeat IPC: 0.622374 cumulative IPC: 0.622422 (Simulation time: 0 hr 54 min 40 sec) 
Heartbeat CPU 0 instructions: 88000000 cycles: 87294165 heartbeat IPC: 0.614991 cumulative IPC: 0.622224 (Simulation time: 0 hr 55 min 25 sec) 
Heartbeat CPU 0 instructions: 89000003 cycles: 88937429 heartbeat IPC: 0.608547 cumulative IPC: 0.621866 (Simulation time: 0 hr 56 min 8 sec) 
Heartbeat CPU 0 instructions: 90000000 cycles: 90587023 heartbeat IPC: 0.606208 cumulative IPC: 0.621464 (Simulation time: 0 hr 56 min 55 sec) 
Heartbeat CPU 0 instructions: 91000001 cycles: 92225001 heartbeat IPC: 0.610509 cumulative IPC: 0.621193 (Simulation time: 0 hr 57 min 39 sec) 
Heartbeat CPU 0 instructions: 92000000 cycles: 93837705 heartbeat IPC: 0.620076 cumulative IPC: 0.621166 (Simulation time: 0 hr 58 min 25 sec) 
Heartbeat CPU 0 instructions: 93000002 cycles: 95459041 heartbeat IPC: 0.616777 cumulative IPC: 0.621063 (Simulation time: 0 hr 59 min 15 sec) 
Heartbeat CPU 0 instructions: 94000000 cycles: 97066073 heartbeat IPC: 0.622264 cumulative IPC: 0.62109 (Simulation time: 1 hr 0 min 1 sec) 
Heartbeat CPU 0 instructions: 95000000 cycles: 98660484 heartbeat IPC: 0.627191 cumulative IPC: 0.621225 (Simulation time: 1 hr 0 min 49 sec) 
Heartbeat CPU 0 instructions: 96000000 cycles: 100263765 heartbeat IPC: 0.623721 cumulative IPC: 0.621279 (Simulation time: 1 hr 1 min 33 sec) 
Heartbeat CPU 0 instructions: 97000002 cycles: 101865976 heartbeat IPC: 0.624139 cumulative IPC: 0.621339 (Simulation time: 1 hr 2 min 18 sec) 
Heartbeat CPU 0 instructions: 98000000 cycles: 103490618 heartbeat IPC: 0.615519 cumulative IPC: 0.621217 (Simulation time: 1 hr 3 min 6 sec) 
Heartbeat CPU 0 instructions: 99000001 cycles: 105068627 heartbeat IPC: 0.633711 cumulative IPC: 0.621467 (Simulation time: 1 hr 3 min 52 sec) 
Heartbeat CPU 0 instructions: 100000000 cycles: 106697018 heartbeat IPC: 0.614102 cumulative IPC: 0.621318 (Simulation time: 1 hr 4 min 40 sec) 
Heartbeat CPU 0 instructions: 101000001 cycles: 108317268 heartbeat IPC: 0.617189 cumulative IPC: 0.621236 (Simulation time: 1 hr 5 min 25 sec) 
Heartbeat CPU 0 instructions: 102000000 cycles: 109939935 heartbeat IPC: 0.616269 cumulative IPC: 0.62114 (Simulation time: 1 hr 6 min 9 sec) 
Heartbeat CPU 0 instructions: 103000000 cycles: 111544561 heartbeat IPC: 0.623198 cumulative IPC: 0.621179 (Simulation time: 1 hr 6 min 51 sec) 
Heartbeat CPU 0 instructions: 104000000 cycles: 113170254 heartbeat IPC: 0.615122 cumulative IPC: 0.621066 (Simulation time: 1 hr 7 min 35 sec) 
Heartbeat CPU 0 instructions: 105000000 cycles: 114806780 heartbeat IPC: 0.61105 cumulative IPC: 0.620881 (Simulation time: 1 hr 8 min 19 sec) 
Heartbeat CPU 0 instructions: 106000001 cycles: 116423139 heartbeat IPC: 0.618675 cumulative IPC: 0.620841 (Simulation time: 1 hr 9 min 9 sec) 
Heartbeat CPU 0 instructions: 107000001 cycles: 118043245 heartbeat IPC: 0.617244 cumulative IPC: 0.620778 (Simulation time: 1 hr 9 min 51 sec) 
Heartbeat CPU 0 instructions: 108000000 cycles: 119663398 heartbeat IPC: 0.617225 cumulative IPC: 0.620716 (Simulation time: 1 hr 10 min 30 sec) 
Heartbeat CPU 0 instructions: 109000003 cycles: 121251657 heartbeat IPC: 0.629622 cumulative IPC: 0.620865 (Simulation time: 1 hr 11 min 6 sec) 
Heartbeat CPU 0 instructions: 110000002 cycles: 122860972 heartbeat IPC: 0.621382 cumulative IPC: 0.620873 (Simulation time: 1 hr 11 min 47 sec) 
Heartbeat CPU 0 instructions: 111000000 cycles: 124453991 heartbeat IPC: 0.627738 cumulative IPC: 0.620985 (Simulation time: 1 hr 12 min 28 sec) 
Heartbeat CPU 0 instructions: 112000000 cycles: 126057574 heartbeat IPC: 0.623604 cumulative IPC: 0.621027 (Simulation time: 1 hr 13 min 9 sec) 
Heartbeat CPU 0 instructions: 113000000 cycles: 127646479 heartbeat IPC: 0.629364 cumulative IPC: 0.621157 (Simulation time: 1 hr 13 min 52 sec) 
Heartbeat CPU 0 instructions: 114000000 cycles: 129236359 heartbeat IPC: 0.628978 cumulative IPC: 0.621278 (Simulation time: 1 hr 14 min 33 sec) 
Heartbeat CPU 0 instructions: 115000001 cycles: 130858127 heartbeat IPC: 0.616612 cumulative IPC: 0.621206 (Simulation time: 1 hr 15 min 8 sec) 
Heartbeat CPU 0 instructions: 116000000 cycles: 132443662 heartbeat IPC: 0.630701 cumulative IPC: 0.621348 (Simulation time: 1 hr 15 min 42 sec) 
Heartbeat CPU 0 instructions: 117000002 cycles: 134046935 heartbeat IPC: 0.623725 cumulative IPC: 0.621383 (Simulation time: 1 hr 16 min 15 sec) 
Heartbeat CPU 0 instructions: 118000003 cycles: 135658039 heartbeat IPC: 0.620693 cumulative IPC: 0.621373 (Simulation time: 1 hr 16 min 44 sec) 
Heartbeat CPU 0 instructions: 119000001 cycles: 137271316 heartbeat IPC: 0.619855 cumulative IPC: 0.621351 (Simulation time: 1 hr 17 min 12 sec) 
Heartbeat CPU 0 instructions: 120000000 cycles: 138913023 heartbeat IPC: 0.609122 cumulative IPC: 0.621173 (Simulation time: 1 hr 17 min 41 sec) 
Heartbeat CPU 0 instructions: 121000000 cycles: 140503603 heartbeat IPC: 0.628702 cumulative IPC: 0.621277 (Simulation time: 1 hr 18 min 11 sec) 
Heartbeat CPU 0 instructions: 122000002 cycles: 142126493 heartbeat IPC: 0.616186 cumulative IPC: 0.621206 (Simulation time: 1 hr 18 min 39 sec) 
Heartbeat CPU 0 instructions: 123000000 cycles: 143763916 heartbeat IPC: 0.610714 cumulative IPC: 0.62106 (Simulation time: 1 hr 19 min 10 sec) 
Heartbeat CPU 0 instructions: 124000000 cycles: 145371993 heartbeat IPC: 0.621861 cumulative IPC: 0.621071 (Simulation time: 1 hr 19 min 42 sec) 
Heartbeat CPU 0 instructions: 125000000 cycles: 146964791 heartbeat IPC: 0.627826 cumulative IPC: 0.62116 (Simulation time: 1 hr 20 min 11 sec) 
Heartbeat CPU 0 instructions: 126000000 cycles: 148555334 heartbeat IPC: 0.628716 cumulative IPC: 0.621258 (Simulation time: 1 hr 20 min 39 sec) 
Heartbeat CPU 0 instructions: 127000003 cycles: 150185239 heartbeat IPC: 0.613535 cumulative IPC: 0.621157 (Simulation time: 1 hr 21 min 5 sec) 
Heartbeat CPU 0 instructions: 128000000 cycles: 151807394 heartbeat IPC: 0.616462 cumulative IPC: 0.621096 (Simulation time: 1 hr 21 min 30 sec) 
Heartbeat CPU 0 instructions: 129000002 cycles: 153379700 heartbeat IPC: 0.63601 cumulative IPC: 0.62128 (Simulation time: 1 hr 21 min 57 sec) 
Heartbeat CPU 0 instructions: 130000000 cycles: 154995896 heartbeat IPC: 0.618736 cumulative IPC: 0.621248 (Simulation time: 1 hr 22 min 23 sec) 
Heartbeat CPU 0 instructions: 131000001 cycles: 156574106 heartbeat IPC: 0.63363 cumulative IPC: 0.621398 (Simulation time: 1 hr 22 min 49 sec) 
Heartbeat CPU 0 instructions: 132000000 cycles: 158194113 heartbeat IPC: 0.617281 cumulative IPC: 0.621348 (Simulation time: 1 hr 23 min 16 sec) 
Heartbeat CPU 0 instructions: 133000001 cycles: 159818995 heartbeat IPC: 0.61543 cumulative IPC: 0.621276 (Simulation time: 1 hr 23 min 44 sec) 
Heartbeat CPU 0 instructions: 134000003 cycles: 161449448 heartbeat IPC: 0.613328 cumulative IPC: 0.62118 (Simulation time: 1 hr 24 min 9 sec) 
Heartbeat CPU 0 instructions: 135000000 cycles: 163060681 heartbeat IPC: 0.620641 cumulative IPC: 0.621174 (Simulation time: 1 hr 24 min 31 sec) 
Heartbeat CPU 0 instructions: 136000000 cycles: 164667911 heartbeat IPC: 0.622189 cumulative IPC: 0.621185 (Simulation time: 1 hr 24 min 52 sec) 
Heartbeat CPU 0 instructions: 137000001 cycles: 166290006 heartbeat IPC: 0.616487 cumulative IPC: 0.621131 (Simulation time: 1 hr 25 min 15 sec) 
Heartbeat CPU 0 instructions: 138000002 cycles: 167899952 heartbeat IPC: 0.621139 cumulative IPC: 0.621131 (Simulation time: 1 hr 25 min 37 sec) 
Heartbeat CPU 0 instructions: 139000000 cycles: 169497178 heartbeat IPC: 0.626084 cumulative IPC: 0.621186 (Simulation time: 1 hr 25 min 59 sec) 
Heartbeat CPU 0 instructions: 140000000 cycles: 171097418 heartbeat IPC: 0.624906 cumulative IPC: 0.621227 (Simulation time: 1 hr 26 min 19 sec) 
Heartbeat CPU 0 instructions: 141000003 cycles: 172657083 heartbeat IPC: 0.641165 cumulative IPC: 0.62144 (Simulation time: 1 hr 26 min 39 sec) 
Heartbeat CPU 0 instructions: 142000002 cycles: 174246849 heartbeat IPC: 0.629023 cumulative IPC: 0.621521 (Simulation time: 1 hr 26 min 58 sec) 
Heartbeat CPU 0 instructions: 143000001 cycles: 175816998 heartbeat IPC: 0.636882 cumulative IPC: 0.621682 (Simulation time: 1 hr 27 min 16 sec) 
Heartbeat CPU 0 instructions: 144000000 cycles: 177384142 heartbeat IPC: 0.638103 cumulative IPC: 0.621853 (Simulation time: 1 hr 27 min 36 sec) 
Heartbeat CPU 0 instructions: 145000003 cycles: 178958761 heartbeat IPC: 0.635076 cumulative IPC: 0.621989 (Simulation time: 1 hr 27 min 55 sec) 
Heartbeat CPU 0 instructions: 146000000 cycles: 180533068 heartbeat IPC: 0.635198 cumulative IPC: 0.622124 (Simulation time: 1 hr 28 min 14 sec) 
Heartbeat CPU 0 instructions: 147000001 cycles: 182170687 heartbeat IPC: 0.610643 cumulative IPC: 0.622003 (Simulation time: 1 hr 28 min 33 sec) 
Heartbeat CPU 0 instructions: 148000000 cycles: 183768389 heartbeat IPC: 0.625898 cumulative IPC: 0.622043 (Simulation time: 1 hr 28 min 50 sec) 
Heartbeat CPU 0 instructions: 149000002 cycles: 185378808 heartbeat IPC: 0.620958 cumulative IPC: 0.622032 (Simulation time: 1 hr 29 min 6 sec) 
Heartbeat CPU 0 instructions: 150000003 cycles: 187014875 heartbeat IPC: 0.611223 cumulative IPC: 0.621922 (Simulation time: 1 hr 29 min 21 sec) 
Finished CPU 0 instructions: 100000002 cycles: 160791958 cummulative IPC: 0.621922 (Simulation time: 1 hr 29 min 21 sec) 

ChampSim completed all CPUs

Region of Interest Statistics

CPU 0 cummulative IPC: 0.621922 instructions: 100000002 cycles: 160791958
LLC TOTAL     ACCESS:    5406452  HIT:     244966  MISS:    5161486
LLC LOAD      ACCESS:     223287  HIT:      58156  MISS:     165131
LLC RFO       ACCESS:          0  HIT:          0  MISS:          0
LLC PREFETCH  ACCESS:    3748127  HIT:      47195  MISS:    3700932
LLC WRITEBACK ACCESS:    1435038  HIT:     139615  MISS:    1295423
OPTgen accesses: 11252
OPTgen hits: 3551
OPTgen hit rate: 31.5588


