
*** ChampSim Multicore Out-of-Order Simulator ***

Warmup Instructions: 50000000
Simulation Instructions: 100000000
Configuration: 2
Number of CPUs: 1
LLC sets: 2048
LLC ways: 16
Off-chip DRAM Channels: 1 Width: 64-bit Data Rate: 1600 MT/s

CPU 0 runs /datasets/cs240c-wi22-a00-public/data/Assignment2-gz/perlbench_53B.trace.gz
CPU 0 L1D next line prefetcher
CPU 0 L2C IP-based stride prefetcher
Initialize Hawkeye state
Heartbeat CPU 0 instructions: 1000000 cycles: 615801 heartbeat IPC: 1.6239 cumulative IPC: 1.6239 (Simulation time: 0 hr 0 min 37 sec) 
Heartbeat CPU 0 instructions: 2000001 cycles: 1252973 heartbeat IPC: 1.56944 cumulative IPC: 1.5962 (Simulation time: 0 hr 1 min 14 sec) 
Heartbeat CPU 0 instructions: 3000002 cycles: 1908460 heartbeat IPC: 1.52558 cumulative IPC: 1.57195 (Simulation time: 0 hr 1 min 48 sec) 
Heartbeat CPU 0 instructions: 4000000 cycles: 2523963 heartbeat IPC: 1.62468 cumulative IPC: 1.58481 (Simulation time: 0 hr 2 min 21 sec) 
Heartbeat CPU 0 instructions: 5000001 cycles: 3151965 heartbeat IPC: 1.59235 cumulative IPC: 1.58631 (Simulation time: 0 hr 2 min 56 sec) 
Heartbeat CPU 0 instructions: 6000001 cycles: 3767465 heartbeat IPC: 1.6247 cumulative IPC: 1.59258 (Simulation time: 0 hr 3 min 32 sec) 
Heartbeat CPU 0 instructions: 7000002 cycles: 4390335 heartbeat IPC: 1.60547 cumulative IPC: 1.59441 (Simulation time: 0 hr 4 min 9 sec) 
Heartbeat CPU 0 instructions: 8000000 cycles: 5000735 heartbeat IPC: 1.63827 cumulative IPC: 1.59976 (Simulation time: 0 hr 4 min 44 sec) 
Heartbeat CPU 0 instructions: 9000000 cycles: 5652458 heartbeat IPC: 1.53439 cumulative IPC: 1.59223 (Simulation time: 0 hr 5 min 22 sec) 
Heartbeat CPU 0 instructions: 10000001 cycles: 6287747 heartbeat IPC: 1.57409 cumulative IPC: 1.59039 (Simulation time: 0 hr 5 min 57 sec) 
Heartbeat CPU 0 instructions: 11000000 cycles: 6904522 heartbeat IPC: 1.62134 cumulative IPC: 1.59316 (Simulation time: 0 hr 6 min 31 sec) 
Heartbeat CPU 0 instructions: 12000000 cycles: 7561737 heartbeat IPC: 1.52157 cumulative IPC: 1.58694 (Simulation time: 0 hr 7 min 7 sec) 
Heartbeat CPU 0 instructions: 13000000 cycles: 8151497 heartbeat IPC: 1.69561 cumulative IPC: 1.5948 (Simulation time: 0 hr 7 min 41 sec) 
Heartbeat CPU 0 instructions: 14000000 cycles: 8768410 heartbeat IPC: 1.62097 cumulative IPC: 1.59664 (Simulation time: 0 hr 8 min 16 sec) 
Heartbeat CPU 0 instructions: 15000001 cycles: 9380503 heartbeat IPC: 1.63374 cumulative IPC: 1.59906 (Simulation time: 0 hr 8 min 51 sec) 
Heartbeat CPU 0 instructions: 16000000 cycles: 9994619 heartbeat IPC: 1.62836 cumulative IPC: 1.60086 (Simulation time: 0 hr 9 min 26 sec) 
Heartbeat CPU 0 instructions: 17000002 cycles: 10626812 heartbeat IPC: 1.5818 cumulative IPC: 1.59973 (Simulation time: 0 hr 10 min 6 sec) 
Heartbeat CPU 0 instructions: 18000002 cycles: 11287236 heartbeat IPC: 1.51418 cumulative IPC: 1.59472 (Simulation time: 0 hr 10 min 44 sec) 
Heartbeat CPU 0 instructions: 19000001 cycles: 11894321 heartbeat IPC: 1.64721 cumulative IPC: 1.5974 (Simulation time: 0 hr 11 min 18 sec) 
Heartbeat CPU 0 instructions: 20000000 cycles: 12569777 heartbeat IPC: 1.48048 cumulative IPC: 1.59112 (Simulation time: 0 hr 11 min 57 sec) 
Heartbeat CPU 0 instructions: 21000000 cycles: 13182280 heartbeat IPC: 1.63265 cumulative IPC: 1.59305 (Simulation time: 0 hr 12 min 31 sec) 
Heartbeat CPU 0 instructions: 22000000 cycles: 13738005 heartbeat IPC: 1.79945 cumulative IPC: 1.6014 (Simulation time: 0 hr 13 min 4 sec) 
Heartbeat CPU 0 instructions: 23000001 cycles: 14277086 heartbeat IPC: 1.85501 cumulative IPC: 1.61097 (Simulation time: 0 hr 13 min 35 sec) 
Heartbeat CPU 0 instructions: 24000000 cycles: 14899949 heartbeat IPC: 1.60549 cumulative IPC: 1.61074 (Simulation time: 0 hr 14 min 13 sec) 
Heartbeat CPU 0 instructions: 25000000 cycles: 15452260 heartbeat IPC: 1.81057 cumulative IPC: 1.61789 (Simulation time: 0 hr 14 min 46 sec) 
Heartbeat CPU 0 instructions: 26000001 cycles: 16005861 heartbeat IPC: 1.80636 cumulative IPC: 1.62441 (Simulation time: 0 hr 15 min 20 sec) 
Heartbeat CPU 0 instructions: 27000001 cycles: 16597960 heartbeat IPC: 1.68891 cumulative IPC: 1.62671 (Simulation time: 0 hr 15 min 55 sec) 
Heartbeat CPU 0 instructions: 28000000 cycles: 17240717 heartbeat IPC: 1.5558 cumulative IPC: 1.62406 (Simulation time: 0 hr 16 min 34 sec) 
Heartbeat CPU 0 instructions: 29000000 cycles: 17852026 heartbeat IPC: 1.63583 cumulative IPC: 1.62447 (Simulation time: 0 hr 17 min 7 sec) 
Heartbeat CPU 0 instructions: 30000000 cycles: 18407010 heartbeat IPC: 1.80185 cumulative IPC: 1.62981 (Simulation time: 0 hr 17 min 38 sec) 
Heartbeat CPU 0 instructions: 31000001 cycles: 18958330 heartbeat IPC: 1.81383 cumulative IPC: 1.63517 (Simulation time: 0 hr 18 min 12 sec) 
Heartbeat CPU 0 instructions: 32000000 cycles: 19515050 heartbeat IPC: 1.79623 cumulative IPC: 1.63976 (Simulation time: 0 hr 18 min 45 sec) 
Heartbeat CPU 0 instructions: 33000003 cycles: 20104471 heartbeat IPC: 1.69659 cumulative IPC: 1.64143 (Simulation time: 0 hr 19 min 18 sec) 
Heartbeat CPU 0 instructions: 34000001 cycles: 20713057 heartbeat IPC: 1.64315 cumulative IPC: 1.64148 (Simulation time: 0 hr 19 min 53 sec) 
Heartbeat CPU 0 instructions: 35000001 cycles: 21324418 heartbeat IPC: 1.63569 cumulative IPC: 1.64131 (Simulation time: 0 hr 20 min 29 sec) 
Heartbeat CPU 0 instructions: 36000000 cycles: 21979644 heartbeat IPC: 1.52619 cumulative IPC: 1.63788 (Simulation time: 0 hr 21 min 6 sec) 
Heartbeat CPU 0 instructions: 37000002 cycles: 22613371 heartbeat IPC: 1.57797 cumulative IPC: 1.6362 (Simulation time: 0 hr 21 min 41 sec) 
Heartbeat CPU 0 instructions: 38000000 cycles: 23233420 heartbeat IPC: 1.61277 cumulative IPC: 1.63557 (Simulation time: 0 hr 22 min 15 sec) 
Heartbeat CPU 0 instructions: 39000001 cycles: 23863527 heartbeat IPC: 1.58703 cumulative IPC: 1.63429 (Simulation time: 0 hr 22 min 50 sec) 
Heartbeat CPU 0 instructions: 40000000 cycles: 24486688 heartbeat IPC: 1.60472 cumulative IPC: 1.63354 (Simulation time: 0 hr 23 min 27 sec) 
Heartbeat CPU 0 instructions: 41000002 cycles: 25110641 heartbeat IPC: 1.60269 cumulative IPC: 1.63277 (Simulation time: 0 hr 24 min 3 sec) 
Heartbeat CPU 0 instructions: 42000000 cycles: 25724430 heartbeat IPC: 1.62922 cumulative IPC: 1.63269 (Simulation time: 0 hr 24 min 37 sec) 
Heartbeat CPU 0 instructions: 43000002 cycles: 26364269 heartbeat IPC: 1.5629 cumulative IPC: 1.631 (Simulation time: 0 hr 25 min 13 sec) 
Heartbeat CPU 0 instructions: 44000000 cycles: 27024754 heartbeat IPC: 1.51404 cumulative IPC: 1.62814 (Simulation time: 0 hr 25 min 51 sec) 
Heartbeat CPU 0 instructions: 45000001 cycles: 27483290 heartbeat IPC: 2.18086 cumulative IPC: 1.63736 (Simulation time: 0 hr 26 min 18 sec) 
Heartbeat CPU 0 instructions: 46000000 cycles: 28033956 heartbeat IPC: 1.81598 cumulative IPC: 1.64087 (Simulation time: 0 hr 26 min 50 sec) 
Heartbeat CPU 0 instructions: 47000002 cycles: 28571809 heartbeat IPC: 1.85925 cumulative IPC: 1.64498 (Simulation time: 0 hr 27 min 21 sec) 
Heartbeat CPU 0 instructions: 48000000 cycles: 29109640 heartbeat IPC: 1.85932 cumulative IPC: 1.64894 (Simulation time: 0 hr 27 min 54 sec) 
Heartbeat CPU 0 instructions: 49000000 cycles: 29710447 heartbeat IPC: 1.66443 cumulative IPC: 1.64925 (Simulation time: 0 hr 28 min 29 sec) 
Heartbeat CPU 0 instructions: 50000002 cycles: 30241748 heartbeat IPC: 1.88218 cumulative IPC: 1.65334 (Simulation time: 0 hr 29 min 0 sec) 

Warmup complete CPU 0 instructions: 50000002 cycles: 30241748 (Simulation time: 0 hr 29 min 0 sec) 

Heartbeat CPU 0 instructions: 51000000 cycles: 32172173 heartbeat IPC: 0.51802 cumulative IPC: 0.51802 (Simulation time: 0 hr 29 min 37 sec) 
Heartbeat CPU 0 instructions: 52000000 cycles: 34087178 heartbeat IPC: 0.522192 cumulative IPC: 0.520097 (Simulation time: 0 hr 30 min 14 sec) 
Heartbeat CPU 0 instructions: 53000002 cycles: 36038380 heartbeat IPC: 0.512506 cumulative IPC: 0.517542 (Simulation time: 0 hr 30 min 51 sec) 
Heartbeat CPU 0 instructions: 54000000 cycles: 38974597 heartbeat IPC: 0.340574 cumulative IPC: 0.45804 (Simulation time: 0 hr 31 min 31 sec) 
Heartbeat CPU 0 instructions: 55000000 cycles: 41477488 heartbeat IPC: 0.399538 cumulative IPC: 0.445008 (Simulation time: 0 hr 32 min 13 sec) 
Heartbeat CPU 0 instructions: 56000000 cycles: 44300274 heartbeat IPC: 0.35426 cumulative IPC: 0.426787 (Simulation time: 0 hr 32 min 55 sec) 
Heartbeat CPU 0 instructions: 57000001 cycles: 47352937 heartbeat IPC: 0.327583 cumulative IPC: 0.409089 (Simulation time: 0 hr 33 min 36 sec) 
Heartbeat CPU 0 instructions: 58000003 cycles: 50326941 heartbeat IPC: 0.336248 cumulative IPC: 0.398303 (Simulation time: 0 hr 34 min 26 sec) 
Heartbeat CPU 0 instructions: 59000002 cycles: 53151157 heartbeat IPC: 0.35408 cumulative IPC: 0.392852 (Simulation time: 0 hr 35 min 6 sec) 
Heartbeat CPU 0 instructions: 60000000 cycles: 55915459 heartbeat IPC: 0.361754 cumulative IPC: 0.389503 (Simulation time: 0 hr 35 min 46 sec) 
Heartbeat CPU 0 instructions: 61000002 cycles: 58545381 heartbeat IPC: 0.38024 cumulative IPC: 0.388643 (Simulation time: 0 hr 36 min 29 sec) 
Heartbeat CPU 0 instructions: 62000002 cycles: 61223823 heartbeat IPC: 0.373351 cumulative IPC: 0.387321 (Simulation time: 0 hr 37 min 8 sec) 
Heartbeat CPU 0 instructions: 63000001 cycles: 63890015 heartbeat IPC: 0.375066 cumulative IPC: 0.38635 (Simulation time: 0 hr 37 min 47 sec) 
Heartbeat CPU 0 instructions: 64000000 cycles: 66545643 heartbeat IPC: 0.376558 cumulative IPC: 0.385633 (Simulation time: 0 hr 38 min 28 sec) 
Heartbeat CPU 0 instructions: 65000003 cycles: 69183543 heartbeat IPC: 0.379091 cumulative IPC: 0.38519 (Simulation time: 0 hr 39 min 8 sec) 
Heartbeat CPU 0 instructions: 66000001 cycles: 71812004 heartbeat IPC: 0.38045 cumulative IPC: 0.384891 (Simulation time: 0 hr 39 min 49 sec) 
Heartbeat CPU 0 instructions: 67000001 cycles: 74425263 heartbeat IPC: 0.382664 cumulative IPC: 0.384759 (Simulation time: 0 hr 40 min 32 sec) 
Heartbeat CPU 0 instructions: 68000000 cycles: 77091741 heartbeat IPC: 0.375026 cumulative IPC: 0.384205 (Simulation time: 0 hr 41 min 12 sec) 
Heartbeat CPU 0 instructions: 69000001 cycles: 79729049 heartbeat IPC: 0.379175 cumulative IPC: 0.383937 (Simulation time: 0 hr 41 min 52 sec) 
Heartbeat CPU 0 instructions: 70000001 cycles: 82339705 heartbeat IPC: 0.383045 cumulative IPC: 0.383892 (Simulation time: 0 hr 42 min 33 sec) 
Heartbeat CPU 0 instructions: 71000001 cycles: 85055786 heartbeat IPC: 0.368178 cumulative IPC: 0.383114 (Simulation time: 0 hr 43 min 16 sec) 
Heartbeat CPU 0 instructions: 72000000 cycles: 87678792 heartbeat IPC: 0.381242 cumulative IPC: 0.383028 (Simulation time: 0 hr 44 min 0 sec) 
Heartbeat CPU 0 instructions: 73000002 cycles: 90316691 heartbeat IPC: 0.37909 cumulative IPC: 0.382855 (Simulation time: 0 hr 44 min 39 sec) 
Heartbeat CPU 0 instructions: 74000001 cycles: 92994684 heartbeat IPC: 0.373414 cumulative IPC: 0.382452 (Simulation time: 0 hr 45 min 18 sec) 
Heartbeat CPU 0 instructions: 75000001 cycles: 95652475 heartbeat IPC: 0.376252 cumulative IPC: 0.3822 (Simulation time: 0 hr 45 min 58 sec) 
Heartbeat CPU 0 instructions: 76000000 cycles: 98293111 heartbeat IPC: 0.378696 cumulative IPC: 0.382064 (Simulation time: 0 hr 46 min 39 sec) 
Heartbeat CPU 0 instructions: 77000002 cycles: 100965532 heartbeat IPC: 0.374193 cumulative IPC: 0.381767 (Simulation time: 0 hr 47 min 20 sec) 
Heartbeat CPU 0 instructions: 78000000 cycles: 103619009 heartbeat IPC: 0.376863 cumulative IPC: 0.38159 (Simulation time: 0 hr 47 min 59 sec) 
Heartbeat CPU 0 instructions: 79000002 cycles: 106280119 heartbeat IPC: 0.375784 cumulative IPC: 0.381386 (Simulation time: 0 hr 48 min 38 sec) 
Heartbeat CPU 0 instructions: 80000000 cycles: 108914847 heartbeat IPC: 0.379545 cumulative IPC: 0.381325 (Simulation time: 0 hr 49 min 18 sec) 
Heartbeat CPU 0 instructions: 81000000 cycles: 111529193 heartbeat IPC: 0.382505 cumulative IPC: 0.381363 (Simulation time: 0 hr 50 min 0 sec) 
Heartbeat CPU 0 instructions: 82000002 cycles: 114205817 heartbeat IPC: 0.373606 cumulative IPC: 0.381115 (Simulation time: 0 hr 50 min 39 sec) 
Heartbeat CPU 0 instructions: 83000000 cycles: 116851276 heartbeat IPC: 0.378005 cumulative IPC: 0.38102 (Simulation time: 0 hr 51 min 20 sec) 
Heartbeat CPU 0 instructions: 84000000 cycles: 119506935 heartbeat IPC: 0.376554 cumulative IPC: 0.380888 (Simulation time: 0 hr 51 min 59 sec) 
Heartbeat CPU 0 instructions: 85000001 cycles: 122183345 heartbeat IPC: 0.373635 cumulative IPC: 0.380676 (Simulation time: 0 hr 52 min 39 sec) 
Heartbeat CPU 0 instructions: 86000000 cycles: 124678504 heartbeat IPC: 0.400776 cumulative IPC: 0.381207 (Simulation time: 0 hr 53 min 24 sec) 
Heartbeat CPU 0 instructions: 87000000 cycles: 126832268 heartbeat IPC: 0.464303 cumulative IPC: 0.38306 (Simulation time: 0 hr 54 min 0 sec) 
Heartbeat CPU 0 instructions: 88000000 cycles: 128829449 heartbeat IPC: 0.500706 cumulative IPC: 0.385444 (Simulation time: 0 hr 54 min 37 sec) 
Heartbeat CPU 0 instructions: 89000001 cycles: 130917022 heartbeat IPC: 0.479026 cumulative IPC: 0.387384 (Simulation time: 0 hr 55 min 15 sec) 
Heartbeat CPU 0 instructions: 90000000 cycles: 133631744 heartbeat IPC: 0.368361 cumulative IPC: 0.386885 (Simulation time: 0 hr 56 min 3 sec) 
Heartbeat CPU 0 instructions: 91000001 cycles: 136398099 heartbeat IPC: 0.361487 cumulative IPC: 0.386223 (Simulation time: 0 hr 56 min 55 sec) 
Heartbeat CPU 0 instructions: 92000000 cycles: 139080159 heartbeat IPC: 0.372847 cumulative IPC: 0.385893 (Simulation time: 0 hr 57 min 37 sec) 
Heartbeat CPU 0 instructions: 93000000 cycles: 141729819 heartbeat IPC: 0.377407 cumulative IPC: 0.385691 (Simulation time: 0 hr 58 min 30 sec) 
Heartbeat CPU 0 instructions: 94000002 cycles: 144377598 heartbeat IPC: 0.377676 cumulative IPC: 0.385506 (Simulation time: 0 hr 59 min 15 sec) 
Heartbeat CPU 0 instructions: 95000000 cycles: 146997176 heartbeat IPC: 0.38174 cumulative IPC: 0.385421 (Simulation time: 0 hr 59 min 59 sec) 
Heartbeat CPU 0 instructions: 96000000 cycles: 149661645 heartbeat IPC: 0.375309 cumulative IPC: 0.385195 (Simulation time: 1 hr 0 min 43 sec) 
Heartbeat CPU 0 instructions: 97000000 cycles: 152301920 heartbeat IPC: 0.378748 cumulative IPC: 0.385056 (Simulation time: 1 hr 1 min 24 sec) 
Heartbeat CPU 0 instructions: 98000000 cycles: 154924288 heartbeat IPC: 0.381335 cumulative IPC: 0.384978 (Simulation time: 1 hr 2 min 10 sec) 
Heartbeat CPU 0 instructions: 99000002 cycles: 157533313 heartbeat IPC: 0.383286 cumulative IPC: 0.384943 (Simulation time: 1 hr 2 min 56 sec) 
Heartbeat CPU 0 instructions: 100000000 cycles: 160160058 heartbeat IPC: 0.380699 cumulative IPC: 0.384857 (Simulation time: 1 hr 3 min 38 sec) 
Heartbeat CPU 0 instructions: 101000002 cycles: 162814252 heartbeat IPC: 0.376763 cumulative IPC: 0.384695 (Simulation time: 1 hr 4 min 20 sec) 
Heartbeat CPU 0 instructions: 102000000 cycles: 165446309 heartbeat IPC: 0.37993 cumulative IPC: 0.384602 (Simulation time: 1 hr 5 min 1 sec) 
Heartbeat CPU 0 instructions: 103000000 cycles: 168072151 heartbeat IPC: 0.38083 cumulative IPC: 0.384531 (Simulation time: 1 hr 5 min 43 sec) 
Heartbeat CPU 0 instructions: 104000000 cycles: 170734527 heartbeat IPC: 0.375604 cumulative IPC: 0.384361 (Simulation time: 1 hr 6 min 34 sec) 
Heartbeat CPU 0 instructions: 105000003 cycles: 172916189 heartbeat IPC: 0.458368 cumulative IPC: 0.385493 (Simulation time: 1 hr 7 min 13 sec) 
Heartbeat CPU 0 instructions: 106000000 cycles: 174892926 heartbeat IPC: 0.505883 cumulative IPC: 0.387138 (Simulation time: 1 hr 7 min 53 sec) 
Heartbeat CPU 0 instructions: 107000003 cycles: 176867435 heartbeat IPC: 0.506457 cumulative IPC: 0.388745 (Simulation time: 1 hr 8 min 29 sec) 
Heartbeat CPU 0 instructions: 108000000 cycles: 179682253 heartbeat IPC: 0.355262 cumulative IPC: 0.388114 (Simulation time: 1 hr 9 min 6 sec) 
Heartbeat CPU 0 instructions: 109000001 cycles: 182384624 heartbeat IPC: 0.370046 cumulative IPC: 0.387793 (Simulation time: 1 hr 9 min 49 sec) 
Heartbeat CPU 0 instructions: 110000000 cycles: 184923627 heartbeat IPC: 0.393855 cumulative IPC: 0.387893 (Simulation time: 1 hr 10 min 27 sec) 
Heartbeat CPU 0 instructions: 111000000 cycles: 187740018 heartbeat IPC: 0.355064 cumulative IPC: 0.387306 (Simulation time: 1 hr 11 min 2 sec) 
Heartbeat CPU 0 instructions: 112000000 cycles: 190754994 heartbeat IPC: 0.331678 cumulative IPC: 0.386261 (Simulation time: 1 hr 11 min 36 sec) 
Heartbeat CPU 0 instructions: 113000000 cycles: 193705451 heartbeat IPC: 0.338931 cumulative IPC: 0.385407 (Simulation time: 1 hr 12 min 14 sec) 
Heartbeat CPU 0 instructions: 114000000 cycles: 196351226 heartbeat IPC: 0.377961 cumulative IPC: 0.385288 (Simulation time: 1 hr 12 min 54 sec) 
Heartbeat CPU 0 instructions: 115000000 cycles: 199081814 heartbeat IPC: 0.366221 cumulative IPC: 0.38498 (Simulation time: 1 hr 13 min 35 sec) 
Heartbeat CPU 0 instructions: 116000000 cycles: 201788097 heartbeat IPC: 0.369511 cumulative IPC: 0.384736 (Simulation time: 1 hr 14 min 15 sec) 
Heartbeat CPU 0 instructions: 117000000 cycles: 204645990 heartbeat IPC: 0.349908 cumulative IPC: 0.384165 (Simulation time: 1 hr 14 min 56 sec) 
Heartbeat CPU 0 instructions: 118000003 cycles: 207202090 heartbeat IPC: 0.391222 cumulative IPC: 0.384267 (Simulation time: 1 hr 15 min 40 sec) 
Heartbeat CPU 0 instructions: 119000002 cycles: 208708344 heartbeat IPC: 0.663898 cumulative IPC: 0.386627 (Simulation time: 1 hr 16 min 9 sec) 
Heartbeat CPU 0 instructions: 120000000 cycles: 210745965 heartbeat IPC: 0.490767 cumulative IPC: 0.387803 (Simulation time: 1 hr 16 min 33 sec) 
Heartbeat CPU 0 instructions: 121000003 cycles: 212675107 heartbeat IPC: 0.518367 cumulative IPC: 0.389183 (Simulation time: 1 hr 16 min 55 sec) 
Heartbeat CPU 0 instructions: 122000000 cycles: 214602874 heartbeat IPC: 0.518733 cumulative IPC: 0.390538 (Simulation time: 1 hr 17 min 18 sec) 
Heartbeat CPU 0 instructions: 123000000 cycles: 216600983 heartbeat IPC: 0.500473 cumulative IPC: 0.391717 (Simulation time: 1 hr 17 min 42 sec) 
Heartbeat CPU 0 instructions: 124000000 cycles: 218992691 heartbeat IPC: 0.418111 cumulative IPC: 0.392051 (Simulation time: 1 hr 18 min 20 sec) 
Heartbeat CPU 0 instructions: 125000002 cycles: 220768763 heartbeat IPC: 0.563041 cumulative IPC: 0.393645 (Simulation time: 1 hr 18 min 44 sec) 
Heartbeat CPU 0 instructions: 126000001 cycles: 222696460 heartbeat IPC: 0.518753 cumulative IPC: 0.394898 (Simulation time: 1 hr 19 min 7 sec) 
Heartbeat CPU 0 instructions: 127000001 cycles: 224622843 heartbeat IPC: 0.519108 cumulative IPC: 0.396129 (Simulation time: 1 hr 19 min 33 sec) 
Heartbeat CPU 0 instructions: 128000000 cycles: 226798398 heartbeat IPC: 0.459652 cumulative IPC: 0.396832 (Simulation time: 1 hr 19 min 59 sec) 
Heartbeat CPU 0 instructions: 129000001 cycles: 229561576 heartbeat IPC: 0.361903 cumulative IPC: 0.396348 (Simulation time: 1 hr 20 min 28 sec) 
Heartbeat CPU 0 instructions: 130000002 cycles: 232080093 heartbeat IPC: 0.397059 cumulative IPC: 0.396357 (Simulation time: 1 hr 20 min 56 sec) 
Heartbeat CPU 0 instructions: 131000000 cycles: 234909755 heartbeat IPC: 0.353398 cumulative IPC: 0.395763 (Simulation time: 1 hr 21 min 23 sec) 
Heartbeat CPU 0 instructions: 132000000 cycles: 237658304 heartbeat IPC: 0.363828 cumulative IPC: 0.39534 (Simulation time: 1 hr 21 min 49 sec) 
Heartbeat CPU 0 instructions: 133000000 cycles: 240594306 heartbeat IPC: 0.340599 cumulative IPC: 0.394576 (Simulation time: 1 hr 22 min 16 sec) 
Heartbeat CPU 0 instructions: 134000000 cycles: 243300582 heartbeat IPC: 0.369511 cumulative IPC: 0.394257 (Simulation time: 1 hr 22 min 47 sec) 
Heartbeat CPU 0 instructions: 135000000 cycles: 246100531 heartbeat IPC: 0.357149 cumulative IPC: 0.393776 (Simulation time: 1 hr 23 min 15 sec) 
Heartbeat CPU 0 instructions: 136000000 cycles: 249025002 heartbeat IPC: 0.341942 cumulative IPC: 0.393083 (Simulation time: 1 hr 23 min 46 sec) 
Heartbeat CPU 0 instructions: 137000003 cycles: 251824441 heartbeat IPC: 0.357215 cumulative IPC: 0.39263 (Simulation time: 1 hr 24 min 18 sec) 
Heartbeat CPU 0 instructions: 138000000 cycles: 253965085 heartbeat IPC: 0.467148 cumulative IPC: 0.393343 (Simulation time: 1 hr 24 min 44 sec) 
Heartbeat CPU 0 instructions: 139000000 cycles: 256728044 heartbeat IPC: 0.361931 cumulative IPC: 0.39296 (Simulation time: 1 hr 25 min 8 sec) 
Heartbeat CPU 0 instructions: 140000000 cycles: 259571807 heartbeat IPC: 0.351647 cumulative IPC: 0.392447 (Simulation time: 1 hr 25 min 31 sec) 
Heartbeat CPU 0 instructions: 141000001 cycles: 262262712 heartbeat IPC: 0.371623 cumulative IPC: 0.392206 (Simulation time: 1 hr 25 min 51 sec) 
Heartbeat CPU 0 instructions: 142000002 cycles: 264874448 heartbeat IPC: 0.382887 cumulative IPC: 0.392102 (Simulation time: 1 hr 26 min 11 sec) 
Heartbeat CPU 0 instructions: 143000001 cycles: 267521084 heartbeat IPC: 0.377838 cumulative IPC: 0.391943 (Simulation time: 1 hr 26 min 32 sec) 
Heartbeat CPU 0 instructions: 144000000 cycles: 270105280 heartbeat IPC: 0.386967 cumulative IPC: 0.391889 (Simulation time: 1 hr 26 min 51 sec) 
Heartbeat CPU 0 instructions: 145000000 cycles: 272715003 heartbeat IPC: 0.383182 cumulative IPC: 0.391796 (Simulation time: 1 hr 27 min 11 sec) 
Heartbeat CPU 0 instructions: 146000000 cycles: 275331014 heartbeat IPC: 0.382261 cumulative IPC: 0.391694 (Simulation time: 1 hr 27 min 31 sec) 
Heartbeat CPU 0 instructions: 147000002 cycles: 277732174 heartbeat IPC: 0.416466 cumulative IPC: 0.391934 (Simulation time: 1 hr 27 min 51 sec) 
Heartbeat CPU 0 instructions: 148000000 cycles: 279801119 heartbeat IPC: 0.483337 cumulative IPC: 0.392692 (Simulation time: 1 hr 28 min 10 sec) 
Heartbeat CPU 0 instructions: 149000001 cycles: 282241480 heartbeat IPC: 0.409776 cumulative IPC: 0.392858 (Simulation time: 1 hr 28 min 31 sec) 
Heartbeat CPU 0 instructions: 150000002 cycles: 284980202 heartbeat IPC: 0.365134 cumulative IPC: 0.392559 (Simulation time: 1 hr 28 min 48 sec) 
Finished CPU 0 instructions: 100000000 cycles: 254738454 cummulative IPC: 0.392559 (Simulation time: 1 hr 28 min 48 sec) 

ChampSim completed all CPUs

Region of Interest Statistics

CPU 0 cummulative IPC: 0.392559 instructions: 100000000 cycles: 254738454
LLC TOTAL     ACCESS:     651891  HIT:     607866  MISS:      44025
LLC LOAD      ACCESS:     308406  HIT:     290099  MISS:      18307
LLC RFO       ACCESS:      29186  HIT:      23957  MISS:       5229
LLC PREFETCH  ACCESS:     213177  HIT:     193358  MISS:      19819
LLC WRITEBACK ACCESS:     101122  HIT:     100452  MISS:        670
OPTgen accesses: 7688
OPTgen hits: 9250
OPTgen hit rate: 120.317


