
*** ChampSim Multicore Out-of-Order Simulator ***

Warmup Instructions: 50000000
Simulation Instructions: 100000000
Configuration: 2
Number of CPUs: 1
LLC sets: 2048
LLC ways: 16
Off-chip DRAM Channels: 1 Width: 64-bit Data Rate: 1600 MT/s

CPU 0 runs /datasets/cs240c-wi22-a00-public/data/Assignment2-gz/omnetpp_17B.trace.gz
CPU 0 L1D next line prefetcher
CPU 0 L2C IP-based stride prefetcher
Initialize Hawkeye state
Heartbeat CPU 0 instructions: 1000000 cycles: 559560 heartbeat IPC: 1.78712 cumulative IPC: 1.78712 (Simulation time: 0 hr 0 min 28 sec) 
Heartbeat CPU 0 instructions: 2000002 cycles: 1133716 heartbeat IPC: 1.74169 cumulative IPC: 1.76411 (Simulation time: 0 hr 0 min 57 sec) 
Heartbeat CPU 0 instructions: 3000001 cycles: 1769024 heartbeat IPC: 1.57404 cumulative IPC: 1.69585 (Simulation time: 0 hr 1 min 21 sec) 
Heartbeat CPU 0 instructions: 4000000 cycles: 2333917 heartbeat IPC: 1.77024 cumulative IPC: 1.71386 (Simulation time: 0 hr 1 min 47 sec) 
Heartbeat CPU 0 instructions: 5000002 cycles: 2892922 heartbeat IPC: 1.7889 cumulative IPC: 1.72836 (Simulation time: 0 hr 2 min 12 sec) 
Heartbeat CPU 0 instructions: 6000000 cycles: 3471607 heartbeat IPC: 1.72805 cumulative IPC: 1.72831 (Simulation time: 0 hr 2 min 37 sec) 
Heartbeat CPU 0 instructions: 7000000 cycles: 4036093 heartbeat IPC: 1.77152 cumulative IPC: 1.73435 (Simulation time: 0 hr 3 min 4 sec) 
Heartbeat CPU 0 instructions: 8000000 cycles: 4697827 heartbeat IPC: 1.51118 cumulative IPC: 1.70291 (Simulation time: 0 hr 3 min 27 sec) 
Heartbeat CPU 0 instructions: 9000000 cycles: 5359632 heartbeat IPC: 1.51102 cumulative IPC: 1.67922 (Simulation time: 0 hr 3 min 50 sec) 
Heartbeat CPU 0 instructions: 10000001 cycles: 6021201 heartbeat IPC: 1.51156 cumulative IPC: 1.6608 (Simulation time: 0 hr 4 min 11 sec) 
Heartbeat CPU 0 instructions: 11000001 cycles: 6682591 heartbeat IPC: 1.51197 cumulative IPC: 1.64607 (Simulation time: 0 hr 4 min 35 sec) 
Heartbeat CPU 0 instructions: 12000000 cycles: 7343367 heartbeat IPC: 1.51337 cumulative IPC: 1.63413 (Simulation time: 0 hr 4 min 56 sec) 
Heartbeat CPU 0 instructions: 13000001 cycles: 8002067 heartbeat IPC: 1.51814 cumulative IPC: 1.62458 (Simulation time: 0 hr 5 min 19 sec) 
Heartbeat CPU 0 instructions: 14000000 cycles: 8663356 heartbeat IPC: 1.5122 cumulative IPC: 1.616 (Simulation time: 0 hr 5 min 41 sec) 
Heartbeat CPU 0 instructions: 15000000 cycles: 9325071 heartbeat IPC: 1.51122 cumulative IPC: 1.60857 (Simulation time: 0 hr 6 min 5 sec) 
Heartbeat CPU 0 instructions: 16000000 cycles: 9986982 heartbeat IPC: 1.51078 cumulative IPC: 1.60209 (Simulation time: 0 hr 6 min 29 sec) 
Heartbeat CPU 0 instructions: 17000000 cycles: 10652708 heartbeat IPC: 1.50212 cumulative IPC: 1.59584 (Simulation time: 0 hr 6 min 51 sec) 
Heartbeat CPU 0 instructions: 18000001 cycles: 11319265 heartbeat IPC: 1.50025 cumulative IPC: 1.59021 (Simulation time: 0 hr 7 min 16 sec) 
Heartbeat CPU 0 instructions: 19000002 cycles: 11988072 heartbeat IPC: 1.4952 cumulative IPC: 1.58491 (Simulation time: 0 hr 7 min 40 sec) 
Heartbeat CPU 0 instructions: 20000000 cycles: 12559853 heartbeat IPC: 1.74892 cumulative IPC: 1.59238 (Simulation time: 0 hr 8 min 8 sec) 
Heartbeat CPU 0 instructions: 21000000 cycles: 13148912 heartbeat IPC: 1.69762 cumulative IPC: 1.59709 (Simulation time: 0 hr 8 min 34 sec) 
Heartbeat CPU 0 instructions: 22000001 cycles: 13760828 heartbeat IPC: 1.63421 cumulative IPC: 1.59874 (Simulation time: 0 hr 8 min 59 sec) 
Heartbeat CPU 0 instructions: 23000000 cycles: 14318714 heartbeat IPC: 1.79248 cumulative IPC: 1.60629 (Simulation time: 0 hr 9 min 26 sec) 
Heartbeat CPU 0 instructions: 24000000 cycles: 14878366 heartbeat IPC: 1.78682 cumulative IPC: 1.61308 (Simulation time: 0 hr 9 min 53 sec) 
Heartbeat CPU 0 instructions: 25000001 cycles: 15461907 heartbeat IPC: 1.71368 cumulative IPC: 1.61688 (Simulation time: 0 hr 10 min 19 sec) 
Heartbeat CPU 0 instructions: 26000001 cycles: 16078776 heartbeat IPC: 1.62109 cumulative IPC: 1.61704 (Simulation time: 0 hr 10 min 43 sec) 
Heartbeat CPU 0 instructions: 27000000 cycles: 16638408 heartbeat IPC: 1.78689 cumulative IPC: 1.62275 (Simulation time: 0 hr 11 min 9 sec) 
Heartbeat CPU 0 instructions: 28000000 cycles: 17196708 heartbeat IPC: 1.79115 cumulative IPC: 1.62822 (Simulation time: 0 hr 11 min 35 sec) 
Heartbeat CPU 0 instructions: 29000000 cycles: 17775402 heartbeat IPC: 1.72803 cumulative IPC: 1.63147 (Simulation time: 0 hr 12 min 1 sec) 
Heartbeat CPU 0 instructions: 30000000 cycles: 18397953 heartbeat IPC: 1.60629 cumulative IPC: 1.63062 (Simulation time: 0 hr 12 min 24 sec) 
Heartbeat CPU 0 instructions: 31000000 cycles: 18959386 heartbeat IPC: 1.78116 cumulative IPC: 1.63507 (Simulation time: 0 hr 12 min 52 sec) 
Heartbeat CPU 0 instructions: 32000000 cycles: 19516681 heartbeat IPC: 1.79438 cumulative IPC: 1.63962 (Simulation time: 0 hr 13 min 18 sec) 
Heartbeat CPU 0 instructions: 33000001 cycles: 20088527 heartbeat IPC: 1.74872 cumulative IPC: 1.64273 (Simulation time: 0 hr 13 min 47 sec) 
Heartbeat CPU 0 instructions: 34000001 cycles: 20724229 heartbeat IPC: 1.57306 cumulative IPC: 1.64059 (Simulation time: 0 hr 14 min 11 sec) 
Heartbeat CPU 0 instructions: 35000002 cycles: 21289457 heartbeat IPC: 1.7692 cumulative IPC: 1.64401 (Simulation time: 0 hr 14 min 39 sec) 
Heartbeat CPU 0 instructions: 36000000 cycles: 21849183 heartbeat IPC: 1.78658 cumulative IPC: 1.64766 (Simulation time: 0 hr 15 min 5 sec) 
Heartbeat CPU 0 instructions: 37000001 cycles: 22427354 heartbeat IPC: 1.72959 cumulative IPC: 1.64977 (Simulation time: 0 hr 15 min 29 sec) 
Heartbeat CPU 0 instructions: 38000002 cycles: 23056394 heartbeat IPC: 1.58973 cumulative IPC: 1.64813 (Simulation time: 0 hr 15 min 56 sec) 
Heartbeat CPU 0 instructions: 39000000 cycles: 23619099 heartbeat IPC: 1.77713 cumulative IPC: 1.65121 (Simulation time: 0 hr 16 min 21 sec) 
Heartbeat CPU 0 instructions: 40000000 cycles: 24179200 heartbeat IPC: 1.78539 cumulative IPC: 1.65431 (Simulation time: 0 hr 16 min 46 sec) 
Heartbeat CPU 0 instructions: 41000002 cycles: 24762284 heartbeat IPC: 1.71502 cumulative IPC: 1.65574 (Simulation time: 0 hr 17 min 10 sec) 
Heartbeat CPU 0 instructions: 42000000 cycles: 25389264 heartbeat IPC: 1.59494 cumulative IPC: 1.65424 (Simulation time: 0 hr 17 min 34 sec) 
Heartbeat CPU 0 instructions: 43000001 cycles: 25876630 heartbeat IPC: 2.05185 cumulative IPC: 1.66173 (Simulation time: 0 hr 18 min 1 sec) 
Heartbeat CPU 0 instructions: 44000000 cycles: 26537327 heartbeat IPC: 1.51355 cumulative IPC: 1.65804 (Simulation time: 0 hr 18 min 26 sec) 
Heartbeat CPU 0 instructions: 45000003 cycles: 27198970 heartbeat IPC: 1.51139 cumulative IPC: 1.65447 (Simulation time: 0 hr 18 min 50 sec) 
Heartbeat CPU 0 instructions: 46000000 cycles: 27861345 heartbeat IPC: 1.50971 cumulative IPC: 1.65103 (Simulation time: 0 hr 19 min 14 sec) 
Heartbeat CPU 0 instructions: 47000001 cycles: 28524359 heartbeat IPC: 1.50827 cumulative IPC: 1.64771 (Simulation time: 0 hr 19 min 39 sec) 
Heartbeat CPU 0 instructions: 48000000 cycles: 29187110 heartbeat IPC: 1.50886 cumulative IPC: 1.64456 (Simulation time: 0 hr 20 min 4 sec) 
Heartbeat CPU 0 instructions: 49000000 cycles: 29848608 heartbeat IPC: 1.51172 cumulative IPC: 1.64162 (Simulation time: 0 hr 20 min 29 sec) 
Heartbeat CPU 0 instructions: 50000000 cycles: 30510799 heartbeat IPC: 1.51014 cumulative IPC: 1.63876 (Simulation time: 0 hr 20 min 52 sec) 

Warmup complete CPU 0 instructions: 50000002 cycles: 30510800 (Simulation time: 0 hr 20 min 52 sec) 

Heartbeat CPU 0 instructions: 51000002 cycles: 31554152 heartbeat IPC: 0.95845 cumulative IPC: 0.958449 (Simulation time: 0 hr 21 min 17 sec) 
Heartbeat CPU 0 instructions: 52000000 cycles: 32598391 heartbeat IPC: 0.957633 cumulative IPC: 0.958041 (Simulation time: 0 hr 21 min 42 sec) 
Heartbeat CPU 0 instructions: 53000001 cycles: 33640883 heartbeat IPC: 0.959241 cumulative IPC: 0.958441 (Simulation time: 0 hr 22 min 7 sec) 
Heartbeat CPU 0 instructions: 54000002 cycles: 34709152 heartbeat IPC: 0.936095 cumulative IPC: 0.952755 (Simulation time: 0 hr 22 min 32 sec) 
Heartbeat CPU 0 instructions: 55000003 cycles: 35749372 heartbeat IPC: 0.961336 cumulative IPC: 0.954459 (Simulation time: 0 hr 22 min 58 sec) 
Heartbeat CPU 0 instructions: 56000000 cycles: 38047368 heartbeat IPC: 0.43516 cumulative IPC: 0.796118 (Simulation time: 0 hr 23 min 27 sec) 
Heartbeat CPU 0 instructions: 57000003 cycles: 40113997 heartbeat IPC: 0.483881 cumulative IPC: 0.728924 (Simulation time: 0 hr 23 min 54 sec) 
Heartbeat CPU 0 instructions: 58000000 cycles: 43469784 heartbeat IPC: 0.297992 cumulative IPC: 0.617332 (Simulation time: 0 hr 24 min 25 sec) 
Heartbeat CPU 0 instructions: 59000003 cycles: 46825531 heartbeat IPC: 0.297997 cumulative IPC: 0.551649 (Simulation time: 0 hr 24 min 57 sec) 
Heartbeat CPU 0 instructions: 60000000 cycles: 49308217 heartbeat IPC: 0.402788 cumulative IPC: 0.531988 (Simulation time: 0 hr 25 min 26 sec) 
Heartbeat CPU 0 instructions: 61000001 cycles: 51204851 heartbeat IPC: 0.52725 cumulative IPC: 0.531554 (Simulation time: 0 hr 25 min 53 sec) 
Heartbeat CPU 0 instructions: 62000001 cycles: 54564412 heartbeat IPC: 0.297658 cumulative IPC: 0.498886 (Simulation time: 0 hr 26 min 23 sec) 
Heartbeat CPU 0 instructions: 63000000 cycles: 57921387 heartbeat IPC: 0.297887 cumulative IPC: 0.474269 (Simulation time: 0 hr 26 min 54 sec) 
Heartbeat CPU 0 instructions: 64000000 cycles: 60571131 heartbeat IPC: 0.377395 cumulative IPC: 0.46573 (Simulation time: 0 hr 27 min 23 sec) 
Heartbeat CPU 0 instructions: 65000000 cycles: 62290049 heartbeat IPC: 0.581761 cumulative IPC: 0.472006 (Simulation time: 0 hr 27 min 50 sec) 
Heartbeat CPU 0 instructions: 66000000 cycles: 65656518 heartbeat IPC: 0.297047 cumulative IPC: 0.455247 (Simulation time: 0 hr 28 min 23 sec) 
Heartbeat CPU 0 instructions: 67000001 cycles: 69063897 heartbeat IPC: 0.293481 cumulative IPC: 0.44095 (Simulation time: 0 hr 28 min 57 sec) 
Heartbeat CPU 0 instructions: 68000000 cycles: 71928712 heartbeat IPC: 0.349062 cumulative IPC: 0.434595 (Simulation time: 0 hr 29 min 29 sec) 
Heartbeat CPU 0 instructions: 69000001 cycles: 73470219 heartbeat IPC: 0.648717 cumulative IPC: 0.442278 (Simulation time: 0 hr 29 min 58 sec) 
Heartbeat CPU 0 instructions: 70000001 cycles: 76834081 heartbeat IPC: 0.297277 cumulative IPC: 0.431748 (Simulation time: 0 hr 30 min 30 sec) 
Heartbeat CPU 0 instructions: 71000001 cycles: 80198584 heartbeat IPC: 0.297221 cumulative IPC: 0.422639 (Simulation time: 0 hr 31 min 2 sec) 
Heartbeat CPU 0 instructions: 72000000 cycles: 83069599 heartbeat IPC: 0.348309 cumulative IPC: 0.418579 (Simulation time: 0 hr 31 min 29 sec) 
Heartbeat CPU 0 instructions: 73000000 cycles: 84623198 heartbeat IPC: 0.643667 cumulative IPC: 0.425041 (Simulation time: 0 hr 31 min 56 sec) 
Heartbeat CPU 0 instructions: 74000003 cycles: 88006815 heartbeat IPC: 0.295543 cumulative IPC: 0.41742 (Simulation time: 0 hr 32 min 27 sec) 
Heartbeat CPU 0 instructions: 75000001 cycles: 91377776 heartbeat IPC: 0.296651 cumulative IPC: 0.410732 (Simulation time: 0 hr 32 min 59 sec) 
Heartbeat CPU 0 instructions: 76000000 cycles: 94130643 heartbeat IPC: 0.363257 cumulative IPC: 0.408677 (Simulation time: 0 hr 33 min 29 sec) 
Heartbeat CPU 0 instructions: 77000001 cycles: 95785245 heartbeat IPC: 0.604376 cumulative IPC: 0.413638 (Simulation time: 0 hr 33 min 57 sec) 
Heartbeat CPU 0 instructions: 78000000 cycles: 99156903 heartbeat IPC: 0.29659 cumulative IPC: 0.407889 (Simulation time: 0 hr 34 min 29 sec) 
Heartbeat CPU 0 instructions: 79000000 cycles: 102698044 heartbeat IPC: 0.282395 cumulative IPC: 0.401733 (Simulation time: 0 hr 35 min 2 sec) 
Heartbeat CPU 0 instructions: 80000000 cycles: 104590889 heartbeat IPC: 0.528305 cumulative IPC: 0.404967 (Simulation time: 0 hr 35 min 29 sec) 
Heartbeat CPU 0 instructions: 81000001 cycles: 107100857 heartbeat IPC: 0.398412 cumulative IPC: 0.404752 (Simulation time: 0 hr 35 min 59 sec) 
Heartbeat CPU 0 instructions: 82000000 cycles: 110492621 heartbeat IPC: 0.294832 cumulative IPC: 0.400091 (Simulation time: 0 hr 36 min 31 sec) 
Heartbeat CPU 0 instructions: 83000000 cycles: 113873394 heartbeat IPC: 0.29579 cumulative IPC: 0.395861 (Simulation time: 0 hr 37 min 4 sec) 
Heartbeat CPU 0 instructions: 84000000 cycles: 115730198 heartbeat IPC: 0.53856 cumulative IPC: 0.39897 (Simulation time: 0 hr 37 min 33 sec) 
Heartbeat CPU 0 instructions: 85000003 cycles: 118263863 heartbeat IPC: 0.394686 cumulative IPC: 0.398846 (Simulation time: 0 hr 38 min 2 sec) 
Heartbeat CPU 0 instructions: 86000001 cycles: 121653423 heartbeat IPC: 0.295023 cumulative IPC: 0.394985 (Simulation time: 0 hr 38 min 33 sec) 
Heartbeat CPU 0 instructions: 87000000 cycles: 125023453 heartbeat IPC: 0.296733 cumulative IPC: 0.391482 (Simulation time: 0 hr 39 min 3 sec) 
Heartbeat CPU 0 instructions: 88000000 cycles: 126729818 heartbeat IPC: 0.586041 cumulative IPC: 0.394932 (Simulation time: 0 hr 39 min 28 sec) 
Heartbeat CPU 0 instructions: 89000000 cycles: 131609764 heartbeat IPC: 0.20492 cumulative IPC: 0.385761 (Simulation time: 0 hr 40 min 4 sec) 
Heartbeat CPU 0 instructions: 90000002 cycles: 132653208 heartbeat IPC: 0.958367 cumulative IPC: 0.39161 (Simulation time: 0 hr 40 min 28 sec) 
Heartbeat CPU 0 instructions: 91000001 cycles: 133697601 heartbeat IPC: 0.957493 cumulative IPC: 0.397338 (Simulation time: 0 hr 40 min 50 sec) 
Heartbeat CPU 0 instructions: 92000000 cycles: 134741246 heartbeat IPC: 0.958179 cumulative IPC: 0.402953 (Simulation time: 0 hr 41 min 12 sec) 
Heartbeat CPU 0 instructions: 93000002 cycles: 135785586 heartbeat IPC: 0.957545 cumulative IPC: 0.408455 (Simulation time: 0 hr 41 min 38 sec) 
Heartbeat CPU 0 instructions: 94000001 cycles: 136829433 heartbeat IPC: 0.957994 cumulative IPC: 0.41385 (Simulation time: 0 hr 42 min 3 sec) 
Heartbeat CPU 0 instructions: 95000000 cycles: 137873697 heartbeat IPC: 0.957611 cumulative IPC: 0.419139 (Simulation time: 0 hr 42 min 30 sec) 
Heartbeat CPU 0 instructions: 96000000 cycles: 138918567 heartbeat IPC: 0.957057 cumulative IPC: 0.424324 (Simulation time: 0 hr 42 min 54 sec) 
Heartbeat CPU 0 instructions: 97000002 cycles: 139989445 heartbeat IPC: 0.933815 cumulative IPC: 0.429307 (Simulation time: 0 hr 43 min 18 sec) 
Heartbeat CPU 0 instructions: 98000000 cycles: 141035182 heartbeat IPC: 0.956261 cumulative IPC: 0.434293 (Simulation time: 0 hr 43 min 41 sec) 
Heartbeat CPU 0 instructions: 99000003 cycles: 142073739 heartbeat IPC: 0.962877 cumulative IPC: 0.439214 (Simulation time: 0 hr 44 min 6 sec) 
Heartbeat CPU 0 instructions: 100000000 cycles: 143110672 heartbeat IPC: 0.96438 cumulative IPC: 0.44405 (Simulation time: 0 hr 44 min 30 sec) 
Heartbeat CPU 0 instructions: 101000001 cycles: 144152191 heartbeat IPC: 0.960137 cumulative IPC: 0.44878 (Simulation time: 0 hr 44 min 57 sec) 
Heartbeat CPU 0 instructions: 102000001 cycles: 147480497 heartbeat IPC: 0.300453 cumulative IPC: 0.44456 (Simulation time: 0 hr 45 min 36 sec) 
Heartbeat CPU 0 instructions: 103000001 cycles: 148902970 heartbeat IPC: 0.703001 cumulative IPC: 0.447665 (Simulation time: 0 hr 46 min 4 sec) 
Heartbeat CPU 0 instructions: 104000000 cycles: 151928704 heartbeat IPC: 0.330498 cumulative IPC: 0.444745 (Simulation time: 0 hr 46 min 35 sec) 
Heartbeat CPU 0 instructions: 105000000 cycles: 155288858 heartbeat IPC: 0.297605 cumulative IPC: 0.440783 (Simulation time: 0 hr 47 min 9 sec) 
Heartbeat CPU 0 instructions: 106000000 cycles: 158592049 heartbeat IPC: 0.302738 cumulative IPC: 0.437222 (Simulation time: 0 hr 47 min 42 sec) 
Heartbeat CPU 0 instructions: 107000001 cycles: 160176578 heartbeat IPC: 0.631103 cumulative IPC: 0.439592 (Simulation time: 0 hr 48 min 9 sec) 
Heartbeat CPU 0 instructions: 108000000 cycles: 163033294 heartbeat IPC: 0.350052 cumulative IPC: 0.437662 (Simulation time: 0 hr 48 min 40 sec) 
Heartbeat CPU 0 instructions: 109000000 cycles: 166411645 heartbeat IPC: 0.296002 cumulative IPC: 0.43414 (Simulation time: 0 hr 49 min 13 sec) 
Heartbeat CPU 0 instructions: 110000000 cycles: 169751661 heartbeat IPC: 0.2994 cumulative IPC: 0.430908 (Simulation time: 0 hr 49 min 45 sec) 
Heartbeat CPU 0 instructions: 111000000 cycles: 171487199 heartbeat IPC: 0.57619 cumulative IPC: 0.432697 (Simulation time: 0 hr 50 min 13 sec) 
Heartbeat CPU 0 instructions: 112000000 cycles: 174172943 heartbeat IPC: 0.372336 cumulative IPC: 0.431568 (Simulation time: 0 hr 50 min 43 sec) 
Heartbeat CPU 0 instructions: 113000001 cycles: 177548857 heartbeat IPC: 0.296216 cumulative IPC: 0.428461 (Simulation time: 0 hr 51 min 13 sec) 
Heartbeat CPU 0 instructions: 114000001 cycles: 180936193 heartbeat IPC: 0.295217 cumulative IPC: 0.42546 (Simulation time: 0 hr 51 min 46 sec) 
Heartbeat CPU 0 instructions: 115000002 cycles: 182854680 heartbeat IPC: 0.521245 cumulative IPC: 0.426666 (Simulation time: 0 hr 52 min 14 sec) 
Heartbeat CPU 0 instructions: 116000000 cycles: 185332432 heartbeat IPC: 0.403591 cumulative IPC: 0.426297 (Simulation time: 0 hr 52 min 45 sec) 
Heartbeat CPU 0 instructions: 117000000 cycles: 188703844 heartbeat IPC: 0.296612 cumulative IPC: 0.423533 (Simulation time: 0 hr 53 min 19 sec) 
Heartbeat CPU 0 instructions: 118000001 cycles: 192097125 heartbeat IPC: 0.2947 cumulative IPC: 0.420828 (Simulation time: 0 hr 53 min 50 sec) 
Heartbeat CPU 0 instructions: 119000002 cycles: 193915875 heartbeat IPC: 0.549829 cumulative IPC: 0.422264 (Simulation time: 0 hr 54 min 17 sec) 
Heartbeat CPU 0 instructions: 120000000 cycles: 196512947 heartbeat IPC: 0.385048 cumulative IPC: 0.421681 (Simulation time: 0 hr 54 min 47 sec) 
Heartbeat CPU 0 instructions: 121000000 cycles: 199891899 heartbeat IPC: 0.29595 cumulative IPC: 0.419173 (Simulation time: 0 hr 55 min 23 sec) 
Heartbeat CPU 0 instructions: 122000000 cycles: 203269352 heartbeat IPC: 0.296081 cumulative IPC: 0.416767 (Simulation time: 0 hr 55 min 55 sec) 
Heartbeat CPU 0 instructions: 123000002 cycles: 204987320 heartbeat IPC: 0.582084 cumulative IPC: 0.418394 (Simulation time: 0 hr 56 min 26 sec) 
Heartbeat CPU 0 instructions: 124000000 cycles: 207668696 heartbeat IPC: 0.372942 cumulative IPC: 0.417706 (Simulation time: 0 hr 56 min 59 sec) 
Heartbeat CPU 0 instructions: 125000000 cycles: 211207999 heartbeat IPC: 0.282542 cumulative IPC: 0.415059 (Simulation time: 0 hr 57 min 38 sec) 
Heartbeat CPU 0 instructions: 126000001 cycles: 214456909 heartbeat IPC: 0.307796 cumulative IPC: 0.413164 (Simulation time: 0 hr 58 min 10 sec) 
Heartbeat CPU 0 instructions: 127000002 cycles: 215618404 heartbeat IPC: 0.86096 cumulative IPC: 0.415974 (Simulation time: 0 hr 58 min 36 sec) 
Heartbeat CPU 0 instructions: 128000000 cycles: 219010336 heartbeat IPC: 0.294817 cumulative IPC: 0.413794 (Simulation time: 0 hr 59 min 15 sec) 
Heartbeat CPU 0 instructions: 129000000 cycles: 222393268 heartbeat IPC: 0.295602 cumulative IPC: 0.41171 (Simulation time: 0 hr 59 min 51 sec) 
Heartbeat CPU 0 instructions: 130000001 cycles: 225605208 heartbeat IPC: 0.311339 cumulative IPC: 0.410058 (Simulation time: 1 hr 0 min 23 sec) 
Heartbeat CPU 0 instructions: 131000002 cycles: 226802730 heartbeat IPC: 0.835059 cumulative IPC: 0.412651 (Simulation time: 1 hr 0 min 46 sec) 
Heartbeat CPU 0 instructions: 132000000 cycles: 230178476 heartbeat IPC: 0.29623 cumulative IPC: 0.410682 (Simulation time: 1 hr 1 min 20 sec) 
Heartbeat CPU 0 instructions: 133000000 cycles: 233544824 heartbeat IPC: 0.297058 cumulative IPC: 0.408798 (Simulation time: 1 hr 1 min 56 sec) 
Heartbeat CPU 0 instructions: 134000000 cycles: 236629193 heartbeat IPC: 0.324215 cumulative IPC: 0.407533 (Simulation time: 1 hr 2 min 29 sec) 
Heartbeat CPU 0 instructions: 135000001 cycles: 240153407 heartbeat IPC: 0.283751 cumulative IPC: 0.405452 (Simulation time: 1 hr 3 min 3 sec) 
Heartbeat CPU 0 instructions: 136000000 cycles: 241197578 heartbeat IPC: 0.957697 cumulative IPC: 0.408189 (Simulation time: 1 hr 3 min 33 sec) 
Heartbeat CPU 0 instructions: 137000001 cycles: 242242795 heartbeat IPC: 0.95674 cumulative IPC: 0.410897 (Simulation time: 1 hr 3 min 57 sec) 
Heartbeat CPU 0 instructions: 138000001 cycles: 243287499 heartbeat IPC: 0.957209 cumulative IPC: 0.413579 (Simulation time: 1 hr 4 min 20 sec) 
Heartbeat CPU 0 instructions: 139000001 cycles: 244333030 heartbeat IPC: 0.956452 cumulative IPC: 0.416234 (Simulation time: 1 hr 4 min 43 sec) 
Heartbeat CPU 0 instructions: 140000000 cycles: 245379554 heartbeat IPC: 0.955543 cumulative IPC: 0.41886 (Simulation time: 1 hr 5 min 8 sec) 
Heartbeat CPU 0 instructions: 141000001 cycles: 246449989 heartbeat IPC: 0.934201 cumulative IPC: 0.421415 (Simulation time: 1 hr 5 min 32 sec) 
Heartbeat CPU 0 instructions: 142000002 cycles: 247493863 heartbeat IPC: 0.957971 cumulative IPC: 0.423996 (Simulation time: 1 hr 6 min 2 sec) 
Heartbeat CPU 0 instructions: 143000001 cycles: 248539127 heartbeat IPC: 0.956695 cumulative IPC: 0.42655 (Simulation time: 1 hr 6 min 26 sec) 
Heartbeat CPU 0 instructions: 144000000 cycles: 249582929 heartbeat IPC: 0.958035 cumulative IPC: 0.429082 (Simulation time: 1 hr 6 min 50 sec) 
Heartbeat CPU 0 instructions: 145000003 cycles: 250625638 heartbeat IPC: 0.959043 cumulative IPC: 0.431593 (Simulation time: 1 hr 7 min 17 sec) 
Heartbeat CPU 0 instructions: 146000001 cycles: 251666964 heartbeat IPC: 0.960312 cumulative IPC: 0.434082 (Simulation time: 1 hr 7 min 43 sec) 
Heartbeat CPU 0 instructions: 147000000 cycles: 252708761 heartbeat IPC: 0.959879 cumulative IPC: 0.436548 (Simulation time: 1 hr 8 min 6 sec) 
Heartbeat CPU 0 instructions: 148000000 cycles: 256083620 heartbeat IPC: 0.296309 cumulative IPC: 0.434449 (Simulation time: 1 hr 8 min 39 sec) 
Heartbeat CPU 0 instructions: 149000000 cycles: 258789597 heartbeat IPC: 0.369552 cumulative IPC: 0.43368 (Simulation time: 1 hr 9 min 11 sec) 
Heartbeat CPU 0 instructions: 150000000 cycles: 260467755 heartbeat IPC: 0.595891 cumulative IPC: 0.434864 (Simulation time: 1 hr 9 min 36 sec) 
Finished CPU 0 instructions: 100000002 cycles: 229956961 cummulative IPC: 0.434864 (Simulation time: 1 hr 9 min 36 sec) 

ChampSim completed all CPUs

Region of Interest Statistics

CPU 0 cummulative IPC: 0.434864 instructions: 100000002 cycles: 229956961
LLC TOTAL     ACCESS:    3408672  HIT:    1087920  MISS:    2320752
LLC LOAD      ACCESS:    1622451  HIT:    1024380  MISS:     598071
LLC RFO       ACCESS:       5352  HIT:       2111  MISS:       3241
LLC PREFETCH  ACCESS:    1763468  HIT:      49661  MISS:    1713807
LLC WRITEBACK ACCESS:      17401  HIT:      11768  MISS:       5633
OPTgen accesses: 38917
OPTgen hits: 32381
OPTgen hit rate: 83.2053


