
*** ChampSim Multicore Out-of-Order Simulator ***

Warmup Instructions: 50000000
Simulation Instructions: 100000000
Configuration: 2
Number of CPUs: 1
LLC sets: 2048
LLC ways: 16
Off-chip DRAM Channels: 1 Width: 64-bit Data Rate: 1600 MT/s

CPU 0 runs /datasets/cs240c-wi22-a00-public/data/Assignment2-gz/omnetpp_340B.trace.gz
CPU 0 L1D next line prefetcher
CPU 0 L2C IP-based stride prefetcher
Initialize Hawkeye state
Heartbeat CPU 0 instructions: 1000001 cycles: 576945 heartbeat IPC: 1.73327 cumulative IPC: 1.73327 (Simulation time: 0 hr 0 min 41 sec) 
Heartbeat CPU 0 instructions: 2000000 cycles: 1160881 heartbeat IPC: 1.71251 cumulative IPC: 1.72283 (Simulation time: 0 hr 1 min 20 sec) 
Heartbeat CPU 0 instructions: 3000001 cycles: 1758199 heartbeat IPC: 1.67415 cumulative IPC: 1.70629 (Simulation time: 0 hr 1 min 58 sec) 
Heartbeat CPU 0 instructions: 4000000 cycles: 2379253 heartbeat IPC: 1.61016 cumulative IPC: 1.6812 (Simulation time: 0 hr 2 min 37 sec) 
Heartbeat CPU 0 instructions: 5000002 cycles: 2954794 heartbeat IPC: 1.7375 cumulative IPC: 1.69217 (Simulation time: 0 hr 3 min 15 sec) 
Heartbeat CPU 0 instructions: 6000003 cycles: 3556245 heartbeat IPC: 1.66265 cumulative IPC: 1.68717 (Simulation time: 0 hr 3 min 54 sec) 
Heartbeat CPU 0 instructions: 7000003 cycles: 4205654 heartbeat IPC: 1.53986 cumulative IPC: 1.66443 (Simulation time: 0 hr 4 min 32 sec) 
Heartbeat CPU 0 instructions: 8000000 cycles: 4800205 heartbeat IPC: 1.68194 cumulative IPC: 1.6666 (Simulation time: 0 hr 5 min 11 sec) 
Heartbeat CPU 0 instructions: 9000002 cycles: 5433587 heartbeat IPC: 1.57883 cumulative IPC: 1.65636 (Simulation time: 0 hr 5 min 51 sec) 
Heartbeat CPU 0 instructions: 10000002 cycles: 6028161 heartbeat IPC: 1.68188 cumulative IPC: 1.65888 (Simulation time: 0 hr 6 min 28 sec) 
Heartbeat CPU 0 instructions: 11000003 cycles: 6627681 heartbeat IPC: 1.668 cumulative IPC: 1.65971 (Simulation time: 0 hr 7 min 4 sec) 
Heartbeat CPU 0 instructions: 12000000 cycles: 7230176 heartbeat IPC: 1.65976 cumulative IPC: 1.65971 (Simulation time: 0 hr 7 min 41 sec) 
Heartbeat CPU 0 instructions: 13000002 cycles: 7833800 heartbeat IPC: 1.65666 cumulative IPC: 1.65948 (Simulation time: 0 hr 8 min 20 sec) 
Heartbeat CPU 0 instructions: 14000000 cycles: 8429659 heartbeat IPC: 1.67825 cumulative IPC: 1.6608 (Simulation time: 0 hr 8 min 59 sec) 
Heartbeat CPU 0 instructions: 15000001 cycles: 9021328 heartbeat IPC: 1.69014 cumulative IPC: 1.66273 (Simulation time: 0 hr 9 min 36 sec) 
Heartbeat CPU 0 instructions: 16000000 cycles: 9644496 heartbeat IPC: 1.6047 cumulative IPC: 1.65898 (Simulation time: 0 hr 10 min 16 sec) 
Heartbeat CPU 0 instructions: 17000000 cycles: 10250341 heartbeat IPC: 1.65059 cumulative IPC: 1.65848 (Simulation time: 0 hr 10 min 54 sec) 
Heartbeat CPU 0 instructions: 18000000 cycles: 10870663 heartbeat IPC: 1.61207 cumulative IPC: 1.65583 (Simulation time: 0 hr 11 min 31 sec) 
Heartbeat CPU 0 instructions: 19000000 cycles: 11502202 heartbeat IPC: 1.58343 cumulative IPC: 1.65186 (Simulation time: 0 hr 12 min 12 sec) 
Heartbeat CPU 0 instructions: 20000000 cycles: 12088444 heartbeat IPC: 1.70578 cumulative IPC: 1.65447 (Simulation time: 0 hr 12 min 48 sec) 
Heartbeat CPU 0 instructions: 21000000 cycles: 12685932 heartbeat IPC: 1.67367 cumulative IPC: 1.65538 (Simulation time: 0 hr 13 min 29 sec) 
Heartbeat CPU 0 instructions: 22000001 cycles: 13300323 heartbeat IPC: 1.62763 cumulative IPC: 1.6541 (Simulation time: 0 hr 14 min 7 sec) 
Heartbeat CPU 0 instructions: 23000001 cycles: 13922309 heartbeat IPC: 1.60775 cumulative IPC: 1.65202 (Simulation time: 0 hr 14 min 47 sec) 
Heartbeat CPU 0 instructions: 24000000 cycles: 14545294 heartbeat IPC: 1.60517 cumulative IPC: 1.65002 (Simulation time: 0 hr 15 min 21 sec) 
Heartbeat CPU 0 instructions: 25000001 cycles: 15162308 heartbeat IPC: 1.62071 cumulative IPC: 1.64883 (Simulation time: 0 hr 16 min 0 sec) 
Heartbeat CPU 0 instructions: 26000001 cycles: 15753102 heartbeat IPC: 1.69264 cumulative IPC: 1.65047 (Simulation time: 0 hr 16 min 37 sec) 
Heartbeat CPU 0 instructions: 27000000 cycles: 16323847 heartbeat IPC: 1.75209 cumulative IPC: 1.65402 (Simulation time: 0 hr 17 min 14 sec) 
Heartbeat CPU 0 instructions: 28000000 cycles: 16919407 heartbeat IPC: 1.67909 cumulative IPC: 1.6549 (Simulation time: 0 hr 17 min 53 sec) 
Heartbeat CPU 0 instructions: 29000003 cycles: 17543158 heartbeat IPC: 1.60321 cumulative IPC: 1.65307 (Simulation time: 0 hr 18 min 32 sec) 
Heartbeat CPU 0 instructions: 30000003 cycles: 18120255 heartbeat IPC: 1.73281 cumulative IPC: 1.65561 (Simulation time: 0 hr 19 min 9 sec) 
Heartbeat CPU 0 instructions: 31000001 cycles: 18729200 heartbeat IPC: 1.64218 cumulative IPC: 1.65517 (Simulation time: 0 hr 19 min 47 sec) 
Heartbeat CPU 0 instructions: 32000000 cycles: 19334654 heartbeat IPC: 1.65165 cumulative IPC: 1.65506 (Simulation time: 0 hr 20 min 25 sec) 
Heartbeat CPU 0 instructions: 33000001 cycles: 19914733 heartbeat IPC: 1.7239 cumulative IPC: 1.65706 (Simulation time: 0 hr 21 min 2 sec) 
Heartbeat CPU 0 instructions: 34000001 cycles: 20565683 heartbeat IPC: 1.53622 cumulative IPC: 1.65324 (Simulation time: 0 hr 21 min 40 sec) 
Heartbeat CPU 0 instructions: 35000002 cycles: 21146112 heartbeat IPC: 1.72287 cumulative IPC: 1.65515 (Simulation time: 0 hr 22 min 18 sec) 
Heartbeat CPU 0 instructions: 36000000 cycles: 21755578 heartbeat IPC: 1.64078 cumulative IPC: 1.65475 (Simulation time: 0 hr 22 min 57 sec) 
Heartbeat CPU 0 instructions: 37000002 cycles: 22394833 heartbeat IPC: 1.56432 cumulative IPC: 1.65217 (Simulation time: 0 hr 23 min 37 sec) 
Heartbeat CPU 0 instructions: 38000000 cycles: 22977735 heartbeat IPC: 1.71555 cumulative IPC: 1.65377 (Simulation time: 0 hr 24 min 11 sec) 
Heartbeat CPU 0 instructions: 39000001 cycles: 23646313 heartbeat IPC: 1.49571 cumulative IPC: 1.64931 (Simulation time: 0 hr 24 min 48 sec) 
Heartbeat CPU 0 instructions: 40000000 cycles: 24236147 heartbeat IPC: 1.69539 cumulative IPC: 1.65043 (Simulation time: 0 hr 25 min 24 sec) 
Heartbeat CPU 0 instructions: 41000000 cycles: 24824566 heartbeat IPC: 1.69947 cumulative IPC: 1.65159 (Simulation time: 0 hr 26 min 2 sec) 
Heartbeat CPU 0 instructions: 42000001 cycles: 25452539 heartbeat IPC: 1.59243 cumulative IPC: 1.65013 (Simulation time: 0 hr 26 min 40 sec) 
Heartbeat CPU 0 instructions: 43000003 cycles: 26058577 heartbeat IPC: 1.65006 cumulative IPC: 1.65013 (Simulation time: 0 hr 27 min 15 sec) 
Heartbeat CPU 0 instructions: 44000000 cycles: 26612130 heartbeat IPC: 1.80651 cumulative IPC: 1.65338 (Simulation time: 0 hr 27 min 51 sec) 
Heartbeat CPU 0 instructions: 45000003 cycles: 27171455 heartbeat IPC: 1.78787 cumulative IPC: 1.65615 (Simulation time: 0 hr 28 min 27 sec) 
Heartbeat CPU 0 instructions: 46000001 cycles: 27786708 heartbeat IPC: 1.62534 cumulative IPC: 1.65547 (Simulation time: 0 hr 29 min 8 sec) 
Heartbeat CPU 0 instructions: 47000000 cycles: 28360181 heartbeat IPC: 1.74376 cumulative IPC: 1.65725 (Simulation time: 0 hr 29 min 45 sec) 
Heartbeat CPU 0 instructions: 48000000 cycles: 28962194 heartbeat IPC: 1.66109 cumulative IPC: 1.65733 (Simulation time: 0 hr 30 min 24 sec) 
Heartbeat CPU 0 instructions: 49000000 cycles: 29541827 heartbeat IPC: 1.72523 cumulative IPC: 1.65867 (Simulation time: 0 hr 31 min 0 sec) 
Heartbeat CPU 0 instructions: 50000000 cycles: 30185190 heartbeat IPC: 1.55433 cumulative IPC: 1.65644 (Simulation time: 0 hr 31 min 38 sec) 

Warmup complete CPU 0 instructions: 50000004 cycles: 30185191 (Simulation time: 0 hr 31 min 38 sec) 

Heartbeat CPU 0 instructions: 51000003 cycles: 33938351 heartbeat IPC: 0.266443 cumulative IPC: 0.266442 (Simulation time: 0 hr 32 min 27 sec) 
Heartbeat CPU 0 instructions: 52000000 cycles: 37924895 heartbeat IPC: 0.250843 cumulative IPC: 0.258407 (Simulation time: 0 hr 33 min 21 sec) 
Heartbeat CPU 0 instructions: 53000000 cycles: 42491379 heartbeat IPC: 0.218987 cumulative IPC: 0.243779 (Simulation time: 0 hr 34 min 8 sec) 
Heartbeat CPU 0 instructions: 54000002 cycles: 46574460 heartbeat IPC: 0.244914 cumulative IPC: 0.244062 (Simulation time: 0 hr 34 min 53 sec) 
Heartbeat CPU 0 instructions: 55000001 cycles: 50418001 heartbeat IPC: 0.260176 cumulative IPC: 0.247123 (Simulation time: 0 hr 35 min 40 sec) 
Heartbeat CPU 0 instructions: 56000000 cycles: 54679928 heartbeat IPC: 0.234635 cumulative IPC: 0.24495 (Simulation time: 0 hr 36 min 25 sec) 
Heartbeat CPU 0 instructions: 57000001 cycles: 58758964 heartbeat IPC: 0.245156 cumulative IPC: 0.24498 (Simulation time: 0 hr 37 min 12 sec) 
Heartbeat CPU 0 instructions: 58000000 cycles: 62000587 heartbeat IPC: 0.308487 cumulative IPC: 0.25145 (Simulation time: 0 hr 37 min 58 sec) 
Heartbeat CPU 0 instructions: 59000003 cycles: 65963273 heartbeat IPC: 0.252355 cumulative IPC: 0.251551 (Simulation time: 0 hr 38 min 47 sec) 
Heartbeat CPU 0 instructions: 60000000 cycles: 70379219 heartbeat IPC: 0.226451 cumulative IPC: 0.248793 (Simulation time: 0 hr 39 min 39 sec) 
Heartbeat CPU 0 instructions: 61000001 cycles: 74795869 heartbeat IPC: 0.226416 cumulative IPC: 0.246578 (Simulation time: 0 hr 40 min 29 sec) 
Heartbeat CPU 0 instructions: 62000000 cycles: 79243178 heartbeat IPC: 0.224855 cumulative IPC: 0.244608 (Simulation time: 0 hr 41 min 15 sec) 
Heartbeat CPU 0 instructions: 63000001 cycles: 82956294 heartbeat IPC: 0.269316 cumulative IPC: 0.246347 (Simulation time: 0 hr 42 min 0 sec) 
Heartbeat CPU 0 instructions: 64000000 cycles: 86772296 heartbeat IPC: 0.262054 cumulative IPC: 0.247406 (Simulation time: 0 hr 42 min 45 sec) 
Heartbeat CPU 0 instructions: 65000001 cycles: 90182501 heartbeat IPC: 0.293238 cumulative IPC: 0.250011 (Simulation time: 0 hr 43 min 31 sec) 
Heartbeat CPU 0 instructions: 66000002 cycles: 94200455 heartbeat IPC: 0.248883 cumulative IPC: 0.24994 (Simulation time: 0 hr 44 min 17 sec) 
Heartbeat CPU 0 instructions: 67000002 cycles: 97926761 heartbeat IPC: 0.268362 cumulative IPC: 0.250954 (Simulation time: 0 hr 45 min 1 sec) 
Heartbeat CPU 0 instructions: 68000000 cycles: 101782741 heartbeat IPC: 0.259337 cumulative IPC: 0.251405 (Simulation time: 0 hr 45 min 48 sec) 
Heartbeat CPU 0 instructions: 69000000 cycles: 105793820 heartbeat IPC: 0.249309 cumulative IPC: 0.251294 (Simulation time: 0 hr 46 min 34 sec) 
Heartbeat CPU 0 instructions: 70000001 cycles: 109480169 heartbeat IPC: 0.271271 cumulative IPC: 0.252223 (Simulation time: 0 hr 47 min 20 sec) 
Heartbeat CPU 0 instructions: 71000003 cycles: 113390525 heartbeat IPC: 0.255732 cumulative IPC: 0.252388 (Simulation time: 0 hr 48 min 9 sec) 
Heartbeat CPU 0 instructions: 72000000 cycles: 117848382 heartbeat IPC: 0.224322 cumulative IPC: 0.25096 (Simulation time: 0 hr 49 min 0 sec) 
Heartbeat CPU 0 instructions: 73000002 cycles: 121856799 heartbeat IPC: 0.249476 cumulative IPC: 0.250896 (Simulation time: 0 hr 49 min 44 sec) 
Heartbeat CPU 0 instructions: 74000000 cycles: 125665897 heartbeat IPC: 0.262529 cumulative IPC: 0.25136 (Simulation time: 0 hr 50 min 31 sec) 
Heartbeat CPU 0 instructions: 75000003 cycles: 129714449 heartbeat IPC: 0.247003 cumulative IPC: 0.251182 (Simulation time: 0 hr 51 min 21 sec) 
Heartbeat CPU 0 instructions: 76000000 cycles: 133521657 heartbeat IPC: 0.262659 cumulative IPC: 0.251605 (Simulation time: 0 hr 52 min 9 sec) 
Heartbeat CPU 0 instructions: 77000002 cycles: 138131062 heartbeat IPC: 0.216948 cumulative IPC: 0.250125 (Simulation time: 0 hr 52 min 56 sec) 
Heartbeat CPU 0 instructions: 78000003 cycles: 141919315 heartbeat IPC: 0.263974 cumulative IPC: 0.250595 (Simulation time: 0 hr 53 min 43 sec) 
Heartbeat CPU 0 instructions: 79000002 cycles: 145780980 heartbeat IPC: 0.258955 cumulative IPC: 0.250874 (Simulation time: 0 hr 54 min 29 sec) 
Heartbeat CPU 0 instructions: 80000000 cycles: 149578784 heartbeat IPC: 0.26331 cumulative IPC: 0.25127 (Simulation time: 0 hr 55 min 20 sec) 
Heartbeat CPU 0 instructions: 81000002 cycles: 153655072 heartbeat IPC: 0.245322 cumulative IPC: 0.251073 (Simulation time: 0 hr 56 min 11 sec) 
Heartbeat CPU 0 instructions: 82000000 cycles: 158165281 heartbeat IPC: 0.221719 cumulative IPC: 0.250039 (Simulation time: 0 hr 57 min 10 sec) 
Heartbeat CPU 0 instructions: 83000002 cycles: 161852997 heartbeat IPC: 0.271171 cumulative IPC: 0.250631 (Simulation time: 0 hr 57 min 59 sec) 
Heartbeat CPU 0 instructions: 84000000 cycles: 165793501 heartbeat IPC: 0.253774 cumulative IPC: 0.250722 (Simulation time: 0 hr 58 min 51 sec) 
Heartbeat CPU 0 instructions: 85000000 cycles: 169548801 heartbeat IPC: 0.26629 cumulative IPC: 0.251142 (Simulation time: 0 hr 59 min 40 sec) 
Heartbeat CPU 0 instructions: 86000000 cycles: 173405446 heartbeat IPC: 0.259293 cumulative IPC: 0.251361 (Simulation time: 1 hr 0 min 25 sec) 
Heartbeat CPU 0 instructions: 87000001 cycles: 177220352 heartbeat IPC: 0.26213 cumulative IPC: 0.25164 (Simulation time: 1 hr 1 min 15 sec) 
Heartbeat CPU 0 instructions: 88000000 cycles: 181046696 heartbeat IPC: 0.261346 cumulative IPC: 0.251887 (Simulation time: 1 hr 2 min 1 sec) 
Heartbeat CPU 0 instructions: 89000003 cycles: 184558335 heartbeat IPC: 0.284768 cumulative IPC: 0.252635 (Simulation time: 1 hr 2 min 49 sec) 
Heartbeat CPU 0 instructions: 90000000 cycles: 188440648 heartbeat IPC: 0.257578 cumulative IPC: 0.252756 (Simulation time: 1 hr 3 min 40 sec) 
Heartbeat CPU 0 instructions: 91000001 cycles: 192087768 heartbeat IPC: 0.274189 cumulative IPC: 0.253239 (Simulation time: 1 hr 4 min 25 sec) 
Heartbeat CPU 0 instructions: 92000000 cycles: 196162025 heartbeat IPC: 0.245443 cumulative IPC: 0.253047 (Simulation time: 1 hr 5 min 14 sec) 
Heartbeat CPU 0 instructions: 93000001 cycles: 200585107 heartbeat IPC: 0.226087 cumulative IPC: 0.252348 (Simulation time: 1 hr 6 min 10 sec) 
Heartbeat CPU 0 instructions: 94000001 cycles: 204434743 heartbeat IPC: 0.259765 cumulative IPC: 0.252511 (Simulation time: 1 hr 6 min 58 sec) 
Heartbeat CPU 0 instructions: 95000000 cycles: 208446640 heartbeat IPC: 0.249258 cumulative IPC: 0.252438 (Simulation time: 1 hr 7 min 46 sec) 
Heartbeat CPU 0 instructions: 96000000 cycles: 212819661 heartbeat IPC: 0.228675 cumulative IPC: 0.251869 (Simulation time: 1 hr 8 min 37 sec) 
Heartbeat CPU 0 instructions: 97000000 cycles: 216421484 heartbeat IPC: 0.277637 cumulative IPC: 0.252368 (Simulation time: 1 hr 9 min 25 sec) 
Heartbeat CPU 0 instructions: 98000000 cycles: 220648593 heartbeat IPC: 0.236568 cumulative IPC: 0.252017 (Simulation time: 1 hr 10 min 11 sec) 
Heartbeat CPU 0 instructions: 99000000 cycles: 225182298 heartbeat IPC: 0.22057 cumulative IPC: 0.251286 (Simulation time: 1 hr 10 min 52 sec) 
Heartbeat CPU 0 instructions: 100000000 cycles: 229233508 heartbeat IPC: 0.24684 cumulative IPC: 0.251195 (Simulation time: 1 hr 11 min 31 sec) 
Heartbeat CPU 0 instructions: 101000000 cycles: 233139425 heartbeat IPC: 0.256022 cumulative IPC: 0.251288 (Simulation time: 1 hr 12 min 17 sec) 
Heartbeat CPU 0 instructions: 102000003 cycles: 237266234 heartbeat IPC: 0.242319 cumulative IPC: 0.251109 (Simulation time: 1 hr 13 min 4 sec) 
Heartbeat CPU 0 instructions: 103000000 cycles: 241035533 heartbeat IPC: 0.265301 cumulative IPC: 0.251363 (Simulation time: 1 hr 13 min 49 sec) 
Heartbeat CPU 0 instructions: 104000000 cycles: 244810628 heartbeat IPC: 0.264894 cumulative IPC: 0.251601 (Simulation time: 1 hr 14 min 33 sec) 
Heartbeat CPU 0 instructions: 105000003 cycles: 248873100 heartbeat IPC: 0.246156 cumulative IPC: 0.2515 (Simulation time: 1 hr 15 min 16 sec) 
Heartbeat CPU 0 instructions: 106000001 cycles: 252524062 heartbeat IPC: 0.2739 cumulative IPC: 0.251868 (Simulation time: 1 hr 16 min 2 sec) 
Heartbeat CPU 0 instructions: 107000000 cycles: 256695456 heartbeat IPC: 0.239728 cumulative IPC: 0.251644 (Simulation time: 1 hr 16 min 38 sec) 
Heartbeat CPU 0 instructions: 108000000 cycles: 260677599 heartbeat IPC: 0.251121 cumulative IPC: 0.251635 (Simulation time: 1 hr 17 min 14 sec) 
Heartbeat CPU 0 instructions: 109000000 cycles: 265140030 heartbeat IPC: 0.224093 cumulative IPC: 0.251112 (Simulation time: 1 hr 17 min 54 sec) 
Heartbeat CPU 0 instructions: 110000000 cycles: 268762925 heartbeat IPC: 0.276022 cumulative IPC: 0.25149 (Simulation time: 1 hr 18 min 33 sec) 
Heartbeat CPU 0 instructions: 111000002 cycles: 273205859 heartbeat IPC: 0.225077 cumulative IPC: 0.251007 (Simulation time: 1 hr 19 min 8 sec) 
Heartbeat CPU 0 instructions: 112000000 cycles: 277107432 heartbeat IPC: 0.256306 cumulative IPC: 0.251091 (Simulation time: 1 hr 19 min 44 sec) 
Heartbeat CPU 0 instructions: 113000002 cycles: 280690157 heartbeat IPC: 0.279118 cumulative IPC: 0.251492 (Simulation time: 1 hr 20 min 18 sec) 
Heartbeat CPU 0 instructions: 114000000 cycles: 284145275 heartbeat IPC: 0.289425 cumulative IPC: 0.252008 (Simulation time: 1 hr 20 min 48 sec) 
Heartbeat CPU 0 instructions: 115000000 cycles: 287867930 heartbeat IPC: 0.268625 cumulative IPC: 0.252248 (Simulation time: 1 hr 21 min 24 sec) 
Heartbeat CPU 0 instructions: 116000000 cycles: 292037875 heartbeat IPC: 0.239811 cumulative IPC: 0.25205 (Simulation time: 1 hr 21 min 56 sec) 
Heartbeat CPU 0 instructions: 117000000 cycles: 295811471 heartbeat IPC: 0.264999 cumulative IPC: 0.252234 (Simulation time: 1 hr 22 min 30 sec) 
Heartbeat CPU 0 instructions: 118000000 cycles: 299502902 heartbeat IPC: 0.270898 cumulative IPC: 0.25249 (Simulation time: 1 hr 23 min 6 sec) 
Heartbeat CPU 0 instructions: 119000001 cycles: 303322698 heartbeat IPC: 0.261794 cumulative IPC: 0.25262 (Simulation time: 1 hr 23 min 39 sec) 
Heartbeat CPU 0 instructions: 120000000 cycles: 306969205 heartbeat IPC: 0.274235 cumulative IPC: 0.252905 (Simulation time: 1 hr 24 min 8 sec) 
Heartbeat CPU 0 instructions: 121000001 cycles: 310491228 heartbeat IPC: 0.283928 cumulative IPC: 0.253295 (Simulation time: 1 hr 24 min 37 sec) 
Heartbeat CPU 0 instructions: 122000001 cycles: 314150230 heartbeat IPC: 0.273299 cumulative IPC: 0.253552 (Simulation time: 1 hr 25 min 4 sec) 
Heartbeat CPU 0 instructions: 123000000 cycles: 317785925 heartbeat IPC: 0.27505 cumulative IPC: 0.253824 (Simulation time: 1 hr 25 min 30 sec) 
Heartbeat CPU 0 instructions: 124000000 cycles: 321484725 heartbeat IPC: 0.270358 cumulative IPC: 0.254034 (Simulation time: 1 hr 25 min 55 sec) 
Heartbeat CPU 0 instructions: 125000001 cycles: 325147977 heartbeat IPC: 0.272982 cumulative IPC: 0.254269 (Simulation time: 1 hr 26 min 19 sec) 
Heartbeat CPU 0 instructions: 126000003 cycles: 328705012 heartbeat IPC: 0.281134 cumulative IPC: 0.254589 (Simulation time: 1 hr 26 min 42 sec) 
Heartbeat CPU 0 instructions: 127000001 cycles: 332227560 heartbeat IPC: 0.283885 cumulative IPC: 0.254931 (Simulation time: 1 hr 27 min 4 sec) 
Heartbeat CPU 0 instructions: 128000000 cycles: 335860677 heartbeat IPC: 0.275245 cumulative IPC: 0.255173 (Simulation time: 1 hr 27 min 25 sec) 
Heartbeat CPU 0 instructions: 129000001 cycles: 339223592 heartbeat IPC: 0.297361 cumulative IPC: 0.255632 (Simulation time: 1 hr 27 min 45 sec) 
Heartbeat CPU 0 instructions: 130000000 cycles: 342879649 heartbeat IPC: 0.273518 cumulative IPC: 0.255841 (Simulation time: 1 hr 28 min 8 sec) 
Heartbeat CPU 0 instructions: 131000000 cycles: 346567936 heartbeat IPC: 0.271129 cumulative IPC: 0.256019 (Simulation time: 1 hr 28 min 29 sec) 
Heartbeat CPU 0 instructions: 132000000 cycles: 350397097 heartbeat IPC: 0.261154 cumulative IPC: 0.25608 (Simulation time: 1 hr 28 min 50 sec) 
Heartbeat CPU 0 instructions: 133000003 cycles: 354289943 heartbeat IPC: 0.256882 cumulative IPC: 0.25609 (Simulation time: 1 hr 29 min 7 sec) 
Heartbeat CPU 0 instructions: 134000000 cycles: 358316616 heartbeat IPC: 0.248343 cumulative IPC: 0.255995 (Simulation time: 1 hr 29 min 26 sec) 
Heartbeat CPU 0 instructions: 135000001 cycles: 362151270 heartbeat IPC: 0.26078 cumulative IPC: 0.25605 (Simulation time: 1 hr 29 min 44 sec) 
Heartbeat CPU 0 instructions: 136000000 cycles: 365945968 heartbeat IPC: 0.263525 cumulative IPC: 0.256135 (Simulation time: 1 hr 29 min 59 sec) 
Heartbeat CPU 0 instructions: 137000000 cycles: 369800733 heartbeat IPC: 0.259419 cumulative IPC: 0.256172 (Simulation time: 1 hr 30 min 16 sec) 
Heartbeat CPU 0 instructions: 138000000 cycles: 373625582 heartbeat IPC: 0.261448 cumulative IPC: 0.256231 (Simulation time: 1 hr 30 min 31 sec) 
Heartbeat CPU 0 instructions: 139000000 cycles: 377707691 heartbeat IPC: 0.244971 cumulative IPC: 0.256099 (Simulation time: 1 hr 30 min 46 sec) 
Heartbeat CPU 0 instructions: 140000000 cycles: 381275838 heartbeat IPC: 0.280258 cumulative IPC: 0.256344 (Simulation time: 1 hr 30 min 59 sec) 
Heartbeat CPU 0 instructions: 141000001 cycles: 385584577 heartbeat IPC: 0.232087 cumulative IPC: 0.25605 (Simulation time: 1 hr 31 min 12 sec) 
Heartbeat CPU 0 instructions: 142000000 cycles: 389635565 heartbeat IPC: 0.246853 cumulative IPC: 0.255946 (Simulation time: 1 hr 31 min 24 sec) 
Heartbeat CPU 0 instructions: 143000000 cycles: 393774871 heartbeat IPC: 0.241586 cumulative IPC: 0.255783 (Simulation time: 1 hr 31 min 34 sec) 
Heartbeat CPU 0 instructions: 144000000 cycles: 397800476 heartbeat IPC: 0.24841 cumulative IPC: 0.255702 (Simulation time: 1 hr 31 min 43 sec) 
Heartbeat CPU 0 instructions: 145000001 cycles: 401157616 heartbeat IPC: 0.297873 cumulative IPC: 0.256084 (Simulation time: 1 hr 31 min 51 sec) 
Heartbeat CPU 0 instructions: 146000001 cycles: 405372649 heartbeat IPC: 0.237246 cumulative IPC: 0.255872 (Simulation time: 1 hr 31 min 59 sec) 
Heartbeat CPU 0 instructions: 147000002 cycles: 409602919 heartbeat IPC: 0.236392 cumulative IPC: 0.255655 (Simulation time: 1 hr 32 min 6 sec) 
Heartbeat CPU 0 instructions: 148000000 cycles: 413396563 heartbeat IPC: 0.263598 cumulative IPC: 0.255734 (Simulation time: 1 hr 32 min 15 sec) 
Heartbeat CPU 0 instructions: 149000000 cycles: 417150676 heartbeat IPC: 0.266374 cumulative IPC: 0.255837 (Simulation time: 1 hr 32 min 22 sec) 
Heartbeat CPU 0 instructions: 150000000 cycles: 420351761 heartbeat IPC: 0.312394 cumulative IPC: 0.256301 (Simulation time: 1 hr 32 min 29 sec) 
Finished CPU 0 instructions: 100000000 cycles: 390166571 cummulative IPC: 0.256301 (Simulation time: 1 hr 32 min 29 sec) 

ChampSim completed all CPUs

Region of Interest Statistics

CPU 0 cummulative IPC: 0.256301 instructions: 100000000 cycles: 390166571
LLC TOTAL     ACCESS:    4288093  HIT:    1625326  MISS:    2662767
LLC LOAD      ACCESS:    1519116  HIT:     462366  MISS:    1056750
LLC RFO       ACCESS:     246578  HIT:      99799  MISS:     146779
LLC PREFETCH  ACCESS:    1524847  HIT:     320099  MISS:    1204748
LLC WRITEBACK ACCESS:     997552  HIT:     743062  MISS:     254490
OPTgen accesses: 39543
OPTgen hits: 21709
OPTgen hit rate: 54.8997


