
*** ChampSim Multicore Out-of-Order Simulator ***

Warmup Instructions: 50000000
Simulation Instructions: 100000000
Configuration: 2
Number of CPUs: 1
LLC sets: 2048
LLC ways: 16
Off-chip DRAM Channels: 1 Width: 64-bit Data Rate: 1600 MT/s

CPU 0 runs /datasets/cs240c-wi22-a00-public/data/Assignment2-gz/astar_313B.trace.gz
CPU 0 L1D next line prefetcher
CPU 0 L2C IP-based stride prefetcher
Initialize Hawkeye state
Heartbeat CPU 0 instructions: 1000001 cycles: 675680 heartbeat IPC: 1.47999 cumulative IPC: 1.47999 (Simulation time: 0 hr 0 min 40 sec) 
Heartbeat CPU 0 instructions: 2000003 cycles: 1263000 heartbeat IPC: 1.70265 cumulative IPC: 1.58353 (Simulation time: 0 hr 1 min 18 sec) 
Heartbeat CPU 0 instructions: 3000003 cycles: 1936938 heartbeat IPC: 1.48382 cumulative IPC: 1.54884 (Simulation time: 0 hr 2 min 0 sec) 
Heartbeat CPU 0 instructions: 4000000 cycles: 2610272 heartbeat IPC: 1.48514 cumulative IPC: 1.53241 (Simulation time: 0 hr 2 min 38 sec) 
Heartbeat CPU 0 instructions: 5000002 cycles: 3283837 heartbeat IPC: 1.48464 cumulative IPC: 1.52261 (Simulation time: 0 hr 3 min 19 sec) 
Heartbeat CPU 0 instructions: 6000001 cycles: 3871123 heartbeat IPC: 1.70275 cumulative IPC: 1.54994 (Simulation time: 0 hr 3 min 56 sec) 
Heartbeat CPU 0 instructions: 7000001 cycles: 4440022 heartbeat IPC: 1.75778 cumulative IPC: 1.57657 (Simulation time: 0 hr 4 min 34 sec) 
Heartbeat CPU 0 instructions: 8000000 cycles: 4991912 heartbeat IPC: 1.81195 cumulative IPC: 1.60259 (Simulation time: 0 hr 5 min 13 sec) 
Heartbeat CPU 0 instructions: 9000001 cycles: 5553609 heartbeat IPC: 1.78032 cumulative IPC: 1.62057 (Simulation time: 0 hr 5 min 51 sec) 
Heartbeat CPU 0 instructions: 10000002 cycles: 6228379 heartbeat IPC: 1.48199 cumulative IPC: 1.60555 (Simulation time: 0 hr 6 min 30 sec) 
Heartbeat CPU 0 instructions: 11000000 cycles: 6903938 heartbeat IPC: 1.48025 cumulative IPC: 1.59329 (Simulation time: 0 hr 7 min 9 sec) 
Heartbeat CPU 0 instructions: 12000000 cycles: 7573573 heartbeat IPC: 1.49335 cumulative IPC: 1.58446 (Simulation time: 0 hr 7 min 48 sec) 
Heartbeat CPU 0 instructions: 13000003 cycles: 8166545 heartbeat IPC: 1.68643 cumulative IPC: 1.59186 (Simulation time: 0 hr 8 min 26 sec) 
Heartbeat CPU 0 instructions: 14000002 cycles: 8838682 heartbeat IPC: 1.48779 cumulative IPC: 1.58395 (Simulation time: 0 hr 9 min 5 sec) 
Heartbeat CPU 0 instructions: 15000000 cycles: 9512694 heartbeat IPC: 1.48365 cumulative IPC: 1.57684 (Simulation time: 0 hr 9 min 47 sec) 
Heartbeat CPU 0 instructions: 16000000 cycles: 10186584 heartbeat IPC: 1.48392 cumulative IPC: 1.57069 (Simulation time: 0 hr 10 min 26 sec) 
Heartbeat CPU 0 instructions: 17000001 cycles: 10860204 heartbeat IPC: 1.48452 cumulative IPC: 1.56535 (Simulation time: 0 hr 11 min 4 sec) 
Heartbeat CPU 0 instructions: 18000000 cycles: 11445749 heartbeat IPC: 1.70781 cumulative IPC: 1.57264 (Simulation time: 0 hr 11 min 41 sec) 
Heartbeat CPU 0 instructions: 19000000 cycles: 12119578 heartbeat IPC: 1.48406 cumulative IPC: 1.56771 (Simulation time: 0 hr 12 min 19 sec) 
Heartbeat CPU 0 instructions: 20000000 cycles: 12793342 heartbeat IPC: 1.4842 cumulative IPC: 1.56331 (Simulation time: 0 hr 12 min 59 sec) 
Heartbeat CPU 0 instructions: 21000001 cycles: 13419875 heartbeat IPC: 1.59609 cumulative IPC: 1.56484 (Simulation time: 0 hr 13 min 37 sec) 
Heartbeat CPU 0 instructions: 22000001 cycles: 14054904 heartbeat IPC: 1.57473 cumulative IPC: 1.56529 (Simulation time: 0 hr 14 min 16 sec) 
Heartbeat CPU 0 instructions: 23000001 cycles: 14727871 heartbeat IPC: 1.48596 cumulative IPC: 1.56167 (Simulation time: 0 hr 14 min 55 sec) 
Heartbeat CPU 0 instructions: 24000000 cycles: 15382314 heartbeat IPC: 1.52802 cumulative IPC: 1.56023 (Simulation time: 0 hr 15 min 34 sec) 
Heartbeat CPU 0 instructions: 25000001 cycles: 15987636 heartbeat IPC: 1.65201 cumulative IPC: 1.56371 (Simulation time: 0 hr 16 min 13 sec) 
Heartbeat CPU 0 instructions: 26000002 cycles: 16664065 heartbeat IPC: 1.47835 cumulative IPC: 1.56024 (Simulation time: 0 hr 16 min 50 sec) 
Heartbeat CPU 0 instructions: 27000002 cycles: 17254919 heartbeat IPC: 1.69247 cumulative IPC: 1.56477 (Simulation time: 0 hr 17 min 30 sec) 
Heartbeat CPU 0 instructions: 28000000 cycles: 17929427 heartbeat IPC: 1.48256 cumulative IPC: 1.56168 (Simulation time: 0 hr 18 min 10 sec) 
Heartbeat CPU 0 instructions: 29000001 cycles: 18517476 heartbeat IPC: 1.70054 cumulative IPC: 1.56609 (Simulation time: 0 hr 18 min 48 sec) 
Heartbeat CPU 0 instructions: 30000002 cycles: 19190972 heartbeat IPC: 1.48479 cumulative IPC: 1.56324 (Simulation time: 0 hr 19 min 28 sec) 
Heartbeat CPU 0 instructions: 31000002 cycles: 19865620 heartbeat IPC: 1.48225 cumulative IPC: 1.56049 (Simulation time: 0 hr 20 min 6 sec) 
Heartbeat CPU 0 instructions: 32000000 cycles: 20540054 heartbeat IPC: 1.48272 cumulative IPC: 1.55793 (Simulation time: 0 hr 20 min 45 sec) 
Heartbeat CPU 0 instructions: 33000003 cycles: 21215017 heartbeat IPC: 1.48157 cumulative IPC: 1.5555 (Simulation time: 0 hr 21 min 23 sec) 
Heartbeat CPU 0 instructions: 34000000 cycles: 21800868 heartbeat IPC: 1.70691 cumulative IPC: 1.55957 (Simulation time: 0 hr 22 min 1 sec) 
Heartbeat CPU 0 instructions: 35000000 cycles: 22474328 heartbeat IPC: 1.48487 cumulative IPC: 1.55733 (Simulation time: 0 hr 22 min 42 sec) 
Heartbeat CPU 0 instructions: 36000000 cycles: 23147830 heartbeat IPC: 1.48478 cumulative IPC: 1.55522 (Simulation time: 0 hr 23 min 23 sec) 
Heartbeat CPU 0 instructions: 37000002 cycles: 23735397 heartbeat IPC: 1.70194 cumulative IPC: 1.55885 (Simulation time: 0 hr 24 min 2 sec) 
Heartbeat CPU 0 instructions: 38000000 cycles: 24408536 heartbeat IPC: 1.48557 cumulative IPC: 1.55683 (Simulation time: 0 hr 24 min 40 sec) 
Heartbeat CPU 0 instructions: 39000003 cycles: 24997140 heartbeat IPC: 1.69894 cumulative IPC: 1.56018 (Simulation time: 0 hr 25 min 18 sec) 
Heartbeat CPU 0 instructions: 40000000 cycles: 25585917 heartbeat IPC: 1.69843 cumulative IPC: 1.56336 (Simulation time: 0 hr 25 min 56 sec) 
Heartbeat CPU 0 instructions: 41000001 cycles: 26260507 heartbeat IPC: 1.48238 cumulative IPC: 1.56128 (Simulation time: 0 hr 26 min 34 sec) 
Heartbeat CPU 0 instructions: 42000003 cycles: 26937656 heartbeat IPC: 1.47678 cumulative IPC: 1.55916 (Simulation time: 0 hr 27 min 15 sec) 
Heartbeat CPU 0 instructions: 43000003 cycles: 27530529 heartbeat IPC: 1.6867 cumulative IPC: 1.5619 (Simulation time: 0 hr 27 min 54 sec) 
Heartbeat CPU 0 instructions: 44000000 cycles: 28198703 heartbeat IPC: 1.49661 cumulative IPC: 1.56036 (Simulation time: 0 hr 28 min 35 sec) 
Heartbeat CPU 0 instructions: 45000002 cycles: 28871148 heartbeat IPC: 1.48711 cumulative IPC: 1.55865 (Simulation time: 0 hr 29 min 16 sec) 
Heartbeat CPU 0 instructions: 46000002 cycles: 29544322 heartbeat IPC: 1.4855 cumulative IPC: 1.55698 (Simulation time: 0 hr 29 min 58 sec) 
Heartbeat CPU 0 instructions: 47000002 cycles: 30215907 heartbeat IPC: 1.48901 cumulative IPC: 1.55547 (Simulation time: 0 hr 30 min 39 sec) 
Heartbeat CPU 0 instructions: 48000000 cycles: 30804627 heartbeat IPC: 1.6986 cumulative IPC: 1.55821 (Simulation time: 0 hr 31 min 19 sec) 
Heartbeat CPU 0 instructions: 49000000 cycles: 31476834 heartbeat IPC: 1.48764 cumulative IPC: 1.5567 (Simulation time: 0 hr 31 min 59 sec) 
Heartbeat CPU 0 instructions: 50000000 cycles: 32149272 heartbeat IPC: 1.48713 cumulative IPC: 1.55525 (Simulation time: 0 hr 32 min 39 sec) 

Warmup complete CPU 0 instructions: 50000001 cycles: 32149273 (Simulation time: 0 hr 32 min 39 sec) 

Heartbeat CPU 0 instructions: 51000000 cycles: 38823884 heartbeat IPC: 0.149821 cumulative IPC: 0.149821 (Simulation time: 0 hr 33 min 21 sec) 
Heartbeat CPU 0 instructions: 52000000 cycles: 47178240 heartbeat IPC: 0.119698 cumulative IPC: 0.133076 (Simulation time: 0 hr 34 min 8 sec) 
Heartbeat CPU 0 instructions: 53000000 cycles: 53879591 heartbeat IPC: 0.149224 cumulative IPC: 0.138056 (Simulation time: 0 hr 34 min 50 sec) 
Heartbeat CPU 0 instructions: 54000000 cycles: 61624092 heartbeat IPC: 0.129124 cumulative IPC: 0.135709 (Simulation time: 0 hr 35 min 31 sec) 
Heartbeat CPU 0 instructions: 55000001 cycles: 69880338 heartbeat IPC: 0.121121 cumulative IPC: 0.132517 (Simulation time: 0 hr 36 min 13 sec) 
Heartbeat CPU 0 instructions: 56000000 cycles: 79673990 heartbeat IPC: 0.102107 cumulative IPC: 0.12625 (Simulation time: 0 hr 37 min 1 sec) 
Heartbeat CPU 0 instructions: 57000000 cycles: 85804577 heartbeat IPC: 0.163117 cumulative IPC: 0.130462 (Simulation time: 0 hr 37 min 41 sec) 
Heartbeat CPU 0 instructions: 58000001 cycles: 92054618 heartbeat IPC: 0.159999 cumulative IPC: 0.133544 (Simulation time: 0 hr 38 min 21 sec) 
Heartbeat CPU 0 instructions: 59000002 cycles: 100184981 heartbeat IPC: 0.122996 cumulative IPC: 0.132283 (Simulation time: 0 hr 39 min 10 sec) 
Heartbeat CPU 0 instructions: 60000000 cycles: 107695963 heartbeat IPC: 0.133138 cumulative IPC: 0.132368 (Simulation time: 0 hr 39 min 58 sec) 
Heartbeat CPU 0 instructions: 61000001 cycles: 114403173 heartbeat IPC: 0.149093 cumulative IPC: 0.133732 (Simulation time: 0 hr 40 min 40 sec) 
Heartbeat CPU 0 instructions: 62000001 cycles: 121418609 heartbeat IPC: 0.142543 cumulative IPC: 0.134425 (Simulation time: 0 hr 41 min 22 sec) 
Heartbeat CPU 0 instructions: 63000000 cycles: 128571933 heartbeat IPC: 0.139795 cumulative IPC: 0.134823 (Simulation time: 0 hr 42 min 8 sec) 
Heartbeat CPU 0 instructions: 64000000 cycles: 137770177 heartbeat IPC: 0.108716 cumulative IPC: 0.13255 (Simulation time: 0 hr 42 min 57 sec) 
Heartbeat CPU 0 instructions: 65000000 cycles: 144462349 heartbeat IPC: 0.149428 cumulative IPC: 0.133555 (Simulation time: 0 hr 43 min 42 sec) 
Heartbeat CPU 0 instructions: 66000001 cycles: 151203682 heartbeat IPC: 0.148339 cumulative IPC: 0.134392 (Simulation time: 0 hr 44 min 24 sec) 
Heartbeat CPU 0 instructions: 67000000 cycles: 158471080 heartbeat IPC: 0.137601 cumulative IPC: 0.134577 (Simulation time: 0 hr 45 min 6 sec) 
Heartbeat CPU 0 instructions: 68000000 cycles: 165958418 heartbeat IPC: 0.133559 cumulative IPC: 0.13452 (Simulation time: 0 hr 45 min 49 sec) 
Heartbeat CPU 0 instructions: 69000000 cycles: 177673784 heartbeat IPC: 0.085358 cumulative IPC: 0.130562 (Simulation time: 0 hr 46 min 41 sec) 
Heartbeat CPU 0 instructions: 70000000 cycles: 184251540 heartbeat IPC: 0.152028 cumulative IPC: 0.13149 (Simulation time: 0 hr 47 min 24 sec) 
Heartbeat CPU 0 instructions: 71000002 cycles: 190792628 heartbeat IPC: 0.15288 cumulative IPC: 0.132372 (Simulation time: 0 hr 48 min 6 sec) 
Heartbeat CPU 0 instructions: 72000000 cycles: 197723622 heartbeat IPC: 0.144279 cumulative IPC: 0.132871 (Simulation time: 0 hr 48 min 48 sec) 
Heartbeat CPU 0 instructions: 73000003 cycles: 205014013 heartbeat IPC: 0.137167 cumulative IPC: 0.133052 (Simulation time: 0 hr 49 min 30 sec) 
Heartbeat CPU 0 instructions: 74000003 cycles: 214094038 heartbeat IPC: 0.110132 cumulative IPC: 0.131908 (Simulation time: 0 hr 50 min 16 sec) 
Heartbeat CPU 0 instructions: 75000000 cycles: 221330916 heartbeat IPC: 0.138181 cumulative IPC: 0.132148 (Simulation time: 0 hr 51 min 0 sec) 
Heartbeat CPU 0 instructions: 76000000 cycles: 227654147 heartbeat IPC: 0.158147 cumulative IPC: 0.132989 (Simulation time: 0 hr 51 min 41 sec) 
Heartbeat CPU 0 instructions: 77000000 cycles: 233930760 heartbeat IPC: 0.159322 cumulative IPC: 0.133808 (Simulation time: 0 hr 52 min 22 sec) 
Heartbeat CPU 0 instructions: 78000001 cycles: 239974860 heartbeat IPC: 0.165451 cumulative IPC: 0.134728 (Simulation time: 0 hr 53 min 2 sec) 
Heartbeat CPU 0 instructions: 79000000 cycles: 248732787 heartbeat IPC: 0.114182 cumulative IPC: 0.133898 (Simulation time: 0 hr 53 min 51 sec) 
Heartbeat CPU 0 instructions: 80000000 cycles: 254476695 heartbeat IPC: 0.174097 cumulative IPC: 0.134936 (Simulation time: 0 hr 54 min 31 sec) 
Heartbeat CPU 0 instructions: 81000001 cycles: 261725215 heartbeat IPC: 0.137959 cumulative IPC: 0.135032 (Simulation time: 0 hr 55 min 16 sec) 
Heartbeat CPU 0 instructions: 82000001 cycles: 269518255 heartbeat IPC: 0.12832 cumulative IPC: 0.134811 (Simulation time: 0 hr 56 min 8 sec) 
Heartbeat CPU 0 instructions: 83000002 cycles: 275844029 heartbeat IPC: 0.158084 cumulative IPC: 0.135415 (Simulation time: 0 hr 56 min 48 sec) 
Heartbeat CPU 0 instructions: 84000000 cycles: 282354651 heartbeat IPC: 0.153595 cumulative IPC: 0.135888 (Simulation time: 0 hr 57 min 28 sec) 
Heartbeat CPU 0 instructions: 85000000 cycles: 289193289 heartbeat IPC: 0.146228 cumulative IPC: 0.136163 (Simulation time: 0 hr 58 min 15 sec) 
Heartbeat CPU 0 instructions: 86000001 cycles: 297670881 heartbeat IPC: 0.117958 cumulative IPC: 0.135582 (Simulation time: 0 hr 59 min 6 sec) 
Heartbeat CPU 0 instructions: 87000000 cycles: 303361404 heartbeat IPC: 0.175731 cumulative IPC: 0.136425 (Simulation time: 0 hr 59 min 45 sec) 
Heartbeat CPU 0 instructions: 88000000 cycles: 309259974 heartbeat IPC: 0.169533 cumulative IPC: 0.137129 (Simulation time: 1 hr 0 min 25 sec) 
Heartbeat CPU 0 instructions: 89000002 cycles: 315470174 heartbeat IPC: 0.161026 cumulative IPC: 0.137653 (Simulation time: 1 hr 1 min 7 sec) 
Heartbeat CPU 0 instructions: 90000002 cycles: 321986642 heartbeat IPC: 0.153457 cumulative IPC: 0.138008 (Simulation time: 1 hr 1 min 54 sec) 
Heartbeat CPU 0 instructions: 91000001 cycles: 331126429 heartbeat IPC: 0.109412 cumulative IPC: 0.137134 (Simulation time: 1 hr 2 min 47 sec) 
Heartbeat CPU 0 instructions: 92000000 cycles: 338139047 heartbeat IPC: 0.1426 cumulative IPC: 0.137259 (Simulation time: 1 hr 3 min 31 sec) 
Heartbeat CPU 0 instructions: 93000003 cycles: 345353574 heartbeat IPC: 0.13861 cumulative IPC: 0.137291 (Simulation time: 1 hr 4 min 14 sec) 
Heartbeat CPU 0 instructions: 94000000 cycles: 352853944 heartbeat IPC: 0.133326 cumulative IPC: 0.137198 (Simulation time: 1 hr 4 min 56 sec) 
Heartbeat CPU 0 instructions: 95000000 cycles: 359431673 heartbeat IPC: 0.152028 cumulative IPC: 0.137496 (Simulation time: 1 hr 5 min 37 sec) 
Heartbeat CPU 0 instructions: 96000000 cycles: 368591031 heartbeat IPC: 0.109178 cumulative IPC: 0.136725 (Simulation time: 1 hr 6 min 29 sec) 
Heartbeat CPU 0 instructions: 97000000 cycles: 375409186 heartbeat IPC: 0.146667 cumulative IPC: 0.136922 (Simulation time: 1 hr 7 min 8 sec) 
Heartbeat CPU 0 instructions: 98000003 cycles: 383073657 heartbeat IPC: 0.130473 cumulative IPC: 0.136782 (Simulation time: 1 hr 7 min 52 sec) 
Heartbeat CPU 0 instructions: 99000001 cycles: 391053696 heartbeat IPC: 0.125312 cumulative IPC: 0.136527 (Simulation time: 1 hr 8 min 32 sec) 
Heartbeat CPU 0 instructions: 100000000 cycles: 398479889 heartbeat IPC: 0.134658 cumulative IPC: 0.136489 (Simulation time: 1 hr 9 min 13 sec) 
Heartbeat CPU 0 instructions: 101000000 cycles: 407677135 heartbeat IPC: 0.108728 cumulative IPC: 0.135809 (Simulation time: 1 hr 10 min 5 sec) 
Heartbeat CPU 0 instructions: 102000001 cycles: 414014753 heartbeat IPC: 0.157788 cumulative IPC: 0.136174 (Simulation time: 1 hr 10 min 44 sec) 
Heartbeat CPU 0 instructions: 103000000 cycles: 420247096 heartbeat IPC: 0.160453 cumulative IPC: 0.136564 (Simulation time: 1 hr 11 min 23 sec) 
Heartbeat CPU 0 instructions: 104000000 cycles: 426552974 heartbeat IPC: 0.158582 cumulative IPC: 0.136916 (Simulation time: 1 hr 12 min 4 sec) 
Heartbeat CPU 0 instructions: 105000000 cycles: 432697661 heartbeat IPC: 0.162742 cumulative IPC: 0.137312 (Simulation time: 1 hr 12 min 46 sec) 
Heartbeat CPU 0 instructions: 106000000 cycles: 441604059 heartbeat IPC: 0.112279 cumulative IPC: 0.136767 (Simulation time: 1 hr 13 min 30 sec) 
Heartbeat CPU 0 instructions: 107000002 cycles: 447855310 heartbeat IPC: 0.159968 cumulative IPC: 0.137116 (Simulation time: 1 hr 14 min 8 sec) 
Heartbeat CPU 0 instructions: 108000000 cycles: 456826853 heartbeat IPC: 0.111463 cumulative IPC: 0.136574 (Simulation time: 1 hr 14 min 49 sec) 
Heartbeat CPU 0 instructions: 109000003 cycles: 462793509 heartbeat IPC: 0.167599 cumulative IPC: 0.137004 (Simulation time: 1 hr 15 min 26 sec) 
Heartbeat CPU 0 instructions: 110000003 cycles: 468736496 heartbeat IPC: 0.168266 cumulative IPC: 0.13743 (Simulation time: 1 hr 15 min 56 sec) 
Heartbeat CPU 0 instructions: 111000001 cycles: 474679585 heartbeat IPC: 0.168262 cumulative IPC: 0.137844 (Simulation time: 1 hr 16 min 23 sec) 
Heartbeat CPU 0 instructions: 112000000 cycles: 482900817 heartbeat IPC: 0.121636 cumulative IPC: 0.137548 (Simulation time: 1 hr 16 min 54 sec) 
Heartbeat CPU 0 instructions: 113000000 cycles: 490157915 heartbeat IPC: 0.137796 cumulative IPC: 0.137552 (Simulation time: 1 hr 17 min 23 sec) 
Heartbeat CPU 0 instructions: 114000003 cycles: 497854610 heartbeat IPC: 0.129926 cumulative IPC: 0.137426 (Simulation time: 1 hr 18 min 4 sec) 
Heartbeat CPU 0 instructions: 115000001 cycles: 506121618 heartbeat IPC: 0.120963 cumulative IPC: 0.137139 (Simulation time: 1 hr 18 min 42 sec) 
Heartbeat CPU 0 instructions: 116000000 cycles: 512823520 heartbeat IPC: 0.149211 cumulative IPC: 0.137307 (Simulation time: 1 hr 19 min 11 sec) 
Heartbeat CPU 0 instructions: 117000001 cycles: 519342342 heartbeat IPC: 0.153402 cumulative IPC: 0.137522 (Simulation time: 1 hr 19 min 43 sec) 
Heartbeat CPU 0 instructions: 118000003 cycles: 528347844 heartbeat IPC: 0.111043 cumulative IPC: 0.137042 (Simulation time: 1 hr 20 min 16 sec) 
Heartbeat CPU 0 instructions: 119000000 cycles: 534726000 heartbeat IPC: 0.156785 cumulative IPC: 0.137292 (Simulation time: 1 hr 20 min 44 sec) 
Heartbeat CPU 0 instructions: 120000000 cycles: 541370123 heartbeat IPC: 0.150509 cumulative IPC: 0.137465 (Simulation time: 1 hr 21 min 16 sec) 
Heartbeat CPU 0 instructions: 121000001 cycles: 548042747 heartbeat IPC: 0.149866 cumulative IPC: 0.137625 (Simulation time: 1 hr 21 min 43 sec) 
Heartbeat CPU 0 instructions: 122000001 cycles: 554584218 heartbeat IPC: 0.152871 cumulative IPC: 0.137816 (Simulation time: 1 hr 22 min 13 sec) 
Heartbeat CPU 0 instructions: 123000001 cycles: 563681569 heartbeat IPC: 0.109922 cumulative IPC: 0.137339 (Simulation time: 1 hr 22 min 46 sec) 
Heartbeat CPU 0 instructions: 124000000 cycles: 570137438 heartbeat IPC: 0.154898 cumulative IPC: 0.137549 (Simulation time: 1 hr 23 min 16 sec) 
Heartbeat CPU 0 instructions: 125000000 cycles: 576738014 heartbeat IPC: 0.151502 cumulative IPC: 0.137719 (Simulation time: 1 hr 23 min 45 sec) 
Heartbeat CPU 0 instructions: 126000003 cycles: 583762572 heartbeat IPC: 0.142358 cumulative IPC: 0.137778 (Simulation time: 1 hr 24 min 15 sec) 
Heartbeat CPU 0 instructions: 127000003 cycles: 593117473 heartbeat IPC: 0.106896 cumulative IPC: 0.137263 (Simulation time: 1 hr 24 min 43 sec) 
Heartbeat CPU 0 instructions: 128000000 cycles: 599326982 heartbeat IPC: 0.161043 cumulative IPC: 0.137523 (Simulation time: 1 hr 25 min 7 sec) 
Heartbeat CPU 0 instructions: 129000001 cycles: 608283582 heartbeat IPC: 0.11165 cumulative IPC: 0.137121 (Simulation time: 1 hr 25 min 32 sec) 
Heartbeat CPU 0 instructions: 130000002 cycles: 614573186 heartbeat IPC: 0.158993 cumulative IPC: 0.137357 (Simulation time: 1 hr 25 min 51 sec) 
Heartbeat CPU 0 instructions: 131000003 cycles: 620621305 heartbeat IPC: 0.165341 cumulative IPC: 0.137645 (Simulation time: 1 hr 26 min 11 sec) 
Heartbeat CPU 0 instructions: 132000000 cycles: 631846698 heartbeat IPC: 0.0890835 cumulative IPC: 0.136736 (Simulation time: 1 hr 26 min 36 sec) 
Heartbeat CPU 0 instructions: 133000002 cycles: 640950000 heartbeat IPC: 0.10985 cumulative IPC: 0.136334 (Simulation time: 1 hr 27 min 1 sec) 
Heartbeat CPU 0 instructions: 134000000 cycles: 647325402 heartbeat IPC: 0.156853 cumulative IPC: 0.136546 (Simulation time: 1 hr 27 min 22 sec) 
Heartbeat CPU 0 instructions: 135000002 cycles: 654915439 heartbeat IPC: 0.131752 cumulative IPC: 0.136488 (Simulation time: 1 hr 27 min 42 sec) 
Heartbeat CPU 0 instructions: 136000000 cycles: 664128943 heartbeat IPC: 0.108536 cumulative IPC: 0.13608 (Simulation time: 1 hr 28 min 2 sec) 
Heartbeat CPU 0 instructions: 137000001 cycles: 672251707 heartbeat IPC: 0.123111 cumulative IPC: 0.135916 (Simulation time: 1 hr 28 min 24 sec) 
Heartbeat CPU 0 instructions: 138000002 cycles: 678975746 heartbeat IPC: 0.14872 cumulative IPC: 0.136049 (Simulation time: 1 hr 28 min 43 sec) 
Heartbeat CPU 0 instructions: 139000001 cycles: 685794712 heartbeat IPC: 0.14665 cumulative IPC: 0.136159 (Simulation time: 1 hr 28 min 59 sec) 
Heartbeat CPU 0 instructions: 140000000 cycles: 695117228 heartbeat IPC: 0.107267 cumulative IPC: 0.135753 (Simulation time: 1 hr 29 min 19 sec) 
Heartbeat CPU 0 instructions: 141000001 cycles: 701602978 heartbeat IPC: 0.154184 cumulative IPC: 0.135932 (Simulation time: 1 hr 29 min 35 sec) 
Heartbeat CPU 0 instructions: 142000000 cycles: 707857209 heartbeat IPC: 0.159892 cumulative IPC: 0.136154 (Simulation time: 1 hr 29 min 50 sec) 
Heartbeat CPU 0 instructions: 143000001 cycles: 714428514 heartbeat IPC: 0.152177 cumulative IPC: 0.136308 (Simulation time: 1 hr 30 min 4 sec) 
Heartbeat CPU 0 instructions: 144000000 cycles: 723952108 heartbeat IPC: 0.105002 cumulative IPC: 0.135877 (Simulation time: 1 hr 30 min 19 sec) 
Heartbeat CPU 0 instructions: 145000000 cycles: 730792511 heartbeat IPC: 0.14619 cumulative IPC: 0.135978 (Simulation time: 1 hr 30 min 32 sec) 
Heartbeat CPU 0 instructions: 146000000 cycles: 737634219 heartbeat IPC: 0.146162 cumulative IPC: 0.136077 (Simulation time: 1 hr 30 min 46 sec) 
Heartbeat CPU 0 instructions: 147000000 cycles: 746964123 heartbeat IPC: 0.107182 cumulative IPC: 0.135699 (Simulation time: 1 hr 31 min 1 sec) 
Heartbeat CPU 0 instructions: 148000000 cycles: 753333481 heartbeat IPC: 0.157002 cumulative IPC: 0.135888 (Simulation time: 1 hr 31 min 11 sec) 
Heartbeat CPU 0 instructions: 149000000 cycles: 762340937 heartbeat IPC: 0.111019 cumulative IPC: 0.135581 (Simulation time: 1 hr 31 min 24 sec) 
Heartbeat CPU 0 instructions: 150000001 cycles: 768928291 heartbeat IPC: 0.151806 cumulative IPC: 0.135726 (Simulation time: 1 hr 31 min 33 sec) 
Finished CPU 0 instructions: 100000000 cycles: 736779018 cummulative IPC: 0.135726 (Simulation time: 1 hr 31 min 33 sec) 

ChampSim completed all CPUs

Region of Interest Statistics

CPU 0 cummulative IPC: 0.135726 instructions: 100000000 cycles: 736779018
LLC TOTAL     ACCESS:    9036809  HIT:    2326134  MISS:    6710675
LLC LOAD      ACCESS:    1899521  HIT:     485963  MISS:    1413558
LLC RFO       ACCESS:    1963568  HIT:     411808  MISS:    1551760
LLC PREFETCH  ACCESS:    2282593  HIT:     348505  MISS:    1934088
LLC WRITEBACK ACCESS:    2891127  HIT:    1079858  MISS:    1811269
OPTgen accesses: 93769
OPTgen hits: 50333
OPTgen hit rate: 53.6777


