
*** ChampSim Multicore Out-of-Order Simulator ***

Warmup Instructions: 50000000
Simulation Instructions: 100000000
Configuration: 2
Number of CPUs: 1
LLC sets: 2048
LLC ways: 16
Off-chip DRAM Channels: 1 Width: 64-bit Data Rate: 1600 MT/s

CPU 0 runs /datasets/cs240c-wi22-a00-public/data/Assignment2-gz/leslie3d_94B.trace.gz
CPU 0 L1D next line prefetcher
CPU 0 L2C IP-based stride prefetcher
Initialize Hawkeye state
Heartbeat CPU 0 instructions: 1000003 cycles: 597056 heartbeat IPC: 1.67489 cumulative IPC: 1.67489 (Simulation time: 0 hr 0 min 35 sec) 
Heartbeat CPU 0 instructions: 2000002 cycles: 1215904 heartbeat IPC: 1.6159 cumulative IPC: 1.64487 (Simulation time: 0 hr 1 min 13 sec) 
Heartbeat CPU 0 instructions: 3000003 cycles: 1867668 heartbeat IPC: 1.5343 cumulative IPC: 1.60628 (Simulation time: 0 hr 1 min 48 sec) 
Heartbeat CPU 0 instructions: 4000000 cycles: 2518891 heartbeat IPC: 1.53557 cumulative IPC: 1.588 (Simulation time: 0 hr 2 min 25 sec) 
Heartbeat CPU 0 instructions: 5000002 cycles: 3083867 heartbeat IPC: 1.76999 cumulative IPC: 1.62134 (Simulation time: 0 hr 2 min 56 sec) 
Heartbeat CPU 0 instructions: 6000002 cycles: 3734534 heartbeat IPC: 1.53688 cumulative IPC: 1.60663 (Simulation time: 0 hr 3 min 29 sec) 
Heartbeat CPU 0 instructions: 7000000 cycles: 4385263 heartbeat IPC: 1.53673 cumulative IPC: 1.59626 (Simulation time: 0 hr 4 min 3 sec) 
Heartbeat CPU 0 instructions: 8000000 cycles: 4950280 heartbeat IPC: 1.76986 cumulative IPC: 1.61607 (Simulation time: 0 hr 4 min 37 sec) 
Heartbeat CPU 0 instructions: 9000000 cycles: 5601154 heartbeat IPC: 1.5364 cumulative IPC: 1.60681 (Simulation time: 0 hr 5 min 12 sec) 
Heartbeat CPU 0 instructions: 10000001 cycles: 6252377 heartbeat IPC: 1.53557 cumulative IPC: 1.59939 (Simulation time: 0 hr 5 min 48 sec) 
Heartbeat CPU 0 instructions: 11000000 cycles: 6878493 heartbeat IPC: 1.59715 cumulative IPC: 1.59919 (Simulation time: 0 hr 6 min 24 sec) 
Heartbeat CPU 0 instructions: 12000000 cycles: 7380915 heartbeat IPC: 1.99036 cumulative IPC: 1.62581 (Simulation time: 0 hr 6 min 57 sec) 
Heartbeat CPU 0 instructions: 13000000 cycles: 7881214 heartbeat IPC: 1.9988 cumulative IPC: 1.64949 (Simulation time: 0 hr 7 min 34 sec) 
Heartbeat CPU 0 instructions: 14000001 cycles: 8381655 heartbeat IPC: 1.99824 cumulative IPC: 1.67031 (Simulation time: 0 hr 8 min 9 sec) 
Heartbeat CPU 0 instructions: 15000001 cycles: 8881986 heartbeat IPC: 1.99868 cumulative IPC: 1.68881 (Simulation time: 0 hr 8 min 45 sec) 
Heartbeat CPU 0 instructions: 16000000 cycles: 9382280 heartbeat IPC: 1.99882 cumulative IPC: 1.70534 (Simulation time: 0 hr 9 min 19 sec) 
Heartbeat CPU 0 instructions: 17000001 cycles: 9882722 heartbeat IPC: 1.99824 cumulative IPC: 1.72017 (Simulation time: 0 hr 9 min 52 sec) 
Heartbeat CPU 0 instructions: 18000002 cycles: 10382843 heartbeat IPC: 1.99952 cumulative IPC: 1.73363 (Simulation time: 0 hr 10 min 29 sec) 
Heartbeat CPU 0 instructions: 19000000 cycles: 10883307 heartbeat IPC: 1.99814 cumulative IPC: 1.74579 (Simulation time: 0 hr 11 min 2 sec) 
Heartbeat CPU 0 instructions: 20000000 cycles: 11383245 heartbeat IPC: 2.00025 cumulative IPC: 1.75697 (Simulation time: 0 hr 11 min 37 sec) 
Heartbeat CPU 0 instructions: 21000002 cycles: 11883777 heartbeat IPC: 1.99788 cumulative IPC: 1.76712 (Simulation time: 0 hr 12 min 11 sec) 
Heartbeat CPU 0 instructions: 22000000 cycles: 12371554 heartbeat IPC: 2.05011 cumulative IPC: 1.77827 (Simulation time: 0 hr 12 min 38 sec) 
Heartbeat CPU 0 instructions: 23000000 cycles: 12858501 heartbeat IPC: 2.05361 cumulative IPC: 1.7887 (Simulation time: 0 hr 13 min 8 sec) 
Heartbeat CPU 0 instructions: 24000000 cycles: 13344846 heartbeat IPC: 2.05615 cumulative IPC: 1.79845 (Simulation time: 0 hr 13 min 39 sec) 
Heartbeat CPU 0 instructions: 25000000 cycles: 13852129 heartbeat IPC: 1.97129 cumulative IPC: 1.80478 (Simulation time: 0 hr 14 min 9 sec) 
Heartbeat CPU 0 instructions: 26000000 cycles: 14433279 heartbeat IPC: 1.72073 cumulative IPC: 1.80139 (Simulation time: 0 hr 14 min 46 sec) 
Heartbeat CPU 0 instructions: 27000000 cycles: 15014732 heartbeat IPC: 1.71983 cumulative IPC: 1.79823 (Simulation time: 0 hr 15 min 23 sec) 
Heartbeat CPU 0 instructions: 28000000 cycles: 15596132 heartbeat IPC: 1.71999 cumulative IPC: 1.79532 (Simulation time: 0 hr 16 min 0 sec) 
Heartbeat CPU 0 instructions: 29000000 cycles: 16177426 heartbeat IPC: 1.7203 cumulative IPC: 1.79262 (Simulation time: 0 hr 16 min 38 sec) 
Heartbeat CPU 0 instructions: 30000002 cycles: 16807753 heartbeat IPC: 1.58648 cumulative IPC: 1.78489 (Simulation time: 0 hr 17 min 13 sec) 
Heartbeat CPU 0 instructions: 31000000 cycles: 17438971 heartbeat IPC: 1.58424 cumulative IPC: 1.77763 (Simulation time: 0 hr 17 min 51 sec) 
Heartbeat CPU 0 instructions: 32000000 cycles: 18060683 heartbeat IPC: 1.60846 cumulative IPC: 1.7718 (Simulation time: 0 hr 18 min 27 sec) 
Heartbeat CPU 0 instructions: 33000001 cycles: 18693201 heartbeat IPC: 1.58098 cumulative IPC: 1.76535 (Simulation time: 0 hr 19 min 0 sec) 
Heartbeat CPU 0 instructions: 34000003 cycles: 19314870 heartbeat IPC: 1.60858 cumulative IPC: 1.7603 (Simulation time: 0 hr 19 min 37 sec) 
Heartbeat CPU 0 instructions: 35000001 cycles: 19946399 heartbeat IPC: 1.58346 cumulative IPC: 1.7547 (Simulation time: 0 hr 20 min 14 sec) 
Heartbeat CPU 0 instructions: 36000000 cycles: 20567606 heartbeat IPC: 1.60977 cumulative IPC: 1.75033 (Simulation time: 0 hr 20 min 52 sec) 
Heartbeat CPU 0 instructions: 37000003 cycles: 21199485 heartbeat IPC: 1.58259 cumulative IPC: 1.74533 (Simulation time: 0 hr 21 min 26 sec) 
Heartbeat CPU 0 instructions: 38000002 cycles: 21830523 heartbeat IPC: 1.58469 cumulative IPC: 1.74068 (Simulation time: 0 hr 22 min 4 sec) 
Heartbeat CPU 0 instructions: 39000002 cycles: 22453074 heartbeat IPC: 1.60629 cumulative IPC: 1.73696 (Simulation time: 0 hr 22 min 36 sec) 
Heartbeat CPU 0 instructions: 40000000 cycles: 23085529 heartbeat IPC: 1.58114 cumulative IPC: 1.73269 (Simulation time: 0 hr 23 min 10 sec) 
Heartbeat CPU 0 instructions: 41000000 cycles: 23707096 heartbeat IPC: 1.60884 cumulative IPC: 1.72944 (Simulation time: 0 hr 23 min 45 sec) 
Heartbeat CPU 0 instructions: 42000002 cycles: 24338502 heartbeat IPC: 1.58377 cumulative IPC: 1.72566 (Simulation time: 0 hr 24 min 23 sec) 
Heartbeat CPU 0 instructions: 43000002 cycles: 24960226 heartbeat IPC: 1.60843 cumulative IPC: 1.72274 (Simulation time: 0 hr 25 min 0 sec) 
Heartbeat CPU 0 instructions: 44000000 cycles: 25592385 heartbeat IPC: 1.58188 cumulative IPC: 1.71926 (Simulation time: 0 hr 25 min 34 sec) 
Heartbeat CPU 0 instructions: 45000002 cycles: 26222707 heartbeat IPC: 1.58649 cumulative IPC: 1.71607 (Simulation time: 0 hr 26 min 9 sec) 
Heartbeat CPU 0 instructions: 46000001 cycles: 26846223 heartbeat IPC: 1.60381 cumulative IPC: 1.71346 (Simulation time: 0 hr 26 min 44 sec) 
Heartbeat CPU 0 instructions: 47000001 cycles: 27477821 heartbeat IPC: 1.58329 cumulative IPC: 1.71047 (Simulation time: 0 hr 27 min 18 sec) 
Heartbeat CPU 0 instructions: 48000000 cycles: 28099407 heartbeat IPC: 1.60879 cumulative IPC: 1.70822 (Simulation time: 0 hr 27 min 52 sec) 
Heartbeat CPU 0 instructions: 49000000 cycles: 28731179 heartbeat IPC: 1.58285 cumulative IPC: 1.70546 (Simulation time: 0 hr 28 min 23 sec) 
Heartbeat CPU 0 instructions: 50000003 cycles: 29352948 heartbeat IPC: 1.60832 cumulative IPC: 1.70341 (Simulation time: 0 hr 28 min 55 sec) 

Warmup complete CPU 0 instructions: 50000003 cycles: 29352948 (Simulation time: 0 hr 28 min 55 sec) 

Heartbeat CPU 0 instructions: 51000003 cycles: 30623215 heartbeat IPC: 0.787236 cumulative IPC: 0.787236 (Simulation time: 0 hr 29 min 29 sec) 
Heartbeat CPU 0 instructions: 52000000 cycles: 31885661 heartbeat IPC: 0.792111 cumulative IPC: 0.789666 (Simulation time: 0 hr 30 min 5 sec) 
Heartbeat CPU 0 instructions: 53000002 cycles: 33203222 heartbeat IPC: 0.75898 cumulative IPC: 0.779165 (Simulation time: 0 hr 30 min 39 sec) 
Heartbeat CPU 0 instructions: 54000001 cycles: 34458529 heartbeat IPC: 0.796617 cumulative IPC: 0.783456 (Simulation time: 0 hr 31 min 15 sec) 
Heartbeat CPU 0 instructions: 55000000 cycles: 35761758 heartbeat IPC: 0.767324 cumulative IPC: 0.780176 (Simulation time: 0 hr 31 min 51 sec) 
Heartbeat CPU 0 instructions: 56000000 cycles: 37034254 heartbeat IPC: 0.785857 cumulative IPC: 0.781117 (Simulation time: 0 hr 32 min 28 sec) 
Heartbeat CPU 0 instructions: 57000000 cycles: 38324252 heartbeat IPC: 0.775195 cumulative IPC: 0.780265 (Simulation time: 0 hr 33 min 3 sec) 
Heartbeat CPU 0 instructions: 58000001 cycles: 39581028 heartbeat IPC: 0.795688 cumulative IPC: 0.78216 (Simulation time: 0 hr 33 min 37 sec) 
Heartbeat CPU 0 instructions: 59000000 cycles: 40829040 heartbeat IPC: 0.801274 cumulative IPC: 0.784239 (Simulation time: 0 hr 34 min 12 sec) 
Heartbeat CPU 0 instructions: 60000000 cycles: 42100592 heartbeat IPC: 0.78644 cumulative IPC: 0.784458 (Simulation time: 0 hr 34 min 48 sec) 
Heartbeat CPU 0 instructions: 61000001 cycles: 43353157 heartbeat IPC: 0.798363 cumulative IPC: 0.785702 (Simulation time: 0 hr 35 min 23 sec) 
Heartbeat CPU 0 instructions: 62000002 cycles: 44625860 heartbeat IPC: 0.78573 cumulative IPC: 0.785705 (Simulation time: 0 hr 35 min 58 sec) 
Heartbeat CPU 0 instructions: 63000000 cycles: 45878805 heartbeat IPC: 0.798118 cumulative IPC: 0.786646 (Simulation time: 0 hr 36 min 32 sec) 
Heartbeat CPU 0 instructions: 64000000 cycles: 47161575 heartbeat IPC: 0.779563 cumulative IPC: 0.786136 (Simulation time: 0 hr 37 min 11 sec) 
Heartbeat CPU 0 instructions: 65000000 cycles: 48420830 heartbeat IPC: 0.79412 cumulative IPC: 0.786663 (Simulation time: 0 hr 37 min 45 sec) 
Heartbeat CPU 0 instructions: 66000000 cycles: 49689173 heartbeat IPC: 0.78843 cumulative IPC: 0.786773 (Simulation time: 0 hr 38 min 23 sec) 
Heartbeat CPU 0 instructions: 67000003 cycles: 50953786 heartbeat IPC: 0.790758 cumulative IPC: 0.787006 (Simulation time: 0 hr 38 min 56 sec) 
Heartbeat CPU 0 instructions: 68000000 cycles: 52213214 heartbeat IPC: 0.794009 cumulative IPC: 0.787392 (Simulation time: 0 hr 39 min 31 sec) 
Heartbeat CPU 0 instructions: 69000000 cycles: 53490432 heartbeat IPC: 0.782952 cumulative IPC: 0.787157 (Simulation time: 0 hr 40 min 8 sec) 
Heartbeat CPU 0 instructions: 70000001 cycles: 54742682 heartbeat IPC: 0.798563 cumulative IPC: 0.78772 (Simulation time: 0 hr 40 min 46 sec) 
Heartbeat CPU 0 instructions: 71000002 cycles: 56038634 heartbeat IPC: 0.771634 cumulative IPC: 0.786939 (Simulation time: 0 hr 41 min 24 sec) 
Heartbeat CPU 0 instructions: 72000000 cycles: 57281484 heartbeat IPC: 0.804601 cumulative IPC: 0.787725 (Simulation time: 0 hr 42 min 2 sec) 
Heartbeat CPU 0 instructions: 73000000 cycles: 58550312 heartbeat IPC: 0.788129 cumulative IPC: 0.787742 (Simulation time: 0 hr 42 min 40 sec) 
Heartbeat CPU 0 instructions: 74000000 cycles: 59807427 heartbeat IPC: 0.795472 cumulative IPC: 0.788061 (Simulation time: 0 hr 43 min 15 sec) 
Heartbeat CPU 0 instructions: 75000002 cycles: 61063429 heartbeat IPC: 0.796179 cumulative IPC: 0.788383 (Simulation time: 0 hr 43 min 54 sec) 
Heartbeat CPU 0 instructions: 76000000 cycles: 62353433 heartbeat IPC: 0.77519 cumulative IPC: 0.787867 (Simulation time: 0 hr 44 min 30 sec) 
Heartbeat CPU 0 instructions: 77000000 cycles: 63603709 heartbeat IPC: 0.799823 cumulative IPC: 0.788304 (Simulation time: 0 hr 45 min 4 sec) 
Heartbeat CPU 0 instructions: 78000003 cycles: 64917150 heartbeat IPC: 0.761361 cumulative IPC: 0.787309 (Simulation time: 0 hr 45 min 40 sec) 
Heartbeat CPU 0 instructions: 79000000 cycles: 66432919 heartbeat IPC: 0.659729 cumulative IPC: 0.782093 (Simulation time: 0 hr 46 min 15 sec) 
Heartbeat CPU 0 instructions: 80000000 cycles: 68089320 heartbeat IPC: 0.603719 cumulative IPC: 0.774466 (Simulation time: 0 hr 46 min 50 sec) 
Heartbeat CPU 0 instructions: 81000002 cycles: 69684452 heartbeat IPC: 0.626909 cumulative IPC: 0.76863 (Simulation time: 0 hr 47 min 24 sec) 
Heartbeat CPU 0 instructions: 82000003 cycles: 71333033 heartbeat IPC: 0.606583 cumulative IPC: 0.762266 (Simulation time: 0 hr 48 min 1 sec) 
Heartbeat CPU 0 instructions: 83000003 cycles: 72983407 heartbeat IPC: 0.605923 cumulative IPC: 0.756352 (Simulation time: 0 hr 48 min 35 sec) 
Heartbeat CPU 0 instructions: 84000000 cycles: 74590814 heartbeat IPC: 0.622118 cumulative IPC: 0.751583 (Simulation time: 0 hr 49 min 10 sec) 
Heartbeat CPU 0 instructions: 85000003 cycles: 76234805 heartbeat IPC: 0.608278 cumulative IPC: 0.746557 (Simulation time: 0 hr 49 min 48 sec) 
Heartbeat CPU 0 instructions: 86000002 cycles: 77860216 heartbeat IPC: 0.615228 cumulative IPC: 0.742157 (Simulation time: 0 hr 50 min 24 sec) 
Heartbeat CPU 0 instructions: 87000000 cycles: 79510385 heartbeat IPC: 0.605997 cumulative IPC: 0.737677 (Simulation time: 0 hr 50 min 59 sec) 
Heartbeat CPU 0 instructions: 88000000 cycles: 81184760 heartbeat IPC: 0.597238 cumulative IPC: 0.73314 (Simulation time: 0 hr 51 min 33 sec) 
Heartbeat CPU 0 instructions: 89000002 cycles: 82827977 heartbeat IPC: 0.608564 cumulative IPC: 0.729312 (Simulation time: 0 hr 52 min 14 sec) 
Heartbeat CPU 0 instructions: 90000001 cycles: 84476486 heartbeat IPC: 0.606608 cumulative IPC: 0.725643 (Simulation time: 0 hr 52 min 49 sec) 
Heartbeat CPU 0 instructions: 91000003 cycles: 86122431 heartbeat IPC: 0.607555 cumulative IPC: 0.722219 (Simulation time: 0 hr 53 min 22 sec) 
Heartbeat CPU 0 instructions: 92000000 cycles: 87777448 heartbeat IPC: 0.604222 cumulative IPC: 0.718876 (Simulation time: 0 hr 53 min 59 sec) 
Heartbeat CPU 0 instructions: 93000001 cycles: 89460105 heartbeat IPC: 0.594299 cumulative IPC: 0.715389 (Simulation time: 0 hr 54 min 35 sec) 
Heartbeat CPU 0 instructions: 94000003 cycles: 91116353 heartbeat IPC: 0.603776 cumulative IPC: 0.712396 (Simulation time: 0 hr 55 min 11 sec) 
Heartbeat CPU 0 instructions: 95000002 cycles: 92834383 heartbeat IPC: 0.582061 cumulative IPC: 0.708869 (Simulation time: 0 hr 55 min 48 sec) 
Heartbeat CPU 0 instructions: 96000000 cycles: 94485297 heartbeat IPC: 0.605724 cumulative IPC: 0.706254 (Simulation time: 0 hr 56 min 25 sec) 
Heartbeat CPU 0 instructions: 97000003 cycles: 96599147 heartbeat IPC: 0.473072 cumulative IPC: 0.698924 (Simulation time: 0 hr 57 min 10 sec) 
Heartbeat CPU 0 instructions: 98000002 cycles: 102250444 heartbeat IPC: 0.17695 cumulative IPC: 0.658459 (Simulation time: 0 hr 58 min 32 sec) 
Heartbeat CPU 0 instructions: 99000000 cycles: 105236329 heartbeat IPC: 0.334908 cumulative IPC: 0.645728 (Simulation time: 0 hr 59 min 34 sec) 
Heartbeat CPU 0 instructions: 100000000 cycles: 106917818 heartbeat IPC: 0.594711 cumulative IPC: 0.644622 (Simulation time: 1 hr 0 min 11 sec) 
Heartbeat CPU 0 instructions: 101000002 cycles: 108178400 heartbeat IPC: 0.793286 cumulative IPC: 0.646999 (Simulation time: 1 hr 0 min 37 sec) 
Heartbeat CPU 0 instructions: 102000003 cycles: 109481185 heartbeat IPC: 0.767587 cumulative IPC: 0.64896 (Simulation time: 1 hr 1 min 9 sec) 
Heartbeat CPU 0 instructions: 103000002 cycles: 110824224 heartbeat IPC: 0.744579 cumulative IPC: 0.650536 (Simulation time: 1 hr 1 min 42 sec) 
Heartbeat CPU 0 instructions: 104000000 cycles: 112308226 heartbeat IPC: 0.673852 cumulative IPC: 0.650953 (Simulation time: 1 hr 2 min 14 sec) 
Heartbeat CPU 0 instructions: 105000001 cycles: 113835520 heartbeat IPC: 0.654753 cumulative IPC: 0.651022 (Simulation time: 1 hr 2 min 47 sec) 
Heartbeat CPU 0 instructions: 106000001 cycles: 115376828 heartbeat IPC: 0.6488 cumulative IPC: 0.650982 (Simulation time: 1 hr 3 min 21 sec) 
Heartbeat CPU 0 instructions: 107000001 cycles: 116918323 heartbeat IPC: 0.648721 cumulative IPC: 0.650942 (Simulation time: 1 hr 3 min 54 sec) 
Heartbeat CPU 0 instructions: 108000000 cycles: 118468211 heartbeat IPC: 0.645207 cumulative IPC: 0.650842 (Simulation time: 1 hr 4 min 27 sec) 
Heartbeat CPU 0 instructions: 109000001 cycles: 119993002 heartbeat IPC: 0.655828 cumulative IPC: 0.650926 (Simulation time: 1 hr 5 min 0 sec) 
Heartbeat CPU 0 instructions: 110000001 cycles: 121536736 heartbeat IPC: 0.64778 cumulative IPC: 0.650874 (Simulation time: 1 hr 5 min 33 sec) 
Heartbeat CPU 0 instructions: 111000003 cycles: 123070737 heartbeat IPC: 0.651891 cumulative IPC: 0.65089 (Simulation time: 1 hr 6 min 4 sec) 
Heartbeat CPU 0 instructions: 112000000 cycles: 124618166 heartbeat IPC: 0.646231 cumulative IPC: 0.650815 (Simulation time: 1 hr 6 min 36 sec) 
Heartbeat CPU 0 instructions: 113000002 cycles: 126255710 heartbeat IPC: 0.610672 cumulative IPC: 0.650136 (Simulation time: 1 hr 7 min 10 sec) 
Heartbeat CPU 0 instructions: 114000002 cycles: 128665931 heartbeat IPC: 0.4149 cumulative IPC: 0.644427 (Simulation time: 1 hr 7 min 51 sec) 
Heartbeat CPU 0 instructions: 115000001 cycles: 131075626 heartbeat IPC: 0.41499 cumulative IPC: 0.638992 (Simulation time: 1 hr 8 min 30 sec) 
Heartbeat CPU 0 instructions: 116000000 cycles: 133538604 heartbeat IPC: 0.406012 cumulative IPC: 0.633484 (Simulation time: 1 hr 9 min 10 sec) 
Heartbeat CPU 0 instructions: 117000003 cycles: 135983407 heartbeat IPC: 0.409032 cumulative IPC: 0.628338 (Simulation time: 1 hr 9 min 46 sec) 
Heartbeat CPU 0 instructions: 118000000 cycles: 138423624 heartbeat IPC: 0.409798 cumulative IPC: 0.623449 (Simulation time: 1 hr 10 min 26 sec) 
Heartbeat CPU 0 instructions: 119000000 cycles: 140792286 heartbeat IPC: 0.422179 cumulative IPC: 0.619171 (Simulation time: 1 hr 11 min 7 sec) 
Heartbeat CPU 0 instructions: 120000000 cycles: 143230494 heartbeat IPC: 0.410137 cumulative IPC: 0.614695 (Simulation time: 1 hr 11 min 48 sec) 
Heartbeat CPU 0 instructions: 121000001 cycles: 145627731 heartbeat IPC: 0.417147 cumulative IPC: 0.610622 (Simulation time: 1 hr 12 min 28 sec) 
Heartbeat CPU 0 instructions: 122000000 cycles: 148014380 heartbeat IPC: 0.418997 cumulative IPC: 0.606768 (Simulation time: 1 hr 13 min 4 sec) 
Heartbeat CPU 0 instructions: 123000003 cycles: 149381186 heartbeat IPC: 0.731635 cumulative IPC: 0.60819 (Simulation time: 1 hr 13 min 36 sec) 
Heartbeat CPU 0 instructions: 124000000 cycles: 150506867 heartbeat IPC: 0.888348 cumulative IPC: 0.610793 (Simulation time: 1 hr 14 min 4 sec) 
Heartbeat CPU 0 instructions: 125000000 cycles: 151607219 heartbeat IPC: 0.9088 cumulative IPC: 0.613476 (Simulation time: 1 hr 14 min 33 sec) 
Heartbeat CPU 0 instructions: 126000001 cycles: 152701477 heartbeat IPC: 0.913862 cumulative IPC: 0.61614 (Simulation time: 1 hr 15 min 2 sec) 
Heartbeat CPU 0 instructions: 127000002 cycles: 153718024 heartbeat IPC: 0.983723 cumulative IPC: 0.619145 (Simulation time: 1 hr 15 min 30 sec) 
Heartbeat CPU 0 instructions: 128000000 cycles: 154737333 heartbeat IPC: 0.981055 cumulative IPC: 0.622087 (Simulation time: 1 hr 15 min 56 sec) 
Heartbeat CPU 0 instructions: 129000002 cycles: 155819068 heartbeat IPC: 0.924443 cumulative IPC: 0.624673 (Simulation time: 1 hr 16 min 25 sec) 
Heartbeat CPU 0 instructions: 130000001 cycles: 156898508 heartbeat IPC: 0.926405 cumulative IPC: 0.627227 (Simulation time: 1 hr 16 min 49 sec) 
Heartbeat CPU 0 instructions: 131000000 cycles: 157955415 heartbeat IPC: 0.946156 cumulative IPC: 0.629848 (Simulation time: 1 hr 17 min 15 sec) 
Heartbeat CPU 0 instructions: 132000000 cycles: 159015273 heartbeat IPC: 0.943523 cumulative IPC: 0.632412 (Simulation time: 1 hr 17 min 42 sec) 
Heartbeat CPU 0 instructions: 133000001 cycles: 160082006 heartbeat IPC: 0.937443 cumulative IPC: 0.634901 (Simulation time: 1 hr 18 min 4 sec) 
Heartbeat CPU 0 instructions: 134000000 cycles: 161155682 heartbeat IPC: 0.931379 cumulative IPC: 0.637316 (Simulation time: 1 hr 18 min 27 sec) 
Heartbeat CPU 0 instructions: 135000002 cycles: 162206891 heartbeat IPC: 0.951288 cumulative IPC: 0.6398 (Simulation time: 1 hr 18 min 50 sec) 
Heartbeat CPU 0 instructions: 136000000 cycles: 163260529 heartbeat IPC: 0.949091 cumulative IPC: 0.642234 (Simulation time: 1 hr 19 min 13 sec) 
Heartbeat CPU 0 instructions: 137000001 cycles: 164329623 heartbeat IPC: 0.935372 cumulative IPC: 0.644556 (Simulation time: 1 hr 19 min 35 sec) 
Heartbeat CPU 0 instructions: 138000002 cycles: 165398572 heartbeat IPC: 0.935499 cumulative IPC: 0.646842 (Simulation time: 1 hr 19 min 57 sec) 
Heartbeat CPU 0 instructions: 139000001 cycles: 166478241 heartbeat IPC: 0.926209 cumulative IPC: 0.649041 (Simulation time: 1 hr 20 min 19 sec) 
Heartbeat CPU 0 instructions: 140000000 cycles: 167562754 heartbeat IPC: 0.922072 cumulative IPC: 0.651184 (Simulation time: 1 hr 20 min 43 sec) 
Heartbeat CPU 0 instructions: 141000001 cycles: 168631949 heartbeat IPC: 0.935284 cumulative IPC: 0.653365 (Simulation time: 1 hr 21 min 7 sec) 
Heartbeat CPU 0 instructions: 142000003 cycles: 169708366 heartbeat IPC: 0.92901 cumulative IPC: 0.655479 (Simulation time: 1 hr 21 min 27 sec) 
Heartbeat CPU 0 instructions: 143000003 cycles: 170766011 heartbeat IPC: 0.945497 cumulative IPC: 0.657648 (Simulation time: 1 hr 21 min 46 sec) 
Heartbeat CPU 0 instructions: 144000000 cycles: 171829831 heartbeat IPC: 0.940006 cumulative IPC: 0.659756 (Simulation time: 1 hr 22 min 7 sec) 
Heartbeat CPU 0 instructions: 145000000 cycles: 172891574 heartbeat IPC: 0.941848 cumulative IPC: 0.661843 (Simulation time: 1 hr 22 min 24 sec) 
Heartbeat CPU 0 instructions: 146000003 cycles: 173969402 heartbeat IPC: 0.927795 cumulative IPC: 0.663825 (Simulation time: 1 hr 22 min 43 sec) 
Heartbeat CPU 0 instructions: 147000001 cycles: 175041014 heartbeat IPC: 0.933172 cumulative IPC: 0.665806 (Simulation time: 1 hr 23 min 0 sec) 
Heartbeat CPU 0 instructions: 148000000 cycles: 176107204 heartbeat IPC: 0.937918 cumulative IPC: 0.667783 (Simulation time: 1 hr 23 min 17 sec) 
Heartbeat CPU 0 instructions: 149000000 cycles: 177172948 heartbeat IPC: 0.938312 cumulative IPC: 0.669733 (Simulation time: 1 hr 23 min 33 sec) 
Heartbeat CPU 0 instructions: 150000003 cycles: 178247048 heartbeat IPC: 0.931015 cumulative IPC: 0.671618 (Simulation time: 1 hr 23 min 49 sec) 
Finished CPU 0 instructions: 100000000 cycles: 148894100 cummulative IPC: 0.671618 (Simulation time: 1 hr 23 min 49 sec) 

ChampSim completed all CPUs

Region of Interest Statistics

CPU 0 cummulative IPC: 0.671618 instructions: 100000000 cycles: 148894100
LLC TOTAL     ACCESS:    4046656  HIT:     825313  MISS:    3221343
LLC LOAD      ACCESS:     357072  HIT:      72400  MISS:     284672
LLC RFO       ACCESS:     704663  HIT:      54277  MISS:     650386
LLC PREFETCH  ACCESS:    2008330  HIT:     304460  MISS:    1703870
LLC WRITEBACK ACCESS:     976591  HIT:     394176  MISS:     582415
OPTgen accesses: 23732
OPTgen hits: 9362
OPTgen hit rate: 39.4488


