
*** ChampSim Multicore Out-of-Order Simulator ***

Warmup Instructions: 50000000
Simulation Instructions: 100000000
Configuration: 2
Number of CPUs: 1
LLC sets: 2048
LLC ways: 16
Off-chip DRAM Channels: 1 Width: 64-bit Data Rate: 1600 MT/s

CPU 0 runs /datasets/cs240c-wi22-a00-public/data/Assignment2-gz/libquantum_1735B.trace.gz
CPU 0 L1D next line prefetcher
CPU 0 L2C IP-based stride prefetcher
Initialize Hawkeye state
Heartbeat CPU 0 instructions: 1000001 cycles: 333341 heartbeat IPC: 2.99993 cumulative IPC: 2.99993 (Simulation time: 0 hr 0 min 25 sec) 
Heartbeat CPU 0 instructions: 2000000 cycles: 666674 heartbeat IPC: 3 cumulative IPC: 2.99997 (Simulation time: 0 hr 0 min 45 sec) 
Heartbeat CPU 0 instructions: 3000000 cycles: 989045 heartbeat IPC: 3.10202 cumulative IPC: 3.03323 (Simulation time: 0 hr 1 min 3 sec) 
Heartbeat CPU 0 instructions: 4000000 cycles: 1290770 heartbeat IPC: 3.31428 cumulative IPC: 3.09893 (Simulation time: 0 hr 1 min 24 sec) 
Heartbeat CPU 0 instructions: 5000001 cycles: 1592495 heartbeat IPC: 3.31428 cumulative IPC: 3.13973 (Simulation time: 0 hr 1 min 41 sec) 
Heartbeat CPU 0 instructions: 6000001 cycles: 1894219 heartbeat IPC: 3.31429 cumulative IPC: 3.16753 (Simulation time: 0 hr 1 min 59 sec) 
Heartbeat CPU 0 instructions: 7000002 cycles: 2195942 heartbeat IPC: 3.3143 cumulative IPC: 3.1877 (Simulation time: 0 hr 2 min 19 sec) 
Heartbeat CPU 0 instructions: 8000000 cycles: 2501897 heartbeat IPC: 3.26845 cumulative IPC: 3.19757 (Simulation time: 0 hr 2 min 40 sec) 
Heartbeat CPU 0 instructions: 9000000 cycles: 2835230 heartbeat IPC: 3 cumulative IPC: 3.17435 (Simulation time: 0 hr 3 min 0 sec) 
Heartbeat CPU 0 instructions: 10000002 cycles: 3168564 heartbeat IPC: 3 cumulative IPC: 3.156 (Simulation time: 0 hr 3 min 19 sec) 
Heartbeat CPU 0 instructions: 11000001 cycles: 3501897 heartbeat IPC: 3 cumulative IPC: 3.14116 (Simulation time: 0 hr 3 min 35 sec) 
Heartbeat CPU 0 instructions: 12000000 cycles: 3835230 heartbeat IPC: 3 cumulative IPC: 3.12889 (Simulation time: 0 hr 3 min 51 sec) 
Heartbeat CPU 0 instructions: 13000000 cycles: 4159530 heartbeat IPC: 3.08356 cumulative IPC: 3.12535 (Simulation time: 0 hr 4 min 8 sec) 
Heartbeat CPU 0 instructions: 14000002 cycles: 4471102 heartbeat IPC: 3.20954 cumulative IPC: 3.13122 (Simulation time: 0 hr 4 min 26 sec) 
Heartbeat CPU 0 instructions: 15000000 cycles: 4782674 heartbeat IPC: 3.20952 cumulative IPC: 3.13632 (Simulation time: 0 hr 4 min 44 sec) 
Heartbeat CPU 0 instructions: 16000000 cycles: 5094247 heartbeat IPC: 3.20952 cumulative IPC: 3.1408 (Simulation time: 0 hr 5 min 3 sec) 
Heartbeat CPU 0 instructions: 17000000 cycles: 5405820 heartbeat IPC: 3.20952 cumulative IPC: 3.14476 (Simulation time: 0 hr 5 min 20 sec) 
Heartbeat CPU 0 instructions: 18000001 cycles: 5725379 heartbeat IPC: 3.12932 cumulative IPC: 3.1439 (Simulation time: 0 hr 5 min 37 sec) 
Heartbeat CPU 0 instructions: 19000000 cycles: 6058712 heartbeat IPC: 3 cumulative IPC: 3.13598 (Simulation time: 0 hr 5 min 55 sec) 
Heartbeat CPU 0 instructions: 20000000 cycles: 6392046 heartbeat IPC: 2.99999 cumulative IPC: 3.12889 (Simulation time: 0 hr 6 min 13 sec) 
Heartbeat CPU 0 instructions: 21000001 cycles: 6725379 heartbeat IPC: 3.00001 cumulative IPC: 3.1225 (Simulation time: 0 hr 6 min 31 sec) 
Heartbeat CPU 0 instructions: 22000000 cycles: 7058712 heartbeat IPC: 3 cumulative IPC: 3.11672 (Simulation time: 0 hr 6 min 48 sec) 
Heartbeat CPU 0 instructions: 23000001 cycles: 7377935 heartbeat IPC: 3.13261 cumulative IPC: 3.1174 (Simulation time: 0 hr 7 min 5 sec) 
Heartbeat CPU 0 instructions: 24000000 cycles: 7689508 heartbeat IPC: 3.20952 cumulative IPC: 3.12114 (Simulation time: 0 hr 7 min 24 sec) 
Heartbeat CPU 0 instructions: 25000002 cycles: 8001081 heartbeat IPC: 3.20953 cumulative IPC: 3.12458 (Simulation time: 0 hr 7 min 41 sec) 
Heartbeat CPU 0 instructions: 26000000 cycles: 8312653 heartbeat IPC: 3.20952 cumulative IPC: 3.12776 (Simulation time: 0 hr 8 min 4 sec) 
Heartbeat CPU 0 instructions: 27000003 cycles: 8624226 heartbeat IPC: 3.20953 cumulative IPC: 3.13072 (Simulation time: 0 hr 8 min 24 sec) 
Heartbeat CPU 0 instructions: 28000000 cycles: 8948866 heartbeat IPC: 3.08033 cumulative IPC: 3.12889 (Simulation time: 0 hr 8 min 43 sec) 
Heartbeat CPU 0 instructions: 29000000 cycles: 9282199 heartbeat IPC: 3 cumulative IPC: 3.12426 (Simulation time: 0 hr 8 min 59 sec) 
Heartbeat CPU 0 instructions: 30000001 cycles: 9615533 heartbeat IPC: 3 cumulative IPC: 3.11995 (Simulation time: 0 hr 9 min 18 sec) 
Heartbeat CPU 0 instructions: 31000000 cycles: 9948866 heartbeat IPC: 3 cumulative IPC: 3.11593 (Simulation time: 0 hr 9 min 37 sec) 
Heartbeat CPU 0 instructions: 32000000 cycles: 10282200 heartbeat IPC: 2.99999 cumulative IPC: 3.11217 (Simulation time: 0 hr 9 min 55 sec) 
Heartbeat CPU 0 instructions: 33000003 cycles: 10587669 heartbeat IPC: 3.27366 cumulative IPC: 3.11683 (Simulation time: 0 hr 10 min 14 sec) 
Heartbeat CPU 0 instructions: 34000002 cycles: 10889391 heartbeat IPC: 3.31431 cumulative IPC: 3.12231 (Simulation time: 0 hr 10 min 33 sec) 
Heartbeat CPU 0 instructions: 35000002 cycles: 11191114 heartbeat IPC: 3.3143 cumulative IPC: 3.12748 (Simulation time: 0 hr 10 min 51 sec) 
Heartbeat CPU 0 instructions: 36000000 cycles: 11492840 heartbeat IPC: 3.31426 cumulative IPC: 3.13239 (Simulation time: 0 hr 11 min 6 sec) 
Heartbeat CPU 0 instructions: 37000002 cycles: 11794564 heartbeat IPC: 3.31429 cumulative IPC: 3.13704 (Simulation time: 0 hr 11 min 23 sec) 
Heartbeat CPU 0 instructions: 38000003 cycles: 12117424 heartbeat IPC: 3.09732 cumulative IPC: 3.13598 (Simulation time: 0 hr 11 min 41 sec) 
Heartbeat CPU 0 instructions: 39000002 cycles: 12450757 heartbeat IPC: 3 cumulative IPC: 3.13234 (Simulation time: 0 hr 12 min 1 sec) 
Heartbeat CPU 0 instructions: 40000000 cycles: 12784090 heartbeat IPC: 3 cumulative IPC: 3.12889 (Simulation time: 0 hr 12 min 18 sec) 
Heartbeat CPU 0 instructions: 41000000 cycles: 13117423 heartbeat IPC: 3 cumulative IPC: 3.12561 (Simulation time: 0 hr 12 min 36 sec) 
Heartbeat CPU 0 instructions: 42000001 cycles: 13450757 heartbeat IPC: 3 cumulative IPC: 3.1225 (Simulation time: 0 hr 12 min 54 sec) 
Heartbeat CPU 0 instructions: 43000003 cycles: 13754059 heartbeat IPC: 3.29705 cumulative IPC: 3.12635 (Simulation time: 0 hr 13 min 12 sec) 
Heartbeat CPU 0 instructions: 44000000 cycles: 14055784 heartbeat IPC: 3.31427 cumulative IPC: 3.13038 (Simulation time: 0 hr 13 min 30 sec) 
Heartbeat CPU 0 instructions: 45000000 cycles: 14357508 heartbeat IPC: 3.31429 cumulative IPC: 3.13425 (Simulation time: 0 hr 13 min 48 sec) 
Heartbeat CPU 0 instructions: 46000002 cycles: 14659231 heartbeat IPC: 3.3143 cumulative IPC: 3.13795 (Simulation time: 0 hr 14 min 7 sec) 
Heartbeat CPU 0 instructions: 47000002 cycles: 14960955 heartbeat IPC: 3.31429 cumulative IPC: 3.14151 (Simulation time: 0 hr 14 min 25 sec) 
Heartbeat CPU 0 instructions: 48000000 cycles: 15285989 heartbeat IPC: 3.0766 cumulative IPC: 3.14013 (Simulation time: 0 hr 14 min 43 sec) 
Heartbeat CPU 0 instructions: 49000002 cycles: 15619323 heartbeat IPC: 3 cumulative IPC: 3.13714 (Simulation time: 0 hr 15 min 3 sec) 
Heartbeat CPU 0 instructions: 50000001 cycles: 15952656 heartbeat IPC: 3 cumulative IPC: 3.13427 (Simulation time: 0 hr 15 min 20 sec) 

Warmup complete CPU 0 instructions: 50000001 cycles: 15952656 (Simulation time: 0 hr 15 min 20 sec) 

Heartbeat CPU 0 instructions: 51000000 cycles: 17472253 heartbeat IPC: 0.658069 cumulative IPC: 0.658069 (Simulation time: 0 hr 15 min 50 sec) 
Heartbeat CPU 0 instructions: 52000000 cycles: 18991927 heartbeat IPC: 0.658036 cumulative IPC: 0.658052 (Simulation time: 0 hr 16 min 22 sec) 
Heartbeat CPU 0 instructions: 53000002 cycles: 20511829 heartbeat IPC: 0.657938 cumulative IPC: 0.658014 (Simulation time: 0 hr 16 min 52 sec) 
Heartbeat CPU 0 instructions: 54000001 cycles: 21999880 heartbeat IPC: 0.672019 cumulative IPC: 0.661461 (Simulation time: 0 hr 17 min 23 sec) 
Heartbeat CPU 0 instructions: 55000000 cycles: 23519532 heartbeat IPC: 0.658045 cumulative IPC: 0.660775 (Simulation time: 0 hr 17 min 54 sec) 
Heartbeat CPU 0 instructions: 56000000 cycles: 25039001 heartbeat IPC: 0.658125 cumulative IPC: 0.660331 (Simulation time: 0 hr 18 min 25 sec) 
Heartbeat CPU 0 instructions: 57000000 cycles: 26558594 heartbeat IPC: 0.658071 cumulative IPC: 0.660008 (Simulation time: 0 hr 18 min 55 sec) 
Heartbeat CPU 0 instructions: 58000002 cycles: 28078065 heartbeat IPC: 0.658125 cumulative IPC: 0.659772 (Simulation time: 0 hr 19 min 27 sec) 
Heartbeat CPU 0 instructions: 59000001 cycles: 29445248 heartbeat IPC: 0.73143 cumulative IPC: 0.667033 (Simulation time: 0 hr 19 min 58 sec) 
Heartbeat CPU 0 instructions: 60000000 cycles: 30632738 heartbeat IPC: 0.842112 cumulative IPC: 0.681195 (Simulation time: 0 hr 20 min 34 sec) 
Heartbeat CPU 0 instructions: 61000003 cycles: 32116653 heartbeat IPC: 0.673895 cumulative IPC: 0.680525 (Simulation time: 0 hr 21 min 4 sec) 
Heartbeat CPU 0 instructions: 62000002 cycles: 33636125 heartbeat IPC: 0.658123 cumulative IPC: 0.6786 (Simulation time: 0 hr 21 min 33 sec) 
Heartbeat CPU 0 instructions: 63000001 cycles: 35155669 heartbeat IPC: 0.658091 cumulative IPC: 0.676977 (Simulation time: 0 hr 22 min 2 sec) 
Heartbeat CPU 0 instructions: 64000000 cycles: 36675133 heartbeat IPC: 0.658126 cumulative IPC: 0.675595 (Simulation time: 0 hr 22 min 31 sec) 
Heartbeat CPU 0 instructions: 65000001 cycles: 38194621 heartbeat IPC: 0.658117 cumulative IPC: 0.674401 (Simulation time: 0 hr 23 min 5 sec) 
Heartbeat CPU 0 instructions: 66000000 cycles: 39714184 heartbeat IPC: 0.658083 cumulative IPC: 0.673357 (Simulation time: 0 hr 23 min 41 sec) 
Heartbeat CPU 0 instructions: 67000001 cycles: 41211248 heartbeat IPC: 0.667975 cumulative IPC: 0.673038 (Simulation time: 0 hr 24 min 14 sec) 
Heartbeat CPU 0 instructions: 68000000 cycles: 42703371 heartbeat IPC: 0.670185 cumulative IPC: 0.672879 (Simulation time: 0 hr 24 min 47 sec) 
Heartbeat CPU 0 instructions: 69000002 cycles: 44195518 heartbeat IPC: 0.670177 cumulative IPC: 0.672736 (Simulation time: 0 hr 25 min 18 sec) 
Heartbeat CPU 0 instructions: 70000001 cycles: 45687739 heartbeat IPC: 0.670141 cumulative IPC: 0.672606 (Simulation time: 0 hr 25 min 48 sec) 
Heartbeat CPU 0 instructions: 71000003 cycles: 47238372 heartbeat IPC: 0.644899 cumulative IPC: 0.671233 (Simulation time: 0 hr 26 min 22 sec) 
Heartbeat CPU 0 instructions: 72000000 cycles: 49517532 heartbeat IPC: 0.438757 cumulative IPC: 0.655447 (Simulation time: 0 hr 26 min 51 sec) 
Heartbeat CPU 0 instructions: 73000000 cycles: 51749775 heartbeat IPC: 0.44798 cumulative IPC: 0.64251 (Simulation time: 0 hr 27 min 17 sec) 
Heartbeat CPU 0 instructions: 74000000 cycles: 54036312 heartbeat IPC: 0.437343 cumulative IPC: 0.630192 (Simulation time: 0 hr 27 min 46 sec) 
Heartbeat CPU 0 instructions: 75000000 cycles: 56331592 heartbeat IPC: 0.435677 cumulative IPC: 0.619135 (Simulation time: 0 hr 28 min 14 sec) 
Heartbeat CPU 0 instructions: 76000000 cycles: 58641679 heartbeat IPC: 0.432884 cumulative IPC: 0.609056 (Simulation time: 0 hr 28 min 41 sec) 
Heartbeat CPU 0 instructions: 77000001 cycles: 60274392 heartbeat IPC: 0.612478 cumulative IPC: 0.609182 (Simulation time: 0 hr 29 min 10 sec) 
Heartbeat CPU 0 instructions: 78000000 cycles: 61770793 heartbeat IPC: 0.668269 cumulative IPC: 0.611112 (Simulation time: 0 hr 29 min 44 sec) 
Heartbeat CPU 0 instructions: 79000001 cycles: 62823654 heartbeat IPC: 0.949794 cumulative IPC: 0.61872 (Simulation time: 0 hr 30 min 15 sec) 
Heartbeat CPU 0 instructions: 80000000 cycles: 64270152 heartbeat IPC: 0.691324 cumulative IPC: 0.620893 (Simulation time: 0 hr 30 min 50 sec) 
Heartbeat CPU 0 instructions: 81000002 cycles: 65870639 heartbeat IPC: 0.624811 cumulative IPC: 0.621019 (Simulation time: 0 hr 31 min 20 sec) 
Heartbeat CPU 0 instructions: 82000003 cycles: 68126365 heartbeat IPC: 0.443317 cumulative IPC: 0.613336 (Simulation time: 0 hr 31 min 46 sec) 
Heartbeat CPU 0 instructions: 83000000 cycles: 70415503 heartbeat IPC: 0.436844 cumulative IPC: 0.605918 (Simulation time: 0 hr 32 min 13 sec) 
Heartbeat CPU 0 instructions: 84000000 cycles: 72698938 heartbeat IPC: 0.437937 cumulative IPC: 0.599158 (Simulation time: 0 hr 32 min 41 sec) 
Heartbeat CPU 0 instructions: 85000002 cycles: 75000809 heartbeat IPC: 0.43443 cumulative IPC: 0.592737 (Simulation time: 0 hr 33 min 8 sec) 
Heartbeat CPU 0 instructions: 86000002 cycles: 77301981 heartbeat IPC: 0.434561 cumulative IPC: 0.586804 (Simulation time: 0 hr 33 min 34 sec) 
Heartbeat CPU 0 instructions: 87000002 cycles: 78961790 heartbeat IPC: 0.602479 cumulative IPC: 0.587216 (Simulation time: 0 hr 34 min 6 sec) 
Heartbeat CPU 0 instructions: 88000000 cycles: 80534884 heartbeat IPC: 0.635689 cumulative IPC: 0.588397 (Simulation time: 0 hr 34 min 42 sec) 
Heartbeat CPU 0 instructions: 89000000 cycles: 82108052 heartbeat IPC: 0.63566 cumulative IPC: 0.589521 (Simulation time: 0 hr 35 min 20 sec) 
Heartbeat CPU 0 instructions: 90000000 cycles: 84046507 heartbeat IPC: 0.515875 cumulative IPC: 0.587425 (Simulation time: 0 hr 35 min 51 sec) 
Heartbeat CPU 0 instructions: 91000001 cycles: 86949139 heartbeat IPC: 0.344515 cumulative IPC: 0.577493 (Simulation time: 0 hr 36 min 20 sec) 
Heartbeat CPU 0 instructions: 92000000 cycles: 89864402 heartbeat IPC: 0.343022 cumulative IPC: 0.568245 (Simulation time: 0 hr 36 min 51 sec) 
Heartbeat CPU 0 instructions: 93000001 cycles: 92799879 heartbeat IPC: 0.34066 cumulative IPC: 0.559552 (Simulation time: 0 hr 37 min 19 sec) 
Heartbeat CPU 0 instructions: 94000001 cycles: 95515873 heartbeat IPC: 0.368189 cumulative IPC: 0.553019 (Simulation time: 0 hr 38 min 0 sec) 
Heartbeat CPU 0 instructions: 95000000 cycles: 97092559 heartbeat IPC: 0.634241 cumulative IPC: 0.554598 (Simulation time: 0 hr 38 min 39 sec) 
Heartbeat CPU 0 instructions: 96000000 cycles: 98629592 heartbeat IPC: 0.650604 cumulative IPC: 0.556382 (Simulation time: 0 hr 39 min 17 sec) 
Heartbeat CPU 0 instructions: 97000002 cycles: 100199506 heartbeat IPC: 0.636979 cumulative IPC: 0.557884 (Simulation time: 0 hr 39 min 49 sec) 
Heartbeat CPU 0 instructions: 98000001 cycles: 102387397 heartbeat IPC: 0.457061 cumulative IPC: 0.555332 (Simulation time: 0 hr 40 min 22 sec) 
Heartbeat CPU 0 instructions: 99000003 cycles: 105285595 heartbeat IPC: 0.345043 cumulative IPC: 0.54851 (Simulation time: 0 hr 40 min 55 sec) 
Heartbeat CPU 0 instructions: 100000000 cycles: 108171106 heartbeat IPC: 0.346558 cumulative IPC: 0.542191 (Simulation time: 0 hr 41 min 25 sec) 
Heartbeat CPU 0 instructions: 101000000 cycles: 111073762 heartbeat IPC: 0.344512 cumulative IPC: 0.536159 (Simulation time: 0 hr 41 min 54 sec) 
Heartbeat CPU 0 instructions: 102000000 cycles: 113114040 heartbeat IPC: 0.490129 cumulative IPC: 0.535192 (Simulation time: 0 hr 42 min 22 sec) 
Heartbeat CPU 0 instructions: 103000002 cycles: 114469839 heartbeat IPC: 0.737574 cumulative IPC: 0.537977 (Simulation time: 0 hr 42 min 53 sec) 
Heartbeat CPU 0 instructions: 104000000 cycles: 115940775 heartbeat IPC: 0.679838 cumulative IPC: 0.540064 (Simulation time: 0 hr 43 min 24 sec) 
Heartbeat CPU 0 instructions: 105000000 cycles: 117411656 heartbeat IPC: 0.679865 cumulative IPC: 0.542091 (Simulation time: 0 hr 43 min 53 sec) 
Heartbeat CPU 0 instructions: 106000003 cycles: 118882615 heartbeat IPC: 0.679831 cumulative IPC: 0.544059 (Simulation time: 0 hr 44 min 24 sec) 
Heartbeat CPU 0 instructions: 107000000 cycles: 121071382 heartbeat IPC: 0.456877 cumulative IPC: 0.542244 (Simulation time: 0 hr 44 min 50 sec) 
Heartbeat CPU 0 instructions: 108000000 cycles: 123614765 heartbeat IPC: 0.393177 cumulative IPC: 0.538723 (Simulation time: 0 hr 45 min 16 sec) 
Heartbeat CPU 0 instructions: 109000002 cycles: 126198007 heartbeat IPC: 0.387111 cumulative IPC: 0.53517 (Simulation time: 0 hr 45 min 41 sec) 
Heartbeat CPU 0 instructions: 110000002 cycles: 128780483 heartbeat IPC: 0.387225 cumulative IPC: 0.531784 (Simulation time: 0 hr 46 min 7 sec) 
Heartbeat CPU 0 instructions: 111000001 cycles: 131379442 heartbeat IPC: 0.384769 cumulative IPC: 0.528473 (Simulation time: 0 hr 46 min 32 sec) 
Heartbeat CPU 0 instructions: 112000000 cycles: 133321015 heartbeat IPC: 0.515046 cumulative IPC: 0.528251 (Simulation time: 0 hr 46 min 58 sec) 
Heartbeat CPU 0 instructions: 113000002 cycles: 134821842 heartbeat IPC: 0.666301 cumulative IPC: 0.529994 (Simulation time: 0 hr 47 min 26 sec) 
Heartbeat CPU 0 instructions: 114000001 cycles: 136274201 heartbeat IPC: 0.688534 cumulative IPC: 0.531908 (Simulation time: 0 hr 47 min 56 sec) 
Heartbeat CPU 0 instructions: 115000000 cycles: 137747717 heartbeat IPC: 0.678648 cumulative IPC: 0.533683 (Simulation time: 0 hr 48 min 26 sec) 
Heartbeat CPU 0 instructions: 116000000 cycles: 139244696 heartbeat IPC: 0.668012 cumulative IPC: 0.535314 (Simulation time: 0 hr 48 min 59 sec) 
Heartbeat CPU 0 instructions: 117000000 cycles: 141852827 heartbeat IPC: 0.383416 cumulative IPC: 0.532168 (Simulation time: 0 hr 49 min 26 sec) 
Heartbeat CPU 0 instructions: 118000001 cycles: 144621442 heartbeat IPC: 0.361192 cumulative IPC: 0.528489 (Simulation time: 0 hr 49 min 48 sec) 
Heartbeat CPU 0 instructions: 119000001 cycles: 147392792 heartbeat IPC: 0.360835 cumulative IPC: 0.524954 (Simulation time: 0 hr 50 min 12 sec) 
Heartbeat CPU 0 instructions: 120000000 cycles: 150169088 heartbeat IPC: 0.360192 cumulative IPC: 0.521546 (Simulation time: 0 hr 50 min 38 sec) 
Heartbeat CPU 0 instructions: 121000000 cycles: 152901099 heartbeat IPC: 0.366031 cumulative IPC: 0.518443 (Simulation time: 0 hr 51 min 0 sec) 
Heartbeat CPU 0 instructions: 122000000 cycles: 154157347 heartbeat IPC: 0.796021 cumulative IPC: 0.520966 (Simulation time: 0 hr 51 min 29 sec) 
Heartbeat CPU 0 instructions: 123000001 cycles: 155629333 heartbeat IPC: 0.679355 cumulative IPC: 0.522636 (Simulation time: 0 hr 51 min 58 sec) 
Heartbeat CPU 0 instructions: 124000000 cycles: 157095416 heartbeat IPC: 0.682089 cumulative IPC: 0.524292 (Simulation time: 0 hr 52 min 28 sec) 
Heartbeat CPU 0 instructions: 125000002 cycles: 158561849 heartbeat IPC: 0.681928 cumulative IPC: 0.525913 (Simulation time: 0 hr 53 min 4 sec) 
Heartbeat CPU 0 instructions: 126000001 cycles: 160102137 heartbeat IPC: 0.649229 cumulative IPC: 0.527231 (Simulation time: 0 hr 53 min 41 sec) 
Heartbeat CPU 0 instructions: 127000000 cycles: 162384213 heartbeat IPC: 0.438197 cumulative IPC: 0.525843 (Simulation time: 0 hr 54 min 10 sec) 
Heartbeat CPU 0 instructions: 128000000 cycles: 164644921 heartbeat IPC: 0.442339 cumulative IPC: 0.524573 (Simulation time: 0 hr 54 min 34 sec) 
Heartbeat CPU 0 instructions: 129000002 cycles: 166936992 heartbeat IPC: 0.436288 cumulative IPC: 0.523233 (Simulation time: 0 hr 54 min 59 sec) 
Heartbeat CPU 0 instructions: 130000003 cycles: 169235707 heartbeat IPC: 0.435026 cumulative IPC: 0.52191 (Simulation time: 0 hr 55 min 27 sec) 
Heartbeat CPU 0 instructions: 131000001 cycles: 171544733 heartbeat IPC: 0.433082 cumulative IPC: 0.520592 (Simulation time: 0 hr 55 min 53 sec) 
Heartbeat CPU 0 instructions: 132000000 cycles: 173121806 heartbeat IPC: 0.634085 cumulative IPC: 0.521731 (Simulation time: 0 hr 56 min 27 sec) 
Heartbeat CPU 0 instructions: 133000001 cycles: 174579917 heartbeat IPC: 0.68582 cumulative IPC: 0.523239 (Simulation time: 0 hr 56 min 55 sec) 
Heartbeat CPU 0 instructions: 134000000 cycles: 175996888 heartbeat IPC: 0.70573 cumulative IPC: 0.524855 (Simulation time: 0 hr 57 min 28 sec) 
Heartbeat CPU 0 instructions: 135000001 cycles: 177466983 heartbeat IPC: 0.680229 cumulative IPC: 0.526269 (Simulation time: 0 hr 57 min 57 sec) 
Heartbeat CPU 0 instructions: 136000000 cycles: 179050969 heartbeat IPC: 0.631318 cumulative IPC: 0.527289 (Simulation time: 0 hr 58 min 25 sec) 
Heartbeat CPU 0 instructions: 137000001 cycles: 181335344 heartbeat IPC: 0.437757 cumulative IPC: 0.526053 (Simulation time: 0 hr 58 min 52 sec) 
Heartbeat CPU 0 instructions: 138000001 cycles: 183644067 heartbeat IPC: 0.43314 cumulative IPC: 0.524773 (Simulation time: 0 hr 59 min 19 sec) 
Heartbeat CPU 0 instructions: 139000000 cycles: 185941737 heartbeat IPC: 0.435223 cumulative IPC: 0.523563 (Simulation time: 0 hr 59 min 45 sec) 
Heartbeat CPU 0 instructions: 140000000 cycles: 188254194 heartbeat IPC: 0.43244 cumulative IPC: 0.52234 (Simulation time: 1 hr 0 min 10 sec) 
Heartbeat CPU 0 instructions: 141000000 cycles: 190477813 heartbeat IPC: 0.449717 cumulative IPC: 0.521415 (Simulation time: 1 hr 0 min 35 sec) 
Heartbeat CPU 0 instructions: 142000002 cycles: 191617972 heartbeat IPC: 0.877072 cumulative IPC: 0.523723 (Simulation time: 1 hr 1 min 3 sec) 
Heartbeat CPU 0 instructions: 143000001 cycles: 193046824 heartbeat IPC: 0.699862 cumulative IPC: 0.525144 (Simulation time: 1 hr 1 min 36 sec) 
Heartbeat CPU 0 instructions: 144000000 cycles: 194475148 heartbeat IPC: 0.700121 cumulative IPC: 0.526544 (Simulation time: 1 hr 2 min 7 sec) 
Heartbeat CPU 0 instructions: 145000003 cycles: 195903628 heartbeat IPC: 0.700047 cumulative IPC: 0.527922 (Simulation time: 1 hr 2 min 36 sec) 
Heartbeat CPU 0 instructions: 146000002 cycles: 197331960 heartbeat IPC: 0.700117 cumulative IPC: 0.529278 (Simulation time: 1 hr 3 min 6 sec) 
Heartbeat CPU 0 instructions: 147000001 cycles: 198748287 heartbeat IPC: 0.706051 cumulative IPC: 0.530647 (Simulation time: 1 hr 3 min 35 sec) 
Heartbeat CPU 0 instructions: 148000000 cycles: 200176391 heartbeat IPC: 0.700228 cumulative IPC: 0.531962 (Simulation time: 1 hr 4 min 5 sec) 
Heartbeat CPU 0 instructions: 149000001 cycles: 201604739 heartbeat IPC: 0.70011 cumulative IPC: 0.533256 (Simulation time: 1 hr 4 min 34 sec) 
Heartbeat CPU 0 instructions: 150000000 cycles: 203033162 heartbeat IPC: 0.700072 cumulative IPC: 0.534529 (Simulation time: 1 hr 5 min 2 sec) 
Finished CPU 0 instructions: 100000002 cycles: 187080507 cummulative IPC: 0.534529 (Simulation time: 1 hr 5 min 2 sec) 

ChampSim completed all CPUs

Region of Interest Statistics

CPU 0 cummulative IPC: 0.534529 instructions: 100000002 cycles: 187080507
LLC TOTAL     ACCESS:    3739906  HIT:     133431  MISS:    3606475
LLC LOAD      ACCESS:     680089  HIT:      31838  MISS:     648251
LLC RFO       ACCESS:         20  HIT:         20  MISS:          0
LLC PREFETCH  ACCESS:    2116050  HIT:      80246  MISS:    2035804
LLC WRITEBACK ACCESS:     943747  HIT:      21327  MISS:     922420
OPTgen accesses: 11293
OPTgen hits: 9
OPTgen hit rate: 0.0796954


