
*** ChampSim Multicore Out-of-Order Simulator ***

Warmup Instructions: 50000000
Simulation Instructions: 100000000
Configuration: 2
Number of CPUs: 1
LLC sets: 2048
LLC ways: 16
Off-chip DRAM Channels: 1 Width: 64-bit Data Rate: 1600 MT/s

CPU 0 runs /datasets/cs240c-wi22-a00-public/data/Assignment2-gz/sphinx3_2520B.trace.gz
CPU 0 L1D next line prefetcher
CPU 0 L2C IP-based stride prefetcher
Initialize Hawkeye state
Heartbeat CPU 0 instructions: 1000003 cycles: 338965 heartbeat IPC: 2.95017 cumulative IPC: 2.95017 (Simulation time: 0 hr 0 min 30 sec) 
Heartbeat CPU 0 instructions: 2000000 cycles: 737242 heartbeat IPC: 2.51081 cumulative IPC: 2.71281 (Simulation time: 0 hr 0 min 58 sec) 
Heartbeat CPU 0 instructions: 3000003 cycles: 1185235 heartbeat IPC: 2.23218 cumulative IPC: 2.53115 (Simulation time: 0 hr 1 min 27 sec) 
Heartbeat CPU 0 instructions: 4000000 cycles: 1524261 heartbeat IPC: 2.94962 cumulative IPC: 2.62422 (Simulation time: 0 hr 1 min 57 sec) 
Heartbeat CPU 0 instructions: 5000001 cycles: 1902377 heartbeat IPC: 2.64469 cumulative IPC: 2.62829 (Simulation time: 0 hr 2 min 28 sec) 
Heartbeat CPU 0 instructions: 6000001 cycles: 2367797 heartbeat IPC: 2.1486 cumulative IPC: 2.534 (Simulation time: 0 hr 2 min 56 sec) 
Heartbeat CPU 0 instructions: 7000001 cycles: 2706738 heartbeat IPC: 2.95037 cumulative IPC: 2.58614 (Simulation time: 0 hr 3 min 24 sec) 
Heartbeat CPU 0 instructions: 8000000 cycles: 3055749 heartbeat IPC: 2.86524 cumulative IPC: 2.61802 (Simulation time: 0 hr 3 min 54 sec) 
Heartbeat CPU 0 instructions: 9000000 cycles: 3509130 heartbeat IPC: 2.20565 cumulative IPC: 2.56474 (Simulation time: 0 hr 4 min 23 sec) 
Heartbeat CPU 0 instructions: 10000000 cycles: 3859284 heartbeat IPC: 2.85589 cumulative IPC: 2.59115 (Simulation time: 0 hr 4 min 50 sec) 
Heartbeat CPU 0 instructions: 11000003 cycles: 4204058 heartbeat IPC: 2.90046 cumulative IPC: 2.61652 (Simulation time: 0 hr 5 min 17 sec) 
Heartbeat CPU 0 instructions: 12000000 cycles: 4648673 heartbeat IPC: 2.24913 cumulative IPC: 2.58138 (Simulation time: 0 hr 5 min 46 sec) 
Heartbeat CPU 0 instructions: 13000000 cycles: 5008268 heartbeat IPC: 2.78091 cumulative IPC: 2.59571 (Simulation time: 0 hr 6 min 15 sec) 
Heartbeat CPU 0 instructions: 14000002 cycles: 5350968 heartbeat IPC: 2.91801 cumulative IPC: 2.61635 (Simulation time: 0 hr 6 min 48 sec) 
Heartbeat CPU 0 instructions: 15000003 cycles: 5790239 heartbeat IPC: 2.2765 cumulative IPC: 2.59057 (Simulation time: 0 hr 7 min 22 sec) 
Heartbeat CPU 0 instructions: 16000000 cycles: 6157092 heartbeat IPC: 2.72588 cumulative IPC: 2.59863 (Simulation time: 0 hr 7 min 52 sec) 
Heartbeat CPU 0 instructions: 17000000 cycles: 6498500 heartbeat IPC: 2.92905 cumulative IPC: 2.61599 (Simulation time: 0 hr 8 min 23 sec) 
Heartbeat CPU 0 instructions: 18000002 cycles: 6932803 heartbeat IPC: 2.30254 cumulative IPC: 2.59635 (Simulation time: 0 hr 8 min 51 sec) 
Heartbeat CPU 0 instructions: 19000000 cycles: 7304130 heartbeat IPC: 2.69304 cumulative IPC: 2.60127 (Simulation time: 0 hr 9 min 21 sec) 
Heartbeat CPU 0 instructions: 20000000 cycles: 7645313 heartbeat IPC: 2.93098 cumulative IPC: 2.61598 (Simulation time: 0 hr 9 min 54 sec) 
Heartbeat CPU 0 instructions: 21000001 cycles: 8089609 heartbeat IPC: 2.25075 cumulative IPC: 2.59592 (Simulation time: 0 hr 10 min 26 sec) 
Heartbeat CPU 0 instructions: 22000002 cycles: 8503699 heartbeat IPC: 2.41494 cumulative IPC: 2.58711 (Simulation time: 0 hr 10 min 56 sec) 
Heartbeat CPU 0 instructions: 23000001 cycles: 8942698 heartbeat IPC: 2.27791 cumulative IPC: 2.57193 (Simulation time: 0 hr 11 min 19 sec) 
Heartbeat CPU 0 instructions: 24000000 cycles: 9281722 heartbeat IPC: 2.94964 cumulative IPC: 2.58573 (Simulation time: 0 hr 11 min 45 sec) 
Heartbeat CPU 0 instructions: 25000003 cycles: 9668436 heartbeat IPC: 2.5859 cumulative IPC: 2.58573 (Simulation time: 0 hr 12 min 12 sec) 
Heartbeat CPU 0 instructions: 26000001 cycles: 10085286 heartbeat IPC: 2.39894 cumulative IPC: 2.57801 (Simulation time: 0 hr 12 min 40 sec) 
Heartbeat CPU 0 instructions: 27000003 cycles: 10424258 heartbeat IPC: 2.9501 cumulative IPC: 2.59011 (Simulation time: 0 hr 13 min 10 sec) 
Heartbeat CPU 0 instructions: 28000000 cycles: 10827540 heartbeat IPC: 2.47965 cumulative IPC: 2.586 (Simulation time: 0 hr 13 min 44 sec) 
Heartbeat CPU 0 instructions: 29000002 cycles: 11228075 heartbeat IPC: 2.49667 cumulative IPC: 2.58281 (Simulation time: 0 hr 14 min 15 sec) 
Heartbeat CPU 0 instructions: 30000002 cycles: 11567011 heartbeat IPC: 2.95041 cumulative IPC: 2.59358 (Simulation time: 0 hr 14 min 42 sec) 
Heartbeat CPU 0 instructions: 31000000 cycles: 11988257 heartbeat IPC: 2.3739 cumulative IPC: 2.58586 (Simulation time: 0 hr 15 min 10 sec) 
Heartbeat CPU 0 instructions: 32000000 cycles: 12369606 heartbeat IPC: 2.62227 cumulative IPC: 2.58699 (Simulation time: 0 hr 15 min 41 sec) 
Heartbeat CPU 0 instructions: 33000002 cycles: 12710363 heartbeat IPC: 2.93465 cumulative IPC: 2.59631 (Simulation time: 0 hr 16 min 12 sec) 
Heartbeat CPU 0 instructions: 34000000 cycles: 13150125 heartbeat IPC: 2.27395 cumulative IPC: 2.58553 (Simulation time: 0 hr 16 min 42 sec) 
Heartbeat CPU 0 instructions: 35000001 cycles: 13511399 heartbeat IPC: 2.76798 cumulative IPC: 2.59041 (Simulation time: 0 hr 17 min 13 sec) 
Heartbeat CPU 0 instructions: 36000000 cycles: 13853747 heartbeat IPC: 2.921 cumulative IPC: 2.59857 (Simulation time: 0 hr 17 min 45 sec) 
Heartbeat CPU 0 instructions: 37000000 cycles: 14313229 heartbeat IPC: 2.17636 cumulative IPC: 2.58502 (Simulation time: 0 hr 18 min 16 sec) 
Heartbeat CPU 0 instructions: 38000000 cycles: 14653540 heartbeat IPC: 2.93849 cumulative IPC: 2.59323 (Simulation time: 0 hr 18 min 48 sec) 
Heartbeat CPU 0 instructions: 39000003 cycles: 14999879 heartbeat IPC: 2.88735 cumulative IPC: 2.60002 (Simulation time: 0 hr 19 min 18 sec) 
Heartbeat CPU 0 instructions: 40000000 cycles: 15458607 heartbeat IPC: 2.17993 cumulative IPC: 2.58756 (Simulation time: 0 hr 19 min 48 sec) 
Heartbeat CPU 0 instructions: 41000001 cycles: 15797637 heartbeat IPC: 2.94959 cumulative IPC: 2.59532 (Simulation time: 0 hr 20 min 16 sec) 
Heartbeat CPU 0 instructions: 42000003 cycles: 16145593 heartbeat IPC: 2.87393 cumulative IPC: 2.60133 (Simulation time: 0 hr 20 min 46 sec) 
Heartbeat CPU 0 instructions: 43000001 cycles: 16601837 heartbeat IPC: 2.19181 cumulative IPC: 2.59007 (Simulation time: 0 hr 21 min 14 sec) 
Heartbeat CPU 0 instructions: 44000000 cycles: 16940703 heartbeat IPC: 2.95102 cumulative IPC: 2.59729 (Simulation time: 0 hr 21 min 43 sec) 
Heartbeat CPU 0 instructions: 45000001 cycles: 17287799 heartbeat IPC: 2.88105 cumulative IPC: 2.60299 (Simulation time: 0 hr 22 min 12 sec) 
Heartbeat CPU 0 instructions: 46000000 cycles: 17745461 heartbeat IPC: 2.18502 cumulative IPC: 2.59221 (Simulation time: 0 hr 22 min 41 sec) 
Heartbeat CPU 0 instructions: 47000003 cycles: 18084445 heartbeat IPC: 2.95 cumulative IPC: 2.59892 (Simulation time: 0 hr 23 min 11 sec) 
Heartbeat CPU 0 instructions: 48000000 cycles: 18432976 heartbeat IPC: 2.86918 cumulative IPC: 2.60403 (Simulation time: 0 hr 23 min 44 sec) 
Heartbeat CPU 0 instructions: 49000002 cycles: 18887742 heartbeat IPC: 2.19894 cumulative IPC: 2.59428 (Simulation time: 0 hr 24 min 11 sec) 
Heartbeat CPU 0 instructions: 50000001 cycles: 19226721 heartbeat IPC: 2.95003 cumulative IPC: 2.60055 (Simulation time: 0 hr 24 min 41 sec) 

Warmup complete CPU 0 instructions: 50000001 cycles: 19226721 (Simulation time: 0 hr 24 min 41 sec) 

Heartbeat CPU 0 instructions: 51000001 cycles: 20043706 heartbeat IPC: 1.22401 cumulative IPC: 1.22401 (Simulation time: 0 hr 25 min 16 sec) 
Heartbeat CPU 0 instructions: 52000000 cycles: 20825952 heartbeat IPC: 1.27837 cumulative IPC: 1.2506 (Simulation time: 0 hr 25 min 48 sec) 
Heartbeat CPU 0 instructions: 53000001 cycles: 21669587 heartbeat IPC: 1.18535 cumulative IPC: 1.22807 (Simulation time: 0 hr 26 min 20 sec) 
Heartbeat CPU 0 instructions: 54000001 cycles: 22454129 heartbeat IPC: 1.27463 cumulative IPC: 1.23938 (Simulation time: 0 hr 26 min 50 sec) 
Heartbeat CPU 0 instructions: 55000000 cycles: 23231756 heartbeat IPC: 1.28596 cumulative IPC: 1.24843 (Simulation time: 0 hr 27 min 22 sec) 
Heartbeat CPU 0 instructions: 56000000 cycles: 24063870 heartbeat IPC: 1.20176 cumulative IPC: 1.2404 (Simulation time: 0 hr 27 min 58 sec) 
Heartbeat CPU 0 instructions: 57000000 cycles: 24950889 heartbeat IPC: 1.12737 cumulative IPC: 1.22289 (Simulation time: 0 hr 28 min 31 sec) 
Heartbeat CPU 0 instructions: 58000002 cycles: 26079287 heartbeat IPC: 0.886214 cumulative IPC: 1.16745 (Simulation time: 0 hr 29 min 5 sec) 
Heartbeat CPU 0 instructions: 59000001 cycles: 26879170 heartbeat IPC: 1.25018 cumulative IPC: 1.17609 (Simulation time: 0 hr 29 min 36 sec) 
Heartbeat CPU 0 instructions: 60000000 cycles: 27723925 heartbeat IPC: 1.18377 cumulative IPC: 1.17686 (Simulation time: 0 hr 30 min 11 sec) 
Heartbeat CPU 0 instructions: 61000001 cycles: 28506626 heartbeat IPC: 1.27763 cumulative IPC: 1.18536 (Simulation time: 0 hr 30 min 43 sec) 
Heartbeat CPU 0 instructions: 62000000 cycles: 29285997 heartbeat IPC: 1.28308 cumulative IPC: 1.19293 (Simulation time: 0 hr 31 min 17 sec) 
Heartbeat CPU 0 instructions: 63000002 cycles: 30101606 heartbeat IPC: 1.22608 cumulative IPC: 1.19542 (Simulation time: 0 hr 31 min 51 sec) 
Heartbeat CPU 0 instructions: 64000000 cycles: 30891101 heartbeat IPC: 1.26663 cumulative IPC: 1.20024 (Simulation time: 0 hr 32 min 23 sec) 
Heartbeat CPU 0 instructions: 65000003 cycles: 31670235 heartbeat IPC: 1.28348 cumulative IPC: 1.20545 (Simulation time: 0 hr 32 min 56 sec) 
Heartbeat CPU 0 instructions: 66000003 cycles: 32488125 heartbeat IPC: 1.22266 cumulative IPC: 1.20651 (Simulation time: 0 hr 33 min 28 sec) 
Heartbeat CPU 0 instructions: 67000003 cycles: 33309858 heartbeat IPC: 1.21694 cumulative IPC: 1.20712 (Simulation time: 0 hr 33 min 57 sec) 
Heartbeat CPU 0 instructions: 68000000 cycles: 34100155 heartbeat IPC: 1.26534 cumulative IPC: 1.21021 (Simulation time: 0 hr 34 min 27 sec) 
Heartbeat CPU 0 instructions: 69000003 cycles: 34931210 heartbeat IPC: 1.20329 cumulative IPC: 1.20985 (Simulation time: 0 hr 34 min 56 sec) 
Heartbeat CPU 0 instructions: 70000000 cycles: 35758964 heartbeat IPC: 1.20808 cumulative IPC: 1.20976 (Simulation time: 0 hr 35 min 26 sec) 
Heartbeat CPU 0 instructions: 71000002 cycles: 36571140 heartbeat IPC: 1.23126 cumulative IPC: 1.21076 (Simulation time: 0 hr 35 min 54 sec) 
Heartbeat CPU 0 instructions: 72000000 cycles: 37273935 heartbeat IPC: 1.42289 cumulative IPC: 1.21902 (Simulation time: 0 hr 36 min 22 sec) 
Heartbeat CPU 0 instructions: 73000003 cycles: 38033384 heartbeat IPC: 1.31675 cumulative IPC: 1.22297 (Simulation time: 0 hr 36 min 52 sec) 
Heartbeat CPU 0 instructions: 74000003 cycles: 38770082 heartbeat IPC: 1.35741 cumulative IPC: 1.22804 (Simulation time: 0 hr 37 min 28 sec) 
Heartbeat CPU 0 instructions: 75000002 cycles: 39545038 heartbeat IPC: 1.29039 cumulative IPC: 1.23042 (Simulation time: 0 hr 38 min 1 sec) 
Heartbeat CPU 0 instructions: 76000000 cycles: 40336760 heartbeat IPC: 1.26307 cumulative IPC: 1.23164 (Simulation time: 0 hr 38 min 33 sec) 
Heartbeat CPU 0 instructions: 77000003 cycles: 41085049 heartbeat IPC: 1.33639 cumulative IPC: 1.23523 (Simulation time: 0 hr 39 min 2 sec) 
Heartbeat CPU 0 instructions: 78000003 cycles: 41767634 heartbeat IPC: 1.46502 cumulative IPC: 1.24219 (Simulation time: 0 hr 39 min 33 sec) 
Heartbeat CPU 0 instructions: 79000003 cycles: 42538537 heartbeat IPC: 1.29718 cumulative IPC: 1.244 (Simulation time: 0 hr 40 min 2 sec) 
Heartbeat CPU 0 instructions: 80000000 cycles: 43284419 heartbeat IPC: 1.34069 cumulative IPC: 1.247 (Simulation time: 0 hr 40 min 33 sec) 
Heartbeat CPU 0 instructions: 81000001 cycles: 43973927 heartbeat IPC: 1.45031 cumulative IPC: 1.25267 (Simulation time: 0 hr 41 min 4 sec) 
Heartbeat CPU 0 instructions: 82000002 cycles: 44751898 heartbeat IPC: 1.2854 cumulative IPC: 1.25366 (Simulation time: 0 hr 41 min 33 sec) 
Heartbeat CPU 0 instructions: 83000003 cycles: 45494392 heartbeat IPC: 1.34681 cumulative IPC: 1.2563 (Simulation time: 0 hr 42 min 4 sec) 
Heartbeat CPU 0 instructions: 84000000 cycles: 46188578 heartbeat IPC: 1.44053 cumulative IPC: 1.26104 (Simulation time: 0 hr 42 min 35 sec) 
Heartbeat CPU 0 instructions: 85000001 cycles: 46970924 heartbeat IPC: 1.27821 cumulative IPC: 1.26152 (Simulation time: 0 hr 43 min 4 sec) 
Heartbeat CPU 0 instructions: 86000000 cycles: 47672856 heartbeat IPC: 1.42464 cumulative IPC: 1.26555 (Simulation time: 0 hr 43 min 33 sec) 
Heartbeat CPU 0 instructions: 87000000 cycles: 48347927 heartbeat IPC: 1.48133 cumulative IPC: 1.27055 (Simulation time: 0 hr 44 min 2 sec) 
Heartbeat CPU 0 instructions: 88000000 cycles: 49130124 heartbeat IPC: 1.27845 cumulative IPC: 1.27076 (Simulation time: 0 hr 44 min 31 sec) 
Heartbeat CPU 0 instructions: 89000000 cycles: 49820805 heartbeat IPC: 1.44785 cumulative IPC: 1.27476 (Simulation time: 0 hr 45 min 2 sec) 
Heartbeat CPU 0 instructions: 90000001 cycles: 50491863 heartbeat IPC: 1.49019 cumulative IPC: 1.27938 (Simulation time: 0 hr 45 min 33 sec) 
Heartbeat CPU 0 instructions: 91000001 cycles: 51281660 heartbeat IPC: 1.26615 cumulative IPC: 1.27905 (Simulation time: 0 hr 46 min 10 sec) 
Heartbeat CPU 0 instructions: 92000000 cycles: 51966916 heartbeat IPC: 1.45931 cumulative IPC: 1.28283 (Simulation time: 0 hr 46 min 41 sec) 
Heartbeat CPU 0 instructions: 93000002 cycles: 52640354 heartbeat IPC: 1.48492 cumulative IPC: 1.2869 (Simulation time: 0 hr 47 min 17 sec) 
Heartbeat CPU 0 instructions: 94000000 cycles: 53448491 heartbeat IPC: 1.23741 cumulative IPC: 1.28573 (Simulation time: 0 hr 47 min 55 sec) 
Heartbeat CPU 0 instructions: 95000000 cycles: 54124732 heartbeat IPC: 1.47876 cumulative IPC: 1.28947 (Simulation time: 0 hr 48 min 24 sec) 
Heartbeat CPU 0 instructions: 96000000 cycles: 54826603 heartbeat IPC: 1.42476 cumulative IPC: 1.29214 (Simulation time: 0 hr 48 min 53 sec) 
Heartbeat CPU 0 instructions: 97000002 cycles: 56008331 heartbeat IPC: 0.84622 cumulative IPC: 1.27781 (Simulation time: 0 hr 49 min 25 sec) 
Heartbeat CPU 0 instructions: 98000003 cycles: 56942244 heartbeat IPC: 1.07076 cumulative IPC: 1.27269 (Simulation time: 0 hr 49 min 55 sec) 
Heartbeat CPU 0 instructions: 99000001 cycles: 57662563 heartbeat IPC: 1.38827 cumulative IPC: 1.27485 (Simulation time: 0 hr 50 min 30 sec) 
Heartbeat CPU 0 instructions: 100000000 cycles: 58350674 heartbeat IPC: 1.45325 cumulative IPC: 1.27799 (Simulation time: 0 hr 50 min 59 sec) 
Heartbeat CPU 0 instructions: 101000001 cycles: 59732570 heartbeat IPC: 0.723644 cumulative IPC: 1.25908 (Simulation time: 0 hr 51 min 30 sec) 
Heartbeat CPU 0 instructions: 102000002 cycles: 60520642 heartbeat IPC: 1.26892 cumulative IPC: 1.25927 (Simulation time: 0 hr 52 min 3 sec) 
Heartbeat CPU 0 instructions: 103000001 cycles: 61241423 heartbeat IPC: 1.38738 cumulative IPC: 1.26146 (Simulation time: 0 hr 52 min 34 sec) 
Heartbeat CPU 0 instructions: 104000000 cycles: 62461877 heartbeat IPC: 0.819366 cumulative IPC: 1.24898 (Simulation time: 0 hr 53 min 13 sec) 
Heartbeat CPU 0 instructions: 105000002 cycles: 63292175 heartbeat IPC: 1.20439 cumulative IPC: 1.24814 (Simulation time: 0 hr 53 min 44 sec) 
Heartbeat CPU 0 instructions: 106000000 cycles: 64006049 heartbeat IPC: 1.4008 cumulative IPC: 1.25058 (Simulation time: 0 hr 54 min 15 sec) 
Heartbeat CPU 0 instructions: 107000000 cycles: 65051430 heartbeat IPC: 0.956589 cumulative IPC: 1.24387 (Simulation time: 0 hr 54 min 45 sec) 
Heartbeat CPU 0 instructions: 108000000 cycles: 66052236 heartbeat IPC: 0.999195 cumulative IPC: 1.23864 (Simulation time: 0 hr 55 min 14 sec) 
Heartbeat CPU 0 instructions: 109000003 cycles: 66776831 heartbeat IPC: 1.38009 cumulative IPC: 1.2408 (Simulation time: 0 hr 55 min 47 sec) 
Heartbeat CPU 0 instructions: 110000000 cycles: 67577014 heartbeat IPC: 1.24971 cumulative IPC: 1.24094 (Simulation time: 0 hr 56 min 23 sec) 
Heartbeat CPU 0 instructions: 111000001 cycles: 68795608 heartbeat IPC: 0.820619 cumulative IPC: 1.23061 (Simulation time: 0 hr 57 min 0 sec) 
Heartbeat CPU 0 instructions: 112000000 cycles: 69578576 heartbeat IPC: 1.27719 cumulative IPC: 1.23133 (Simulation time: 0 hr 57 min 31 sec) 
Heartbeat CPU 0 instructions: 113000000 cycles: 70297542 heartbeat IPC: 1.39089 cumulative IPC: 1.23358 (Simulation time: 0 hr 58 min 1 sec) 
Heartbeat CPU 0 instructions: 114000000 cycles: 71552058 heartbeat IPC: 0.79712 cumulative IPC: 1.22312 (Simulation time: 0 hr 58 min 33 sec) 
Heartbeat CPU 0 instructions: 115000000 cycles: 72370781 heartbeat IPC: 1.22141 cumulative IPC: 1.22309 (Simulation time: 0 hr 59 min 5 sec) 
Heartbeat CPU 0 instructions: 116000000 cycles: 73088899 heartbeat IPC: 1.39253 cumulative IPC: 1.22535 (Simulation time: 0 hr 59 min 39 sec) 
Heartbeat CPU 0 instructions: 117000001 cycles: 74146386 heartbeat IPC: 0.945639 cumulative IPC: 1.21996 (Simulation time: 1 hr 0 min 18 sec) 
Heartbeat CPU 0 instructions: 118000001 cycles: 75160544 heartbeat IPC: 0.98604 cumulative IPC: 1.21572 (Simulation time: 1 hr 0 min 48 sec) 
Heartbeat CPU 0 instructions: 119000001 cycles: 75885145 heartbeat IPC: 1.38007 cumulative IPC: 1.21782 (Simulation time: 1 hr 1 min 24 sec) 
Heartbeat CPU 0 instructions: 120000000 cycles: 76687892 heartbeat IPC: 1.24572 cumulative IPC: 1.21821 (Simulation time: 1 hr 1 min 54 sec) 
Heartbeat CPU 0 instructions: 121000003 cycles: 77901610 heartbeat IPC: 0.823917 cumulative IPC: 1.21006 (Simulation time: 1 hr 2 min 26 sec) 
Heartbeat CPU 0 instructions: 122000000 cycles: 78699605 heartbeat IPC: 1.25314 cumulative IPC: 1.21064 (Simulation time: 1 hr 2 min 57 sec) 
Heartbeat CPU 0 instructions: 123000003 cycles: 79426386 heartbeat IPC: 1.37593 cumulative IPC: 1.21263 (Simulation time: 1 hr 3 min 26 sec) 
Heartbeat CPU 0 instructions: 124000000 cycles: 80659964 heartbeat IPC: 0.810648 cumulative IPC: 1.20456 (Simulation time: 1 hr 3 min 59 sec) 
Heartbeat CPU 0 instructions: 125000000 cycles: 81537304 heartbeat IPC: 1.13981 cumulative IPC: 1.20365 (Simulation time: 1 hr 4 min 32 sec) 
Heartbeat CPU 0 instructions: 126000000 cycles: 82253919 heartbeat IPC: 1.39545 cumulative IPC: 1.20583 (Simulation time: 1 hr 5 min 5 sec) 
Heartbeat CPU 0 instructions: 127000000 cycles: 83276692 heartbeat IPC: 0.977734 cumulative IPC: 1.20219 (Simulation time: 1 hr 5 min 35 sec) 
Heartbeat CPU 0 instructions: 128000000 cycles: 84380809 heartbeat IPC: 0.905701 cumulative IPC: 1.19716 (Simulation time: 1 hr 6 min 10 sec) 
Heartbeat CPU 0 instructions: 129000000 cycles: 85136836 heartbeat IPC: 1.3227 cumulative IPC: 1.1986 (Simulation time: 1 hr 6 min 43 sec) 
Heartbeat CPU 0 instructions: 130000000 cycles: 85880047 heartbeat IPC: 1.34551 cumulative IPC: 1.20024 (Simulation time: 1 hr 7 min 16 sec) 
Heartbeat CPU 0 instructions: 131000002 cycles: 87196822 heartbeat IPC: 0.759433 cumulative IPC: 1.1917 (Simulation time: 1 hr 7 min 55 sec) 
Heartbeat CPU 0 instructions: 132000000 cycles: 88004378 heartbeat IPC: 1.2383 cumulative IPC: 1.19225 (Simulation time: 1 hr 8 min 25 sec) 
Heartbeat CPU 0 instructions: 133000000 cycles: 88744825 heartbeat IPC: 1.35054 cumulative IPC: 1.19393 (Simulation time: 1 hr 8 min 54 sec) 
Heartbeat CPU 0 instructions: 134000001 cycles: 89939554 heartbeat IPC: 0.837011 cumulative IPC: 1.1879 (Simulation time: 1 hr 9 min 31 sec) 
Heartbeat CPU 0 instructions: 135000002 cycles: 90861738 heartbeat IPC: 1.08438 cumulative IPC: 1.18657 (Simulation time: 1 hr 9 min 59 sec) 
Heartbeat CPU 0 instructions: 136000000 cycles: 91594595 heartbeat IPC: 1.36452 cumulative IPC: 1.18837 (Simulation time: 1 hr 10 min 26 sec) 
Heartbeat CPU 0 instructions: 137000002 cycles: 92500109 heartbeat IPC: 1.10435 cumulative IPC: 1.18733 (Simulation time: 1 hr 10 min 54 sec) 
Heartbeat CPU 0 instructions: 138000000 cycles: 93871968 heartbeat IPC: 0.728936 cumulative IPC: 1.17891 (Simulation time: 1 hr 11 min 24 sec) 
Heartbeat CPU 0 instructions: 139000000 cycles: 94972298 heartbeat IPC: 0.908818 cumulative IPC: 1.17499 (Simulation time: 1 hr 11 min 50 sec) 
Heartbeat CPU 0 instructions: 140000000 cycles: 95791424 heartbeat IPC: 1.22081 cumulative IPC: 1.17548 (Simulation time: 1 hr 12 min 14 sec) 
Heartbeat CPU 0 instructions: 141000003 cycles: 96542032 heartbeat IPC: 1.33226 cumulative IPC: 1.177 (Simulation time: 1 hr 12 min 37 sec) 
Heartbeat CPU 0 instructions: 142000000 cycles: 97688645 heartbeat IPC: 0.872131 cumulative IPC: 1.17254 (Simulation time: 1 hr 13 min 2 sec) 
Heartbeat CPU 0 instructions: 143000003 cycles: 98678952 heartbeat IPC: 1.00979 cumulative IPC: 1.17051 (Simulation time: 1 hr 13 min 28 sec) 
Heartbeat CPU 0 instructions: 144000000 cycles: 99389850 heartbeat IPC: 1.40667 cumulative IPC: 1.17261 (Simulation time: 1 hr 13 min 51 sec) 
Heartbeat CPU 0 instructions: 145000000 cycles: 100278667 heartbeat IPC: 1.12509 cumulative IPC: 1.17209 (Simulation time: 1 hr 14 min 13 sec) 
Heartbeat CPU 0 instructions: 146000000 cycles: 101439428 heartbeat IPC: 0.861504 cumulative IPC: 1.1677 (Simulation time: 1 hr 14 min 36 sec) 
Heartbeat CPU 0 instructions: 147000003 cycles: 102268538 heartbeat IPC: 1.20612 cumulative IPC: 1.16809 (Simulation time: 1 hr 14 min 59 sec) 
Heartbeat CPU 0 instructions: 148000000 cycles: 103074273 heartbeat IPC: 1.2411 cumulative IPC: 1.16879 (Simulation time: 1 hr 15 min 22 sec) 
Heartbeat CPU 0 instructions: 149000003 cycles: 104357276 heartbeat IPC: 0.779424 cumulative IPC: 1.16292 (Simulation time: 1 hr 15 min 50 sec) 
Heartbeat CPU 0 instructions: 150000001 cycles: 105223792 heartbeat IPC: 1.15404 cumulative IPC: 1.16283 (Simulation time: 1 hr 16 min 12 sec) 
Finished CPU 0 instructions: 100000000 cycles: 85997071 cummulative IPC: 1.16283 (Simulation time: 1 hr 16 min 12 sec) 

ChampSim completed all CPUs

Region of Interest Statistics

CPU 0 cummulative IPC: 1.16283 instructions: 100000000 cycles: 85997071
LLC TOTAL     ACCESS:    1520478  HIT:     884077  MISS:     636401
LLC LOAD      ACCESS:     160637  HIT:     131854  MISS:      28783
LLC RFO       ACCESS:     118675  HIT:     114689  MISS:       3986
LLC PREFETCH  ACCESS:    1108857  HIT:     505351  MISS:     603506
LLC WRITEBACK ACCESS:     132309  HIT:     132183  MISS:        126
OPTgen accesses: 6733
OPTgen hits: 6467
OPTgen hit rate: 96.0493


