
*** ChampSim Multicore Out-of-Order Simulator ***

Warmup Instructions: 50000000
Simulation Instructions: 100000000
Configuration: 2
Number of CPUs: 1
LLC sets: 2048
LLC ways: 16
Off-chip DRAM Channels: 1 Width: 64-bit Data Rate: 1600 MT/s

CPU 0 runs /datasets/cs240c-wi22-a00-public/data/Assignment2-gz/mcf_250B.trace.gz
CPU 0 L1D next line prefetcher
CPU 0 L2C IP-based stride prefetcher
Initialize Hawkeye state
Heartbeat CPU 0 instructions: 1000000 cycles: 532395 heartbeat IPC: 1.8783 cumulative IPC: 1.8783 (Simulation time: 0 hr 1 min 1 sec) 
Heartbeat CPU 0 instructions: 2000003 cycles: 1045543 heartbeat IPC: 1.94876 cumulative IPC: 1.91288 (Simulation time: 0 hr 2 min 25 sec) 
Heartbeat CPU 0 instructions: 3000002 cycles: 1542415 heartbeat IPC: 2.01259 cumulative IPC: 1.945 (Simulation time: 0 hr 3 min 42 sec) 
Heartbeat CPU 0 instructions: 4000000 cycles: 2053932 heartbeat IPC: 1.95497 cumulative IPC: 1.94748 (Simulation time: 0 hr 4 min 58 sec) 
Heartbeat CPU 0 instructions: 5000002 cycles: 2560203 heartbeat IPC: 1.97523 cumulative IPC: 1.95297 (Simulation time: 0 hr 6 min 17 sec) 
Heartbeat CPU 0 instructions: 6000002 cycles: 3065814 heartbeat IPC: 1.97781 cumulative IPC: 1.95707 (Simulation time: 0 hr 7 min 39 sec) 
Heartbeat CPU 0 instructions: 7000002 cycles: 3605224 heartbeat IPC: 1.85388 cumulative IPC: 1.94163 (Simulation time: 0 hr 9 min 3 sec) 
Heartbeat CPU 0 instructions: 8000000 cycles: 4120250 heartbeat IPC: 1.94165 cumulative IPC: 1.94163 (Simulation time: 0 hr 10 min 16 sec) 
Heartbeat CPU 0 instructions: 9000002 cycles: 4634705 heartbeat IPC: 1.94381 cumulative IPC: 1.94187 (Simulation time: 0 hr 11 min 34 sec) 
Heartbeat CPU 0 instructions: 10000000 cycles: 5146027 heartbeat IPC: 1.95571 cumulative IPC: 1.94325 (Simulation time: 0 hr 12 min 59 sec) 
Heartbeat CPU 0 instructions: 11000001 cycles: 5658190 heartbeat IPC: 1.95251 cumulative IPC: 1.94408 (Simulation time: 0 hr 14 min 20 sec) 
Heartbeat CPU 0 instructions: 12000000 cycles: 6192976 heartbeat IPC: 1.8699 cumulative IPC: 1.93768 (Simulation time: 0 hr 15 min 32 sec) 
Heartbeat CPU 0 instructions: 13000001 cycles: 6713384 heartbeat IPC: 1.92157 cumulative IPC: 1.93643 (Simulation time: 0 hr 16 min 54 sec) 
Heartbeat CPU 0 instructions: 14000003 cycles: 7226438 heartbeat IPC: 1.94912 cumulative IPC: 1.93733 (Simulation time: 0 hr 18 min 16 sec) 
Heartbeat CPU 0 instructions: 15000002 cycles: 7739600 heartbeat IPC: 1.9487 cumulative IPC: 1.93808 (Simulation time: 0 hr 19 min 37 sec) 
Heartbeat CPU 0 instructions: 16000000 cycles: 8248872 heartbeat IPC: 1.96358 cumulative IPC: 1.93966 (Simulation time: 0 hr 20 min 59 sec) 
Heartbeat CPU 0 instructions: 17000000 cycles: 8760648 heartbeat IPC: 1.95398 cumulative IPC: 1.9405 (Simulation time: 0 hr 22 min 22 sec) 
Heartbeat CPU 0 instructions: 18000002 cycles: 9270152 heartbeat IPC: 1.9627 cumulative IPC: 1.94172 (Simulation time: 0 hr 23 min 42 sec) 
Heartbeat CPU 0 instructions: 19000001 cycles: 9781956 heartbeat IPC: 1.95387 cumulative IPC: 1.94235 (Simulation time: 0 hr 25 min 5 sec) 
Heartbeat CPU 0 instructions: 20000000 cycles: 10293035 heartbeat IPC: 1.95664 cumulative IPC: 1.94306 (Simulation time: 0 hr 26 min 26 sec) 
Heartbeat CPU 0 instructions: 21000001 cycles: 10799910 heartbeat IPC: 1.97287 cumulative IPC: 1.94446 (Simulation time: 0 hr 27 min 47 sec) 
Heartbeat CPU 0 instructions: 22000000 cycles: 11304427 heartbeat IPC: 1.98209 cumulative IPC: 1.94614 (Simulation time: 0 hr 29 min 2 sec) 
Heartbeat CPU 0 instructions: 23000003 cycles: 11813261 heartbeat IPC: 1.96528 cumulative IPC: 1.94696 (Simulation time: 0 hr 30 min 22 sec) 
Heartbeat CPU 0 instructions: 24000000 cycles: 12320603 heartbeat IPC: 1.97105 cumulative IPC: 1.94796 (Simulation time: 0 hr 31 min 38 sec) 
Heartbeat CPU 0 instructions: 25000002 cycles: 12830060 heartbeat IPC: 1.96288 cumulative IPC: 1.94855 (Simulation time: 0 hr 33 min 0 sec) 
Heartbeat CPU 0 instructions: 26000000 cycles: 13343521 heartbeat IPC: 1.94756 cumulative IPC: 1.94851 (Simulation time: 0 hr 34 min 21 sec) 
Heartbeat CPU 0 instructions: 27000003 cycles: 13857901 heartbeat IPC: 1.94409 cumulative IPC: 1.94835 (Simulation time: 0 hr 35 min 48 sec) 
Heartbeat CPU 0 instructions: 28000000 cycles: 14372052 heartbeat IPC: 1.94495 cumulative IPC: 1.94823 (Simulation time: 0 hr 37 min 10 sec) 
Heartbeat CPU 0 instructions: 29000000 cycles: 14886591 heartbeat IPC: 1.94349 cumulative IPC: 1.94806 (Simulation time: 0 hr 38 min 37 sec) 
Heartbeat CPU 0 instructions: 30000000 cycles: 15400676 heartbeat IPC: 1.9452 cumulative IPC: 1.94797 (Simulation time: 0 hr 39 min 57 sec) 
Heartbeat CPU 0 instructions: 31000000 cycles: 15914223 heartbeat IPC: 1.94724 cumulative IPC: 1.94794 (Simulation time: 0 hr 41 min 17 sec) 
Heartbeat CPU 0 instructions: 32000000 cycles: 16422577 heartbeat IPC: 1.96713 cumulative IPC: 1.94854 (Simulation time: 0 hr 42 min 38 sec) 
Heartbeat CPU 0 instructions: 33000002 cycles: 16935570 heartbeat IPC: 1.94935 cumulative IPC: 1.94856 (Simulation time: 0 hr 44 min 1 sec) 
Heartbeat CPU 0 instructions: 34000000 cycles: 17449573 heartbeat IPC: 1.94551 cumulative IPC: 1.94847 (Simulation time: 0 hr 45 min 16 sec) 
Heartbeat CPU 0 instructions: 35000000 cycles: 17974955 heartbeat IPC: 1.90338 cumulative IPC: 1.94715 (Simulation time: 0 hr 46 min 37 sec) 
Heartbeat CPU 0 instructions: 36000000 cycles: 18504433 heartbeat IPC: 1.88865 cumulative IPC: 1.94548 (Simulation time: 0 hr 47 min 56 sec) 
Heartbeat CPU 0 instructions: 37000002 cycles: 19017526 heartbeat IPC: 1.94897 cumulative IPC: 1.94557 (Simulation time: 0 hr 49 min 15 sec) 
Heartbeat CPU 0 instructions: 38000000 cycles: 19530917 heartbeat IPC: 1.94783 cumulative IPC: 1.94563 (Simulation time: 0 hr 50 min 32 sec) 
Heartbeat CPU 0 instructions: 39000002 cycles: 20044327 heartbeat IPC: 1.94776 cumulative IPC: 1.94569 (Simulation time: 0 hr 51 min 55 sec) 
Heartbeat CPU 0 instructions: 40000000 cycles: 20558680 heartbeat IPC: 1.94419 cumulative IPC: 1.94565 (Simulation time: 0 hr 53 min 18 sec) 
Heartbeat CPU 0 instructions: 41000000 cycles: 21073229 heartbeat IPC: 1.94345 cumulative IPC: 1.9456 (Simulation time: 0 hr 54 min 41 sec) 
Heartbeat CPU 0 instructions: 42000000 cycles: 21588635 heartbeat IPC: 1.94022 cumulative IPC: 1.94547 (Simulation time: 0 hr 55 min 58 sec) 
Heartbeat CPU 0 instructions: 43000000 cycles: 22101579 heartbeat IPC: 1.94953 cumulative IPC: 1.94556 (Simulation time: 0 hr 57 min 19 sec) 
Heartbeat CPU 0 instructions: 44000000 cycles: 22614573 heartbeat IPC: 1.94934 cumulative IPC: 1.94565 (Simulation time: 0 hr 58 min 45 sec) 
Heartbeat CPU 0 instructions: 45000001 cycles: 23128661 heartbeat IPC: 1.94519 cumulative IPC: 1.94564 (Simulation time: 1 hr 0 min 4 sec) 
Heartbeat CPU 0 instructions: 46000002 cycles: 23642975 heartbeat IPC: 1.94434 cumulative IPC: 1.94561 (Simulation time: 1 hr 1 min 22 sec) 
Heartbeat CPU 0 instructions: 47000002 cycles: 24157256 heartbeat IPC: 1.94446 cumulative IPC: 1.94559 (Simulation time: 1 hr 2 min 42 sec) 
Heartbeat CPU 0 instructions: 48000000 cycles: 24671058 heartbeat IPC: 1.94627 cumulative IPC: 1.9456 (Simulation time: 1 hr 3 min 51 sec) 
Heartbeat CPU 0 instructions: 49000000 cycles: 25185114 heartbeat IPC: 1.94531 cumulative IPC: 1.94559 (Simulation time: 1 hr 5 min 12 sec) 
Heartbeat CPU 0 instructions: 50000002 cycles: 25698567 heartbeat IPC: 1.9476 cumulative IPC: 1.94563 (Simulation time: 1 hr 6 min 32 sec) 

Warmup complete CPU 0 instructions: 50000002 cycles: 25698567 (Simulation time: 1 hr 6 min 32 sec) 

Heartbeat CPU 0 instructions: 51000002 cycles: 34928947 heartbeat IPC: 0.108338 cumulative IPC: 0.108338 (Simulation time: 1 hr 8 min 26 sec) 
Heartbeat CPU 0 instructions: 52000000 cycles: 44110526 heartbeat IPC: 0.108914 cumulative IPC: 0.108625 (Simulation time: 1 hr 10 min 6 sec) 
Heartbeat CPU 0 instructions: 53000000 cycles: 53431309 heartbeat IPC: 0.107287 cumulative IPC: 0.108175 (Simulation time: 1 hr 11 min 38 sec) 
Heartbeat CPU 0 instructions: 54000000 cycles: 62631535 heartbeat IPC: 0.108693 cumulative IPC: 0.108304 (Simulation time: 1 hr 13 min 3 sec) 
Heartbeat CPU 0 instructions: 55000000 cycles: 71797459 heartbeat IPC: 0.1091 cumulative IPC: 0.108462 (Simulation time: 1 hr 14 min 24 sec) 
Heartbeat CPU 0 instructions: 56000000 cycles: 80880015 heartbeat IPC: 0.110101 cumulative IPC: 0.108732 (Simulation time: 1 hr 15 min 40 sec) 
Heartbeat CPU 0 instructions: 57000000 cycles: 90015228 heartbeat IPC: 0.109467 cumulative IPC: 0.108836 (Simulation time: 1 hr 16 min 55 sec) 
Heartbeat CPU 0 instructions: 58000000 cycles: 99227415 heartbeat IPC: 0.108552 cumulative IPC: 0.108801 (Simulation time: 1 hr 18 min 7 sec) 
Heartbeat CPU 0 instructions: 59000001 cycles: 108270157 heartbeat IPC: 0.110586 cumulative IPC: 0.108996 (Simulation time: 1 hr 19 min 8 sec) 
Heartbeat CPU 0 instructions: 60000000 cycles: 117253481 heartbeat IPC: 0.111317 cumulative IPC: 0.109224 (Simulation time: 1 hr 20 min 9 sec) 
Heartbeat CPU 0 instructions: 61000001 cycles: 126343219 heartbeat IPC: 0.110014 cumulative IPC: 0.109295 (Simulation time: 1 hr 21 min 4 sec) 
Heartbeat CPU 0 instructions: 62000000 cycles: 133884695 heartbeat IPC: 0.1326 cumulative IPC: 0.11092 (Simulation time: 1 hr 21 min 49 sec) 
Heartbeat CPU 0 instructions: 63000001 cycles: 142537156 heartbeat IPC: 0.115574 cumulative IPC: 0.111265 (Simulation time: 1 hr 22 min 31 sec) 
Heartbeat CPU 0 instructions: 64000000 cycles: 151675698 heartbeat IPC: 0.109427 cumulative IPC: 0.111131 (Simulation time: 1 hr 23 min 11 sec) 
Heartbeat CPU 0 instructions: 65000000 cycles: 160049940 heartbeat IPC: 0.119414 cumulative IPC: 0.111648 (Simulation time: 1 hr 23 min 45 sec) 
Heartbeat CPU 0 instructions: 66000000 cycles: 168962200 heartbeat IPC: 0.112205 cumulative IPC: 0.111682 (Simulation time: 1 hr 24 min 19 sec) 
Heartbeat CPU 0 instructions: 67000000 cycles: 178151914 heartbeat IPC: 0.108817 cumulative IPC: 0.11151 (Simulation time: 1 hr 24 min 52 sec) 
Heartbeat CPU 0 instructions: 68000000 cycles: 187181038 heartbeat IPC: 0.110753 cumulative IPC: 0.111467 (Simulation time: 1 hr 25 min 22 sec) 
Heartbeat CPU 0 instructions: 69000000 cycles: 196053294 heartbeat IPC: 0.112711 cumulative IPC: 0.111532 (Simulation time: 1 hr 25 min 50 sec) 
Heartbeat CPU 0 instructions: 70000000 cycles: 205179610 heartbeat IPC: 0.109573 cumulative IPC: 0.111432 (Simulation time: 1 hr 26 min 15 sec) 
Heartbeat CPU 0 instructions: 71000000 cycles: 214123424 heartbeat IPC: 0.111809 cumulative IPC: 0.11145 (Simulation time: 1 hr 26 min 39 sec) 
Heartbeat CPU 0 instructions: 72000000 cycles: 222910840 heartbeat IPC: 0.113799 cumulative IPC: 0.111555 (Simulation time: 1 hr 27 min 2 sec) 
Heartbeat CPU 0 instructions: 73000001 cycles: 232076685 heartbeat IPC: 0.109101 cumulative IPC: 0.111446 (Simulation time: 1 hr 27 min 23 sec) 
Heartbeat CPU 0 instructions: 74000001 cycles: 240861059 heartbeat IPC: 0.113839 cumulative IPC: 0.111544 (Simulation time: 1 hr 27 min 43 sec) 
Heartbeat CPU 0 instructions: 75000002 cycles: 249610249 heartbeat IPC: 0.114296 cumulative IPC: 0.111651 (Simulation time: 1 hr 28 min 1 sec) 
Heartbeat CPU 0 instructions: 76000000 cycles: 258575519 heartbeat IPC: 0.111541 cumulative IPC: 0.111647 (Simulation time: 1 hr 28 min 20 sec) 
Heartbeat CPU 0 instructions: 77000003 cycles: 272871282 heartbeat IPC: 0.069951 cumulative IPC: 0.109235 (Simulation time: 1 hr 28 min 39 sec) 
Heartbeat CPU 0 instructions: 78000000 cycles: 283377967 heartbeat IPC: 0.0951772 cumulative IPC: 0.108662 (Simulation time: 1 hr 28 min 50 sec) 
Heartbeat CPU 0 instructions: 79000000 cycles: 292118841 heartbeat IPC: 0.114405 cumulative IPC: 0.108851 (Simulation time: 1 hr 29 min 1 sec) 
Heartbeat CPU 0 instructions: 80000000 cycles: 300798669 heartbeat IPC: 0.11521 cumulative IPC: 0.109051 (Simulation time: 1 hr 29 min 9 sec) 
Heartbeat CPU 0 instructions: 81000001 cycles: 309698130 heartbeat IPC: 0.112366 cumulative IPC: 0.109155 (Simulation time: 1 hr 29 min 19 sec) 
Heartbeat CPU 0 instructions: 82000001 cycles: 317838244 heartbeat IPC: 0.122848 cumulative IPC: 0.109537 (Simulation time: 1 hr 29 min 27 sec) 
Heartbeat CPU 0 instructions: 83000002 cycles: 325543468 heartbeat IPC: 0.129782 cumulative IPC: 0.110057 (Simulation time: 1 hr 29 min 35 sec) 
Heartbeat CPU 0 instructions: 84000000 cycles: 333044480 heartbeat IPC: 0.133315 cumulative IPC: 0.110625 (Simulation time: 1 hr 29 min 41 sec) 
Heartbeat CPU 0 instructions: 85000000 cycles: 340876320 heartbeat IPC: 0.127684 cumulative IPC: 0.111048 (Simulation time: 1 hr 29 min 48 sec) 
Heartbeat CPU 0 instructions: 86000001 cycles: 348471204 heartbeat IPC: 0.131668 cumulative IPC: 0.111534 (Simulation time: 1 hr 29 min 55 sec) 
Heartbeat CPU 0 instructions: 87000001 cycles: 362056214 heartbeat IPC: 0.0736105 cumulative IPC: 0.110002 (Simulation time: 1 hr 30 min 3 sec) 
Heartbeat CPU 0 instructions: 88000000 cycles: 372536606 heartbeat IPC: 0.0954162 cumulative IPC: 0.109561 (Simulation time: 1 hr 30 min 11 sec) 
Heartbeat CPU 0 instructions: 89000001 cycles: 380529254 heartbeat IPC: 0.125115 cumulative IPC: 0.109912 (Simulation time: 1 hr 30 min 18 sec) 
Heartbeat CPU 0 instructions: 90000001 cycles: 387177634 heartbeat IPC: 0.150413 cumulative IPC: 0.110656 (Simulation time: 1 hr 30 min 24 sec) 
Heartbeat CPU 0 instructions: 91000000 cycles: 397402781 heartbeat IPC: 0.097798 cumulative IPC: 0.110303 (Simulation time: 1 hr 30 min 32 sec) 
Heartbeat CPU 0 instructions: 92000000 cycles: 405693737 heartbeat IPC: 0.120613 cumulative IPC: 0.110528 (Simulation time: 1 hr 30 min 39 sec) 
Heartbeat CPU 0 instructions: 93000000 cycles: 414926088 heartbeat IPC: 0.108315 cumulative IPC: 0.110475 (Simulation time: 1 hr 30 min 47 sec) 
Heartbeat CPU 0 instructions: 94000000 cycles: 423956399 heartbeat IPC: 0.110738 cumulative IPC: 0.110481 (Simulation time: 1 hr 30 min 54 sec) 
Heartbeat CPU 0 instructions: 95000000 cycles: 433005972 heartbeat IPC: 0.110502 cumulative IPC: 0.110482 (Simulation time: 1 hr 31 min 0 sec) 
Heartbeat CPU 0 instructions: 96000000 cycles: 442369616 heartbeat IPC: 0.106796 cumulative IPC: 0.110399 (Simulation time: 1 hr 31 min 6 sec) 
Heartbeat CPU 0 instructions: 97000000 cycles: 451323090 heartbeat IPC: 0.111688 cumulative IPC: 0.110426 (Simulation time: 1 hr 31 min 13 sec) 
Heartbeat CPU 0 instructions: 98000000 cycles: 460550723 heartbeat IPC: 0.10837 cumulative IPC: 0.110382 (Simulation time: 1 hr 31 min 19 sec) 
Heartbeat CPU 0 instructions: 99000000 cycles: 469665487 heartbeat IPC: 0.109712 cumulative IPC: 0.110369 (Simulation time: 1 hr 31 min 26 sec) 
Heartbeat CPU 0 instructions: 100000000 cycles: 478741446 heartbeat IPC: 0.110181 cumulative IPC: 0.110365 (Simulation time: 1 hr 31 min 32 sec) 
Heartbeat CPU 0 instructions: 101000002 cycles: 487790262 heartbeat IPC: 0.110512 cumulative IPC: 0.110368 (Simulation time: 1 hr 31 min 39 sec) 
Heartbeat CPU 0 instructions: 102000000 cycles: 497112023 heartbeat IPC: 0.107276 cumulative IPC: 0.110307 (Simulation time: 1 hr 31 min 45 sec) 
Heartbeat CPU 0 instructions: 103000000 cycles: 506658684 heartbeat IPC: 0.104749 cumulative IPC: 0.110196 (Simulation time: 1 hr 31 min 52 sec) 
Heartbeat CPU 0 instructions: 104000000 cycles: 516004455 heartbeat IPC: 0.107 cumulative IPC: 0.110135 (Simulation time: 1 hr 31 min 58 sec) 
Heartbeat CPU 0 instructions: 105000000 cycles: 525388280 heartbeat IPC: 0.106566 cumulative IPC: 0.110068 (Simulation time: 1 hr 32 min 5 sec) 
Heartbeat CPU 0 instructions: 106000003 cycles: 534456260 heartbeat IPC: 0.110278 cumulative IPC: 0.110072 (Simulation time: 1 hr 32 min 13 sec) 
Heartbeat CPU 0 instructions: 107000003 cycles: 543610337 heartbeat IPC: 0.109241 cumulative IPC: 0.110057 (Simulation time: 1 hr 32 min 20 sec) 
Heartbeat CPU 0 instructions: 108000000 cycles: 552726238 heartbeat IPC: 0.109698 cumulative IPC: 0.110051 (Simulation time: 1 hr 32 min 28 sec) 
Heartbeat CPU 0 instructions: 109000000 cycles: 561926574 heartbeat IPC: 0.108692 cumulative IPC: 0.110028 (Simulation time: 1 hr 32 min 35 sec) 
Heartbeat CPU 0 instructions: 110000000 cycles: 571021972 heartbeat IPC: 0.109946 cumulative IPC: 0.110026 (Simulation time: 1 hr 32 min 43 sec) 
Heartbeat CPU 0 instructions: 111000000 cycles: 579936005 heartbeat IPC: 0.112183 cumulative IPC: 0.110061 (Simulation time: 1 hr 32 min 50 sec) 
Heartbeat CPU 0 instructions: 112000000 cycles: 588988310 heartbeat IPC: 0.110469 cumulative IPC: 0.110068 (Simulation time: 1 hr 32 min 57 sec) 
Heartbeat CPU 0 instructions: 113000001 cycles: 597906414 heartbeat IPC: 0.112132 cumulative IPC: 0.1101 (Simulation time: 1 hr 33 min 5 sec) 
Heartbeat CPU 0 instructions: 114000000 cycles: 606971913 heartbeat IPC: 0.110308 cumulative IPC: 0.110103 (Simulation time: 1 hr 33 min 12 sec) 
Heartbeat CPU 0 instructions: 115000000 cycles: 616073332 heartbeat IPC: 0.109873 cumulative IPC: 0.1101 (Simulation time: 1 hr 33 min 20 sec) 
Heartbeat CPU 0 instructions: 116000000 cycles: 625251411 heartbeat IPC: 0.108955 cumulative IPC: 0.110082 (Simulation time: 1 hr 33 min 27 sec) 
Heartbeat CPU 0 instructions: 117000001 cycles: 634506265 heartbeat IPC: 0.108052 cumulative IPC: 0.110051 (Simulation time: 1 hr 33 min 34 sec) 
Heartbeat CPU 0 instructions: 118000000 cycles: 643531034 heartbeat IPC: 0.110806 cumulative IPC: 0.110062 (Simulation time: 1 hr 33 min 41 sec) 
Heartbeat CPU 0 instructions: 119000000 cycles: 652542254 heartbeat IPC: 0.110973 cumulative IPC: 0.110075 (Simulation time: 1 hr 33 min 48 sec) 
Heartbeat CPU 0 instructions: 120000000 cycles: 661789801 heartbeat IPC: 0.108137 cumulative IPC: 0.110047 (Simulation time: 1 hr 33 min 55 sec) 
Heartbeat CPU 0 instructions: 121000000 cycles: 670747544 heartbeat IPC: 0.111635 cumulative IPC: 0.110069 (Simulation time: 1 hr 34 min 2 sec) 
Heartbeat CPU 0 instructions: 122000001 cycles: 679665429 heartbeat IPC: 0.112134 cumulative IPC: 0.110097 (Simulation time: 1 hr 34 min 8 sec) 
Heartbeat CPU 0 instructions: 123000002 cycles: 688759922 heartbeat IPC: 0.109957 cumulative IPC: 0.110095 (Simulation time: 1 hr 34 min 15 sec) 
Heartbeat CPU 0 instructions: 124000000 cycles: 698017354 heartbeat IPC: 0.108021 cumulative IPC: 0.110067 (Simulation time: 1 hr 34 min 21 sec) 
Heartbeat CPU 0 instructions: 125000001 cycles: 707461846 heartbeat IPC: 0.105882 cumulative IPC: 0.110009 (Simulation time: 1 hr 34 min 28 sec) 
Heartbeat CPU 0 instructions: 126000002 cycles: 716715888 heartbeat IPC: 0.108061 cumulative IPC: 0.109983 (Simulation time: 1 hr 34 min 34 sec) 
Heartbeat CPU 0 instructions: 127000000 cycles: 725880649 heartbeat IPC: 0.109113 cumulative IPC: 0.109971 (Simulation time: 1 hr 34 min 41 sec) 
Heartbeat CPU 0 instructions: 128000000 cycles: 735218434 heartbeat IPC: 0.107092 cumulative IPC: 0.109933 (Simulation time: 1 hr 34 min 47 sec) 
Heartbeat CPU 0 instructions: 129000001 cycles: 744859639 heartbeat IPC: 0.103722 cumulative IPC: 0.10985 (Simulation time: 1 hr 34 min 54 sec) 
Heartbeat CPU 0 instructions: 130000000 cycles: 754321643 heartbeat IPC: 0.105686 cumulative IPC: 0.109796 (Simulation time: 1 hr 35 min 0 sec) 
Heartbeat CPU 0 instructions: 131000000 cycles: 763750973 heartbeat IPC: 0.106052 cumulative IPC: 0.109748 (Simulation time: 1 hr 35 min 7 sec) 
Heartbeat CPU 0 instructions: 132000000 cycles: 772791991 heartbeat IPC: 0.110607 cumulative IPC: 0.109759 (Simulation time: 1 hr 35 min 13 sec) 
Heartbeat CPU 0 instructions: 133000000 cycles: 781877839 heartbeat IPC: 0.110061 cumulative IPC: 0.109762 (Simulation time: 1 hr 35 min 20 sec) 
Heartbeat CPU 0 instructions: 134000002 cycles: 790987602 heartbeat IPC: 0.109773 cumulative IPC: 0.109762 (Simulation time: 1 hr 35 min 27 sec) 
Heartbeat CPU 0 instructions: 135000002 cycles: 800028016 heartbeat IPC: 0.110614 cumulative IPC: 0.109772 (Simulation time: 1 hr 35 min 33 sec) 
Heartbeat CPU 0 instructions: 136000000 cycles: 809267069 heartbeat IPC: 0.108236 cumulative IPC: 0.109754 (Simulation time: 1 hr 35 min 40 sec) 
Heartbeat CPU 0 instructions: 137000000 cycles: 818439334 heartbeat IPC: 0.109024 cumulative IPC: 0.109746 (Simulation time: 1 hr 35 min 46 sec) 
Heartbeat CPU 0 instructions: 138000000 cycles: 827384067 heartbeat IPC: 0.111798 cumulative IPC: 0.109769 (Simulation time: 1 hr 35 min 53 sec) 
Heartbeat CPU 0 instructions: 139000001 cycles: 836431885 heartbeat IPC: 0.110524 cumulative IPC: 0.109777 (Simulation time: 1 hr 36 min 0 sec) 
Heartbeat CPU 0 instructions: 140000000 cycles: 845436857 heartbeat IPC: 0.11105 cumulative IPC: 0.109791 (Simulation time: 1 hr 36 min 7 sec) 
Heartbeat CPU 0 instructions: 141000002 cycles: 859474016 heartbeat IPC: 0.0712396 cumulative IPC: 0.109142 (Simulation time: 1 hr 36 min 17 sec) 
Heartbeat CPU 0 instructions: 142000002 cycles: 870098673 heartbeat IPC: 0.0941207 cumulative IPC: 0.108953 (Simulation time: 1 hr 36 min 25 sec) 
Heartbeat CPU 0 instructions: 143000001 cycles: 879071434 heartbeat IPC: 0.111448 cumulative IPC: 0.108979 (Simulation time: 1 hr 36 min 33 sec) 
Heartbeat CPU 0 instructions: 144000000 cycles: 888023697 heartbeat IPC: 0.111703 cumulative IPC: 0.109008 (Simulation time: 1 hr 36 min 40 sec) 
Heartbeat CPU 0 instructions: 145000000 cycles: 897058729 heartbeat IPC: 0.11068 cumulative IPC: 0.109025 (Simulation time: 1 hr 36 min 48 sec) 
Heartbeat CPU 0 instructions: 146000001 cycles: 905701906 heartbeat IPC: 0.115698 cumulative IPC: 0.10909 (Simulation time: 1 hr 36 min 55 sec) 
Heartbeat CPU 0 instructions: 147000001 cycles: 914198297 heartbeat IPC: 0.117697 cumulative IPC: 0.109173 (Simulation time: 1 hr 37 min 2 sec) 
Heartbeat CPU 0 instructions: 148000000 cycles: 922686768 heartbeat IPC: 0.117807 cumulative IPC: 0.109255 (Simulation time: 1 hr 37 min 9 sec) 
Heartbeat CPU 0 instructions: 149000001 cycles: 931087926 heartbeat IPC: 0.119031 cumulative IPC: 0.109345 (Simulation time: 1 hr 37 min 17 sec) 
Heartbeat CPU 0 instructions: 150000001 cycles: 939751622 heartbeat IPC: 0.115424 cumulative IPC: 0.109403 (Simulation time: 1 hr 37 min 24 sec) 
Finished CPU 0 instructions: 100000001 cycles: 914053104 cummulative IPC: 0.109403 (Simulation time: 1 hr 37 min 24 sec) 

ChampSim completed all CPUs

Region of Interest Statistics

CPU 0 cummulative IPC: 0.109403 instructions: 100000001 cycles: 914053104
LLC TOTAL     ACCESS:   27038626  HIT:   15329818  MISS:   11708808
LLC LOAD      ACCESS:   11745937  HIT:    8825746  MISS:    2920191
LLC RFO       ACCESS:      20880  HIT:       7062  MISS:      13818
LLC PREFETCH  ACCESS:   14998385  HIT:    6309844  MISS:    8688541
LLC WRITEBACK ACCESS:     273424  HIT:     187166  MISS:      86258
OPTgen accesses: 279137
OPTgen hits: 275087
OPTgen hit rate: 98.5491


