
*** ChampSim Multicore Out-of-Order Simulator ***

Warmup Instructions: 50000000
Simulation Instructions: 100000000
Configuration: 2
Number of CPUs: 1
LLC sets: 2048
LLC ways: 16
Off-chip DRAM Channels: 1 Width: 64-bit Data Rate: 1600 MT/s

CPU 0 runs /datasets/cs240c-wi22-a00-public/data/Assignment2-gz/soplex_66B.trace.gz
CPU 0 L1D next line prefetcher
CPU 0 L2C IP-based stride prefetcher
Initialize Hawkeye state
Heartbeat CPU 0 instructions: 1000003 cycles: 415058 heartbeat IPC: 2.40931 cumulative IPC: 2.40931 (Simulation time: 0 hr 0 min 38 sec) 
Heartbeat CPU 0 instructions: 2000003 cycles: 837409 heartbeat IPC: 2.3677 cumulative IPC: 2.38832 (Simulation time: 0 hr 1 min 29 sec) 
Heartbeat CPU 0 instructions: 3000003 cycles: 1242426 heartbeat IPC: 2.46903 cumulative IPC: 2.41463 (Simulation time: 0 hr 2 min 15 sec) 
Heartbeat CPU 0 instructions: 4000000 cycles: 1626538 heartbeat IPC: 2.6034 cumulative IPC: 2.45921 (Simulation time: 0 hr 2 min 54 sec) 
Heartbeat CPU 0 instructions: 5000000 cycles: 2038845 heartbeat IPC: 2.42538 cumulative IPC: 2.45237 (Simulation time: 0 hr 3 min 39 sec) 
Heartbeat CPU 0 instructions: 6000000 cycles: 2511000 heartbeat IPC: 2.11795 cumulative IPC: 2.38949 (Simulation time: 0 hr 4 min 21 sec) 
Heartbeat CPU 0 instructions: 7000002 cycles: 2883194 heartbeat IPC: 2.68678 cumulative IPC: 2.42786 (Simulation time: 0 hr 5 min 7 sec) 
Heartbeat CPU 0 instructions: 8000000 cycles: 3308579 heartbeat IPC: 2.35081 cumulative IPC: 2.41796 (Simulation time: 0 hr 5 min 54 sec) 
Heartbeat CPU 0 instructions: 9000001 cycles: 3747151 heartbeat IPC: 2.28013 cumulative IPC: 2.40182 (Simulation time: 0 hr 6 min 40 sec) 
Heartbeat CPU 0 instructions: 10000002 cycles: 4159243 heartbeat IPC: 2.42665 cumulative IPC: 2.40428 (Simulation time: 0 hr 7 min 25 sec) 
Heartbeat CPU 0 instructions: 11000001 cycles: 4570220 heartbeat IPC: 2.43322 cumulative IPC: 2.40689 (Simulation time: 0 hr 8 min 19 sec) 
Heartbeat CPU 0 instructions: 12000000 cycles: 4954152 heartbeat IPC: 2.60463 cumulative IPC: 2.42221 (Simulation time: 0 hr 9 min 3 sec) 
Heartbeat CPU 0 instructions: 13000003 cycles: 5353415 heartbeat IPC: 2.50462 cumulative IPC: 2.42836 (Simulation time: 0 hr 9 min 52 sec) 
Heartbeat CPU 0 instructions: 14000002 cycles: 5841135 heartbeat IPC: 2.05035 cumulative IPC: 2.39679 (Simulation time: 0 hr 10 min 45 sec) 
Heartbeat CPU 0 instructions: 15000003 cycles: 6215654 heartbeat IPC: 2.67009 cumulative IPC: 2.41326 (Simulation time: 0 hr 11 min 32 sec) 
Heartbeat CPU 0 instructions: 16000000 cycles: 6623768 heartbeat IPC: 2.45029 cumulative IPC: 2.41554 (Simulation time: 0 hr 12 min 24 sec) 
Heartbeat CPU 0 instructions: 17000001 cycles: 7077895 heartbeat IPC: 2.20203 cumulative IPC: 2.40184 (Simulation time: 0 hr 13 min 18 sec) 
Heartbeat CPU 0 instructions: 18000003 cycles: 7486989 heartbeat IPC: 2.44443 cumulative IPC: 2.40417 (Simulation time: 0 hr 14 min 8 sec) 
Heartbeat CPU 0 instructions: 19000002 cycles: 7905031 heartbeat IPC: 2.3921 cumulative IPC: 2.40353 (Simulation time: 0 hr 15 min 8 sec) 
Heartbeat CPU 0 instructions: 20000000 cycles: 8288999 heartbeat IPC: 2.60438 cumulative IPC: 2.41284 (Simulation time: 0 hr 15 min 56 sec) 
Heartbeat CPU 0 instructions: 21000000 cycles: 8683698 heartbeat IPC: 2.53358 cumulative IPC: 2.41832 (Simulation time: 0 hr 16 min 41 sec) 
Heartbeat CPU 0 instructions: 22000000 cycles: 9177640 heartbeat IPC: 2.02453 cumulative IPC: 2.39713 (Simulation time: 0 hr 17 min 34 sec) 
Heartbeat CPU 0 instructions: 23000002 cycles: 9550956 heartbeat IPC: 2.6787 cumulative IPC: 2.40814 (Simulation time: 0 hr 18 min 23 sec) 
Heartbeat CPU 0 instructions: 24000000 cycles: 9942396 heartbeat IPC: 2.55466 cumulative IPC: 2.41391 (Simulation time: 0 hr 19 min 20 sec) 
Heartbeat CPU 0 instructions: 25000003 cycles: 10420975 heartbeat IPC: 2.08953 cumulative IPC: 2.39901 (Simulation time: 0 hr 20 min 11 sec) 
Heartbeat CPU 0 instructions: 26000001 cycles: 10819829 heartbeat IPC: 2.50718 cumulative IPC: 2.403 (Simulation time: 0 hr 21 min 4 sec) 
Heartbeat CPU 0 instructions: 27000002 cycles: 11237865 heartbeat IPC: 2.39214 cumulative IPC: 2.40259 (Simulation time: 0 hr 22 min 4 sec) 
Heartbeat CPU 0 instructions: 28000000 cycles: 11622052 heartbeat IPC: 2.60289 cumulative IPC: 2.40921 (Simulation time: 0 hr 22 min 52 sec) 
Heartbeat CPU 0 instructions: 29000000 cycles: 12012132 heartbeat IPC: 2.56358 cumulative IPC: 2.41423 (Simulation time: 0 hr 23 min 44 sec) 
Heartbeat CPU 0 instructions: 30000003 cycles: 12511370 heartbeat IPC: 2.00306 cumulative IPC: 2.39782 (Simulation time: 0 hr 24 min 36 sec) 
Heartbeat CPU 0 instructions: 31000001 cycles: 12883318 heartbeat IPC: 2.68854 cumulative IPC: 2.40621 (Simulation time: 0 hr 25 min 27 sec) 
Heartbeat CPU 0 instructions: 32000000 cycles: 13263092 heartbeat IPC: 2.63314 cumulative IPC: 2.41271 (Simulation time: 0 hr 26 min 18 sec) 
Heartbeat CPU 0 instructions: 33000002 cycles: 13686276 heartbeat IPC: 2.36304 cumulative IPC: 2.41117 (Simulation time: 0 hr 27 min 22 sec) 
Heartbeat CPU 0 instructions: 34000003 cycles: 14097854 heartbeat IPC: 2.42968 cumulative IPC: 2.41171 (Simulation time: 0 hr 28 min 18 sec) 
Heartbeat CPU 0 instructions: 35000003 cycles: 14508627 heartbeat IPC: 2.43443 cumulative IPC: 2.41236 (Simulation time: 0 hr 29 min 16 sec) 
Heartbeat CPU 0 instructions: 36000000 cycles: 14892379 heartbeat IPC: 2.60584 cumulative IPC: 2.41734 (Simulation time: 0 hr 30 min 5 sec) 
Heartbeat CPU 0 instructions: 37000000 cycles: 15291095 heartbeat IPC: 2.50805 cumulative IPC: 2.41971 (Simulation time: 0 hr 30 min 55 sec) 
Heartbeat CPU 0 instructions: 38000000 cycles: 15777581 heartbeat IPC: 2.05556 cumulative IPC: 2.40848 (Simulation time: 0 hr 31 min 40 sec) 
Heartbeat CPU 0 instructions: 39000002 cycles: 16149217 heartbeat IPC: 2.69081 cumulative IPC: 2.41498 (Simulation time: 0 hr 32 min 30 sec) 
Heartbeat CPU 0 instructions: 40000000 cycles: 16558613 heartbeat IPC: 2.44262 cumulative IPC: 2.41566 (Simulation time: 0 hr 33 min 23 sec) 
Heartbeat CPU 0 instructions: 41000001 cycles: 17013201 heartbeat IPC: 2.1998 cumulative IPC: 2.40989 (Simulation time: 0 hr 34 min 16 sec) 
Heartbeat CPU 0 instructions: 42000003 cycles: 17422217 heartbeat IPC: 2.4449 cumulative IPC: 2.41072 (Simulation time: 0 hr 35 min 6 sec) 
Heartbeat CPU 0 instructions: 43000000 cycles: 17840647 heartbeat IPC: 2.38988 cumulative IPC: 2.41023 (Simulation time: 0 hr 36 min 4 sec) 
Heartbeat CPU 0 instructions: 44000000 cycles: 18224361 heartbeat IPC: 2.60611 cumulative IPC: 2.41435 (Simulation time: 0 hr 36 min 54 sec) 
Heartbeat CPU 0 instructions: 45000003 cycles: 18618539 heartbeat IPC: 2.53693 cumulative IPC: 2.41695 (Simulation time: 0 hr 37 min 43 sec) 
Heartbeat CPU 0 instructions: 46000001 cycles: 19113896 heartbeat IPC: 2.01874 cumulative IPC: 2.40663 (Simulation time: 0 hr 38 min 35 sec) 
Heartbeat CPU 0 instructions: 47000001 cycles: 19488038 heartbeat IPC: 2.67278 cumulative IPC: 2.41174 (Simulation time: 0 hr 39 min 24 sec) 
Heartbeat CPU 0 instructions: 48000000 cycles: 19877986 heartbeat IPC: 2.56444 cumulative IPC: 2.41473 (Simulation time: 0 hr 40 min 14 sec) 
Heartbeat CPU 0 instructions: 49000000 cycles: 20534097 heartbeat IPC: 1.52413 cumulative IPC: 2.38627 (Simulation time: 0 hr 41 min 20 sec) 
Heartbeat CPU 0 instructions: 50000003 cycles: 21059247 heartbeat IPC: 1.90422 cumulative IPC: 2.37425 (Simulation time: 0 hr 42 min 23 sec) 

Warmup complete CPU 0 instructions: 50000003 cycles: 21059247 (Simulation time: 0 hr 42 min 23 sec) 

Heartbeat CPU 0 instructions: 51000002 cycles: 23554310 heartbeat IPC: 0.400791 cumulative IPC: 0.400791 (Simulation time: 0 hr 43 min 48 sec) 
Heartbeat CPU 0 instructions: 52000000 cycles: 27291020 heartbeat IPC: 0.267615 cumulative IPC: 0.320935 (Simulation time: 0 hr 45 min 9 sec) 
Heartbeat CPU 0 instructions: 53000003 cycles: 29928600 heartbeat IPC: 0.379137 cumulative IPC: 0.338243 (Simulation time: 0 hr 46 min 25 sec) 
Heartbeat CPU 0 instructions: 54000000 cycles: 32381641 heartbeat IPC: 0.407656 cumulative IPC: 0.353282 (Simulation time: 0 hr 47 min 47 sec) 
Heartbeat CPU 0 instructions: 55000002 cycles: 35777717 heartbeat IPC: 0.294458 cumulative IPC: 0.339709 (Simulation time: 0 hr 48 min 53 sec) 
Heartbeat CPU 0 instructions: 56000000 cycles: 39008813 heartbeat IPC: 0.309492 cumulative IPC: 0.33427 (Simulation time: 0 hr 50 min 10 sec) 
Heartbeat CPU 0 instructions: 57000003 cycles: 41555667 heartbeat IPC: 0.392642 cumulative IPC: 0.341523 (Simulation time: 0 hr 51 min 15 sec) 
Heartbeat CPU 0 instructions: 58000002 cycles: 43736560 heartbeat IPC: 0.458527 cumulative IPC: 0.352775 (Simulation time: 0 hr 52 min 26 sec) 
Heartbeat CPU 0 instructions: 59000002 cycles: 45275429 heartbeat IPC: 0.649828 cumulative IPC: 0.371652 (Simulation time: 0 hr 53 min 35 sec) 
Heartbeat CPU 0 instructions: 60000000 cycles: 46843670 heartbeat IPC: 0.637656 cumulative IPC: 0.387831 (Simulation time: 0 hr 54 min 27 sec) 
Heartbeat CPU 0 instructions: 61000002 cycles: 49569104 heartbeat IPC: 0.366915 cumulative IPC: 0.385831 (Simulation time: 0 hr 55 min 39 sec) 
Heartbeat CPU 0 instructions: 62000000 cycles: 51976512 heartbeat IPC: 0.415384 cumulative IPC: 0.388133 (Simulation time: 0 hr 56 min 52 sec) 
Heartbeat CPU 0 instructions: 63000002 cycles: 53892738 heartbeat IPC: 0.52186 cumulative IPC: 0.395937 (Simulation time: 0 hr 57 min 57 sec) 
Heartbeat CPU 0 instructions: 64000000 cycles: 56319914 heartbeat IPC: 0.412001 cumulative IPC: 0.397043 (Simulation time: 0 hr 58 min 58 sec) 
Heartbeat CPU 0 instructions: 65000000 cycles: 59561014 heartbeat IPC: 0.308537 cumulative IPC: 0.389592 (Simulation time: 1 hr 0 min 13 sec) 
Heartbeat CPU 0 instructions: 66000001 cycles: 60774746 heartbeat IPC: 0.823906 cumulative IPC: 0.402865 (Simulation time: 1 hr 0 min 56 sec) 
Heartbeat CPU 0 instructions: 67000000 cycles: 62059975 heartbeat IPC: 0.778071 cumulative IPC: 0.414627 (Simulation time: 1 hr 1 min 44 sec) 
Heartbeat CPU 0 instructions: 68000000 cycles: 65465571 heartbeat IPC: 0.293634 cumulative IPC: 0.405348 (Simulation time: 1 hr 2 min 57 sec) 
Heartbeat CPU 0 instructions: 69000000 cycles: 68145653 heartbeat IPC: 0.373123 cumulative IPC: 0.403513 (Simulation time: 1 hr 3 min 44 sec) 
Heartbeat CPU 0 instructions: 70000001 cycles: 70851578 heartbeat IPC: 0.36956 cumulative IPC: 0.401668 (Simulation time: 1 hr 4 min 42 sec) 
Heartbeat CPU 0 instructions: 71000000 cycles: 73396301 heartbeat IPC: 0.39297 cumulative IPC: 0.401245 (Simulation time: 1 hr 5 min 52 sec) 
Heartbeat CPU 0 instructions: 72000000 cycles: 76208610 heartbeat IPC: 0.35558 cumulative IPC: 0.398917 (Simulation time: 1 hr 6 min 51 sec) 
Heartbeat CPU 0 instructions: 73000001 cycles: 78894053 heartbeat IPC: 0.372378 cumulative IPC: 0.397684 (Simulation time: 1 hr 8 min 6 sec) 
Heartbeat CPU 0 instructions: 74000000 cycles: 80757657 heartbeat IPC: 0.536594 cumulative IPC: 0.402021 (Simulation time: 1 hr 8 min 58 sec) 
Heartbeat CPU 0 instructions: 75000002 cycles: 81979598 heartbeat IPC: 0.818372 cumulative IPC: 0.410372 (Simulation time: 1 hr 9 min 39 sec) 
Heartbeat CPU 0 instructions: 76000000 cycles: 85242770 heartbeat IPC: 0.30645 cumulative IPC: 0.405088 (Simulation time: 1 hr 10 min 43 sec) 
Heartbeat CPU 0 instructions: 77000000 cycles: 87697014 heartbeat IPC: 0.407457 cumulative IPC: 0.405176 (Simulation time: 1 hr 11 min 27 sec) 
Heartbeat CPU 0 instructions: 78000003 cycles: 90290927 heartbeat IPC: 0.385519 cumulative IPC: 0.404439 (Simulation time: 1 hr 12 min 10 sec) 
Heartbeat CPU 0 instructions: 79000001 cycles: 93680329 heartbeat IPC: 0.295037 cumulative IPC: 0.399333 (Simulation time: 1 hr 13 min 5 sec) 
Heartbeat CPU 0 instructions: 80000000 cycles: 96140264 heartbeat IPC: 0.406514 cumulative IPC: 0.399568 (Simulation time: 1 hr 13 min 49 sec) 
Heartbeat CPU 0 instructions: 81000003 cycles: 99039372 heartbeat IPC: 0.344935 cumulative IPC: 0.397537 (Simulation time: 1 hr 14 min 41 sec) 
Heartbeat CPU 0 instructions: 82000000 cycles: 100667676 heartbeat IPC: 0.614134 cumulative IPC: 0.401967 (Simulation time: 1 hr 15 min 15 sec) 
Heartbeat CPU 0 instructions: 83000001 cycles: 101946262 heartbeat IPC: 0.782115 cumulative IPC: 0.407976 (Simulation time: 1 hr 15 min 43 sec) 
Heartbeat CPU 0 instructions: 84000000 cycles: 105259325 heartbeat IPC: 0.301835 cumulative IPC: 0.4038 (Simulation time: 1 hr 16 min 33 sec) 
Heartbeat CPU 0 instructions: 85000000 cycles: 107729077 heartbeat IPC: 0.404899 cumulative IPC: 0.403831 (Simulation time: 1 hr 17 min 6 sec) 
Heartbeat CPU 0 instructions: 86000000 cycles: 110482789 heartbeat IPC: 0.363146 cumulative IPC: 0.402579 (Simulation time: 1 hr 17 min 41 sec) 
Heartbeat CPU 0 instructions: 87000000 cycles: 113700182 heartbeat IPC: 0.310811 cumulative IPC: 0.399391 (Simulation time: 1 hr 18 min 25 sec) 
Heartbeat CPU 0 instructions: 88000000 cycles: 115873961 heartbeat IPC: 0.460028 cumulative IPC: 0.400782 (Simulation time: 1 hr 19 min 4 sec) 
Heartbeat CPU 0 instructions: 89000001 cycles: 119163723 heartbeat IPC: 0.303974 cumulative IPC: 0.397535 (Simulation time: 1 hr 19 min 48 sec) 
Heartbeat CPU 0 instructions: 90000002 cycles: 120399275 heartbeat IPC: 0.809356 cumulative IPC: 0.402657 (Simulation time: 1 hr 20 min 8 sec) 
Heartbeat CPU 0 instructions: 91000000 cycles: 121726150 heartbeat IPC: 0.753649 cumulative IPC: 0.407284 (Simulation time: 1 hr 20 min 30 sec) 
Heartbeat CPU 0 instructions: 92000000 cycles: 125064978 heartbeat IPC: 0.299506 cumulative IPC: 0.403824 (Simulation time: 1 hr 21 min 2 sec) 
Heartbeat CPU 0 instructions: 93000000 cycles: 127689780 heartbeat IPC: 0.380981 cumulative IPC: 0.403262 (Simulation time: 1 hr 21 min 28 sec) 
Heartbeat CPU 0 instructions: 94000001 cycles: 130233034 heartbeat IPC: 0.393197 cumulative IPC: 0.403027 (Simulation time: 1 hr 21 min 49 sec) 
Heartbeat CPU 0 instructions: 95000003 cycles: 133572134 heartbeat IPC: 0.299482 cumulative IPC: 0.399954 (Simulation time: 1 hr 22 min 23 sec) 
Heartbeat CPU 0 instructions: 96000000 cycles: 135406271 heartbeat IPC: 0.545214 cumulative IPC: 0.402284 (Simulation time: 1 hr 22 min 49 sec) 
Heartbeat CPU 0 instructions: 97000003 cycles: 138478256 heartbeat IPC: 0.325523 cumulative IPC: 0.400276 (Simulation time: 1 hr 23 min 15 sec) 
Heartbeat CPU 0 instructions: 98000003 cycles: 139711577 heartbeat IPC: 0.810819 cumulative IPC: 0.404543 (Simulation time: 1 hr 23 min 29 sec) 
Heartbeat CPU 0 instructions: 99000000 cycles: 142122209 heartbeat IPC: 0.414828 cumulative IPC: 0.404748 (Simulation time: 1 hr 23 min 47 sec) 
Heartbeat CPU 0 instructions: 100000000 cycles: 144846372 heartbeat IPC: 0.367085 cumulative IPC: 0.403919 (Simulation time: 1 hr 24 min 7 sec) 
Heartbeat CPU 0 instructions: 101000001 cycles: 147433582 heartbeat IPC: 0.386517 cumulative IPC: 0.403563 (Simulation time: 1 hr 24 min 22 sec) 
Heartbeat CPU 0 instructions: 102000002 cycles: 150229897 heartbeat IPC: 0.357614 cumulative IPC: 0.402568 (Simulation time: 1 hr 24 min 41 sec) 
Heartbeat CPU 0 instructions: 103000002 cycles: 153470330 heartbeat IPC: 0.308601 cumulative IPC: 0.400269 (Simulation time: 1 hr 25 min 6 sec) 
Heartbeat CPU 0 instructions: 104000000 cycles: 155616977 heartbeat IPC: 0.465842 cumulative IPC: 0.401315 (Simulation time: 1 hr 25 min 26 sec) 
Heartbeat CPU 0 instructions: 105000000 cycles: 157914669 heartbeat IPC: 0.435219 cumulative IPC: 0.401884 (Simulation time: 1 hr 25 min 41 sec) 
Heartbeat CPU 0 instructions: 106000001 cycles: 159125593 heartbeat IPC: 0.825817 cumulative IPC: 0.405602 (Simulation time: 1 hr 25 min 52 sec) 
Heartbeat CPU 0 instructions: 107000001 cycles: 162120022 heartbeat IPC: 0.333953 cumulative IPC: 0.404081 (Simulation time: 1 hr 26 min 7 sec) 
Heartbeat CPU 0 instructions: 108000000 cycles: 164458264 heartbeat IPC: 0.427671 cumulative IPC: 0.404466 (Simulation time: 1 hr 26 min 18 sec) 
Heartbeat CPU 0 instructions: 109000003 cycles: 167055877 heartbeat IPC: 0.38497 cumulative IPC: 0.404119 (Simulation time: 1 hr 26 min 30 sec) 
Heartbeat CPU 0 instructions: 110000001 cycles: 170342010 heartbeat IPC: 0.304308 cumulative IPC: 0.401922 (Simulation time: 1 hr 26 min 48 sec) 
Heartbeat CPU 0 instructions: 111000001 cycles: 172318961 heartbeat IPC: 0.505829 cumulative IPC: 0.40328 (Simulation time: 1 hr 27 min 0 sec) 
Heartbeat CPU 0 instructions: 112000000 cycles: 174286514 heartbeat IPC: 0.508245 cumulative IPC: 0.404628 (Simulation time: 1 hr 27 min 13 sec) 
Heartbeat CPU 0 instructions: 113000000 cycles: 176893967 heartbeat IPC: 0.383516 cumulative IPC: 0.404274 (Simulation time: 1 hr 27 min 25 sec) 
Heartbeat CPU 0 instructions: 114000000 cycles: 178136249 heartbeat IPC: 0.80497 cumulative IPC: 0.407443 (Simulation time: 1 hr 27 min 33 sec) 
Heartbeat CPU 0 instructions: 115000003 cycles: 180991495 heartbeat IPC: 0.350234 cumulative IPC: 0.406422 (Simulation time: 1 hr 27 min 44 sec) 
Heartbeat CPU 0 instructions: 116000000 cycles: 183412781 heartbeat IPC: 0.413002 cumulative IPC: 0.40652 (Simulation time: 1 hr 27 min 54 sec) 
Heartbeat CPU 0 instructions: 117000000 cycles: 186110737 heartbeat IPC: 0.370651 cumulative IPC: 0.405934 (Simulation time: 1 hr 28 min 3 sec) 
Heartbeat CPU 0 instructions: 118000003 cycles: 189489186 heartbeat IPC: 0.295995 cumulative IPC: 0.403729 (Simulation time: 1 hr 28 min 16 sec) 
Heartbeat CPU 0 instructions: 119000002 cycles: 191412260 heartbeat IPC: 0.52 cumulative IPC: 0.405041 (Simulation time: 1 hr 28 min 26 sec) 
Heartbeat CPU 0 instructions: 120000000 cycles: 193331464 heartbeat IPC: 0.521048 cumulative IPC: 0.406334 (Simulation time: 1 hr 28 min 35 sec) 
Heartbeat CPU 0 instructions: 121000000 cycles: 196117064 heartbeat IPC: 0.358989 cumulative IPC: 0.40558 (Simulation time: 1 hr 28 min 42 sec) 
Heartbeat CPU 0 instructions: 122000000 cycles: 197320557 heartbeat IPC: 0.830915 cumulative IPC: 0.408484 (Simulation time: 1 hr 28 min 46 sec) 
Heartbeat CPU 0 instructions: 123000000 cycles: 200108401 heartbeat IPC: 0.3587 cumulative IPC: 0.407709 (Simulation time: 1 hr 28 min 52 sec) 
Heartbeat CPU 0 instructions: 124000000 cycles: 202714006 heartbeat IPC: 0.383788 cumulative IPC: 0.407366 (Simulation time: 1 hr 28 min 58 sec) 
Heartbeat CPU 0 instructions: 125000001 cycles: 205318847 heartbeat IPC: 0.383901 cumulative IPC: 0.407034 (Simulation time: 1 hr 29 min 2 sec) 
Heartbeat CPU 0 instructions: 126000000 cycles: 208205822 heartbeat IPC: 0.346383 cumulative IPC: 0.406099 (Simulation time: 1 hr 29 min 8 sec) 
Heartbeat CPU 0 instructions: 127000002 cycles: 211097579 heartbeat IPC: 0.345811 cumulative IPC: 0.405181 (Simulation time: 1 hr 29 min 15 sec) 
Heartbeat CPU 0 instructions: 128000000 cycles: 213447604 heartbeat IPC: 0.425527 cumulative IPC: 0.40543 (Simulation time: 1 hr 29 min 22 sec) 
Heartbeat CPU 0 instructions: 129000000 cycles: 215572595 heartbeat IPC: 0.47059 cumulative IPC: 0.406142 (Simulation time: 1 hr 29 min 27 sec) 
Heartbeat CPU 0 instructions: 130000000 cycles: 216846070 heartbeat IPC: 0.785253 cumulative IPC: 0.408608 (Simulation time: 1 hr 29 min 31 sec) 
Heartbeat CPU 0 instructions: 131000000 cycles: 219959638 heartbeat IPC: 0.321175 cumulative IPC: 0.407239 (Simulation time: 1 hr 29 min 37 sec) 
Heartbeat CPU 0 instructions: 132000000 cycles: 222407785 heartbeat IPC: 0.408472 cumulative IPC: 0.407254 (Simulation time: 1 hr 29 min 42 sec) 
Heartbeat CPU 0 instructions: 133000000 cycles: 225014678 heartbeat IPC: 0.383598 cumulative IPC: 0.406952 (Simulation time: 1 hr 29 min 46 sec) 
Heartbeat CPU 0 instructions: 134000001 cycles: 228448649 heartbeat IPC: 0.291208 cumulative IPC: 0.405035 (Simulation time: 1 hr 29 min 52 sec) 
Heartbeat CPU 0 instructions: 135000003 cycles: 230452789 heartbeat IPC: 0.498968 cumulative IPC: 0.405934 (Simulation time: 1 hr 29 min 57 sec) 
Heartbeat CPU 0 instructions: 136000000 cycles: 232431809 heartbeat IPC: 0.505299 cumulative IPC: 0.406865 (Simulation time: 1 hr 30 min 3 sec) 
Heartbeat CPU 0 instructions: 137000000 cycles: 235105298 heartbeat IPC: 0.374043 cumulative IPC: 0.406455 (Simulation time: 1 hr 30 min 8 sec) 
Heartbeat CPU 0 instructions: 138000000 cycles: 236305914 heartbeat IPC: 0.832906 cumulative IPC: 0.408833 (Simulation time: 1 hr 30 min 11 sec) 
Heartbeat CPU 0 instructions: 139000001 cycles: 239085243 heartbeat IPC: 0.359799 cumulative IPC: 0.408208 (Simulation time: 1 hr 30 min 16 sec) 
Heartbeat CPU 0 instructions: 140000000 cycles: 241504005 heartbeat IPC: 0.413434 cumulative IPC: 0.408266 (Simulation time: 1 hr 30 min 21 sec) 
Heartbeat CPU 0 instructions: 141000003 cycles: 244148002 heartbeat IPC: 0.378216 cumulative IPC: 0.407909 (Simulation time: 1 hr 30 min 25 sec) 
Heartbeat CPU 0 instructions: 142000001 cycles: 247392853 heartbeat IPC: 0.30818 cumulative IPC: 0.40648 (Simulation time: 1 hr 30 min 31 sec) 
Heartbeat CPU 0 instructions: 143000001 cycles: 252026690 heartbeat IPC: 0.215804 cumulative IPC: 0.402654 (Simulation time: 1 hr 30 min 37 sec) 
Heartbeat CPU 0 instructions: 144000000 cycles: 255690380 heartbeat IPC: 0.272949 cumulative IPC: 0.400629 (Simulation time: 1 hr 30 min 42 sec) 
Heartbeat CPU 0 instructions: 145000001 cycles: 258642785 heartbeat IPC: 0.338707 cumulative IPC: 0.399859 (Simulation time: 1 hr 30 min 48 sec) 
Heartbeat CPU 0 instructions: 146000000 cycles: 262516536 heartbeat IPC: 0.258147 cumulative IPC: 0.397586 (Simulation time: 1 hr 30 min 53 sec) 
Heartbeat CPU 0 instructions: 147000000 cycles: 265063416 heartbeat IPC: 0.392637 cumulative IPC: 0.397534 (Simulation time: 1 hr 30 min 58 sec) 
Heartbeat CPU 0 instructions: 148000000 cycles: 268200362 heartbeat IPC: 0.318781 cumulative IPC: 0.396535 (Simulation time: 1 hr 31 min 4 sec) 
Heartbeat CPU 0 instructions: 149000000 cycles: 271386294 heartbeat IPC: 0.31388 cumulative IPC: 0.395483 (Simulation time: 1 hr 31 min 8 sec) 
Heartbeat CPU 0 instructions: 150000001 cycles: 274254032 heartbeat IPC: 0.348707 cumulative IPC: 0.394953 (Simulation time: 1 hr 31 min 13 sec) 
Finished CPU 0 instructions: 100000001 cycles: 253194789 cummulative IPC: 0.394953 (Simulation time: 1 hr 31 min 13 sec) 

ChampSim completed all CPUs

Region of Interest Statistics

CPU 0 cummulative IPC: 0.394953 instructions: 100000001 cycles: 253194789
LLC TOTAL     ACCESS:    6713053  HIT:    3330044  MISS:    3383009
LLC LOAD      ACCESS:    1678929  HIT:     729492  MISS:     949437
LLC RFO       ACCESS:     736907  HIT:     238119  MISS:     498788
LLC PREFETCH  ACCESS:    2657062  HIT:    1168782  MISS:    1488280
LLC WRITEBACK ACCESS:    1640155  HIT:    1193651  MISS:     446504
OPTgen accesses: 53028
OPTgen hits: 32763
OPTgen hit rate: 61.7843


