
*** ChampSim Multicore Out-of-Order Simulator ***

Warmup Instructions: 50000000
Simulation Instructions: 100000000
Configuration: 2
Number of CPUs: 1
LLC sets: 2048
LLC ways: 16
Off-chip DRAM Channels: 1 Width: 64-bit Data Rate: 1600 MT/s

CPU 0 runs /datasets/cs240c-wi22-a00-public/data/Assignment2-gz/cactusADM_734B.trace.gz
CPU 0 L1D next line prefetcher
CPU 0 L2C IP-based stride prefetcher
Initialize Hawkeye state
Heartbeat CPU 0 instructions: 1000003 cycles: 592726 heartbeat IPC: 1.68713 cumulative IPC: 1.68713 (Simulation time: 0 hr 0 min 36 sec) 
Heartbeat CPU 0 instructions: 2000001 cycles: 1185927 heartbeat IPC: 1.68577 cumulative IPC: 1.68645 (Simulation time: 0 hr 1 min 14 sec) 
Heartbeat CPU 0 instructions: 3000003 cycles: 1778979 heartbeat IPC: 1.6862 cumulative IPC: 1.68636 (Simulation time: 0 hr 1 min 49 sec) 
Heartbeat CPU 0 instructions: 4000000 cycles: 2371929 heartbeat IPC: 1.68648 cumulative IPC: 1.68639 (Simulation time: 0 hr 2 min 24 sec) 
Heartbeat CPU 0 instructions: 5000000 cycles: 2965279 heartbeat IPC: 1.68535 cumulative IPC: 1.68618 (Simulation time: 0 hr 3 min 2 sec) 
Heartbeat CPU 0 instructions: 6000002 cycles: 3558551 heartbeat IPC: 1.68557 cumulative IPC: 1.68608 (Simulation time: 0 hr 3 min 38 sec) 
Heartbeat CPU 0 instructions: 7000000 cycles: 4151394 heartbeat IPC: 1.68678 cumulative IPC: 1.68618 (Simulation time: 0 hr 4 min 15 sec) 
Heartbeat CPU 0 instructions: 8000000 cycles: 4744343 heartbeat IPC: 1.68649 cumulative IPC: 1.68622 (Simulation time: 0 hr 4 min 52 sec) 
Heartbeat CPU 0 instructions: 9000001 cycles: 5337493 heartbeat IPC: 1.68592 cumulative IPC: 1.68619 (Simulation time: 0 hr 5 min 27 sec) 
Heartbeat CPU 0 instructions: 10000003 cycles: 5958967 heartbeat IPC: 1.60908 cumulative IPC: 1.67814 (Simulation time: 0 hr 6 min 4 sec) 
Heartbeat CPU 0 instructions: 11000003 cycles: 6686336 heartbeat IPC: 1.37482 cumulative IPC: 1.64515 (Simulation time: 0 hr 6 min 48 sec) 
Heartbeat CPU 0 instructions: 12000000 cycles: 7279034 heartbeat IPC: 1.68719 cumulative IPC: 1.64857 (Simulation time: 0 hr 7 min 25 sec) 
Heartbeat CPU 0 instructions: 13000002 cycles: 7872643 heartbeat IPC: 1.68461 cumulative IPC: 1.65129 (Simulation time: 0 hr 8 min 1 sec) 
Heartbeat CPU 0 instructions: 14000000 cycles: 8465789 heartbeat IPC: 1.68592 cumulative IPC: 1.65371 (Simulation time: 0 hr 8 min 36 sec) 
Heartbeat CPU 0 instructions: 15000000 cycles: 9058690 heartbeat IPC: 1.68662 cumulative IPC: 1.65587 (Simulation time: 0 hr 9 min 13 sec) 
Heartbeat CPU 0 instructions: 16000000 cycles: 9651934 heartbeat IPC: 1.68565 cumulative IPC: 1.6577 (Simulation time: 0 hr 9 min 51 sec) 
Heartbeat CPU 0 instructions: 17000002 cycles: 10245052 heartbeat IPC: 1.68601 cumulative IPC: 1.65934 (Simulation time: 0 hr 10 min 28 sec) 
Heartbeat CPU 0 instructions: 18000001 cycles: 10838494 heartbeat IPC: 1.68508 cumulative IPC: 1.66075 (Simulation time: 0 hr 11 min 6 sec) 
Heartbeat CPU 0 instructions: 19000001 cycles: 11431295 heartbeat IPC: 1.68691 cumulative IPC: 1.6621 (Simulation time: 0 hr 11 min 41 sec) 
Heartbeat CPU 0 instructions: 20000000 cycles: 12024523 heartbeat IPC: 1.68569 cumulative IPC: 1.66327 (Simulation time: 0 hr 12 min 19 sec) 
Heartbeat CPU 0 instructions: 21000002 cycles: 12617792 heartbeat IPC: 1.68558 cumulative IPC: 1.66432 (Simulation time: 0 hr 12 min 55 sec) 
Heartbeat CPU 0 instructions: 22000000 cycles: 13210834 heartbeat IPC: 1.68622 cumulative IPC: 1.6653 (Simulation time: 0 hr 13 min 33 sec) 
Heartbeat CPU 0 instructions: 23000001 cycles: 13804229 heartbeat IPC: 1.68522 cumulative IPC: 1.66616 (Simulation time: 0 hr 14 min 10 sec) 
Heartbeat CPU 0 instructions: 24000000 cycles: 14558140 heartbeat IPC: 1.32642 cumulative IPC: 1.64856 (Simulation time: 0 hr 14 min 52 sec) 
Heartbeat CPU 0 instructions: 25000000 cycles: 15151136 heartbeat IPC: 1.68635 cumulative IPC: 1.65004 (Simulation time: 0 hr 15 min 31 sec) 
Heartbeat CPU 0 instructions: 26000001 cycles: 15743811 heartbeat IPC: 1.68727 cumulative IPC: 1.65144 (Simulation time: 0 hr 16 min 11 sec) 
Heartbeat CPU 0 instructions: 27000003 cycles: 16337202 heartbeat IPC: 1.68523 cumulative IPC: 1.65267 (Simulation time: 0 hr 16 min 49 sec) 
Heartbeat CPU 0 instructions: 28000000 cycles: 16930178 heartbeat IPC: 1.6864 cumulative IPC: 1.65385 (Simulation time: 0 hr 17 min 26 sec) 
Heartbeat CPU 0 instructions: 29000001 cycles: 17523451 heartbeat IPC: 1.68557 cumulative IPC: 1.65493 (Simulation time: 0 hr 18 min 1 sec) 
Heartbeat CPU 0 instructions: 30000001 cycles: 18116072 heartbeat IPC: 1.68742 cumulative IPC: 1.65599 (Simulation time: 0 hr 18 min 41 sec) 
Heartbeat CPU 0 instructions: 31000000 cycles: 18709209 heartbeat IPC: 1.68595 cumulative IPC: 1.65694 (Simulation time: 0 hr 19 min 16 sec) 
Heartbeat CPU 0 instructions: 32000000 cycles: 19302307 heartbeat IPC: 1.68606 cumulative IPC: 1.65783 (Simulation time: 0 hr 19 min 52 sec) 
Heartbeat CPU 0 instructions: 33000000 cycles: 19895065 heartbeat IPC: 1.68703 cumulative IPC: 1.6587 (Simulation time: 0 hr 20 min 25 sec) 
Heartbeat CPU 0 instructions: 34000002 cycles: 20488323 heartbeat IPC: 1.68561 cumulative IPC: 1.65948 (Simulation time: 0 hr 21 min 1 sec) 
Heartbeat CPU 0 instructions: 35000001 cycles: 21081354 heartbeat IPC: 1.68625 cumulative IPC: 1.66023 (Simulation time: 0 hr 21 min 38 sec) 
Heartbeat CPU 0 instructions: 36000000 cycles: 21674464 heartbeat IPC: 1.68603 cumulative IPC: 1.66094 (Simulation time: 0 hr 22 min 16 sec) 
Heartbeat CPU 0 instructions: 37000003 cycles: 22428178 heartbeat IPC: 1.32677 cumulative IPC: 1.64971 (Simulation time: 0 hr 23 min 1 sec) 
Heartbeat CPU 0 instructions: 38000001 cycles: 23021263 heartbeat IPC: 1.6861 cumulative IPC: 1.65065 (Simulation time: 0 hr 23 min 44 sec) 
Heartbeat CPU 0 instructions: 39000003 cycles: 23614243 heartbeat IPC: 1.6864 cumulative IPC: 1.65155 (Simulation time: 0 hr 24 min 22 sec) 
Heartbeat CPU 0 instructions: 40000000 cycles: 24207046 heartbeat IPC: 1.6869 cumulative IPC: 1.65241 (Simulation time: 0 hr 24 min 57 sec) 
Heartbeat CPU 0 instructions: 41000001 cycles: 24800269 heartbeat IPC: 1.68571 cumulative IPC: 1.65321 (Simulation time: 0 hr 25 min 36 sec) 
Heartbeat CPU 0 instructions: 42000002 cycles: 25393343 heartbeat IPC: 1.68613 cumulative IPC: 1.65398 (Simulation time: 0 hr 26 min 13 sec) 
Heartbeat CPU 0 instructions: 43000000 cycles: 25986407 heartbeat IPC: 1.68616 cumulative IPC: 1.65471 (Simulation time: 0 hr 26 min 53 sec) 
Heartbeat CPU 0 instructions: 44000000 cycles: 26579260 heartbeat IPC: 1.68676 cumulative IPC: 1.65543 (Simulation time: 0 hr 27 min 30 sec) 
Heartbeat CPU 0 instructions: 45000003 cycles: 27172245 heartbeat IPC: 1.68639 cumulative IPC: 1.6561 (Simulation time: 0 hr 28 min 10 sec) 
Heartbeat CPU 0 instructions: 46000003 cycles: 27765503 heartbeat IPC: 1.68561 cumulative IPC: 1.65673 (Simulation time: 0 hr 28 min 45 sec) 
Heartbeat CPU 0 instructions: 47000001 cycles: 28358115 heartbeat IPC: 1.68744 cumulative IPC: 1.65737 (Simulation time: 0 hr 29 min 20 sec) 
Heartbeat CPU 0 instructions: 48000000 cycles: 28951079 heartbeat IPC: 1.68644 cumulative IPC: 1.65797 (Simulation time: 0 hr 29 min 57 sec) 
Heartbeat CPU 0 instructions: 49000000 cycles: 29544074 heartbeat IPC: 1.68635 cumulative IPC: 1.65854 (Simulation time: 0 hr 30 min 38 sec) 
Heartbeat CPU 0 instructions: 50000000 cycles: 30298343 heartbeat IPC: 1.32579 cumulative IPC: 1.65026 (Simulation time: 0 hr 31 min 21 sec) 

Warmup complete CPU 0 instructions: 50000004 cycles: 30298344 (Simulation time: 0 hr 31 min 21 sec) 

Heartbeat CPU 0 instructions: 51000000 cycles: 32026343 heartbeat IPC: 0.578704 cumulative IPC: 0.578702 (Simulation time: 0 hr 31 min 59 sec) 
Heartbeat CPU 0 instructions: 52000000 cycles: 33764289 heartbeat IPC: 0.575392 cumulative IPC: 0.577042 (Simulation time: 0 hr 32 min 38 sec) 
Heartbeat CPU 0 instructions: 53000003 cycles: 35501919 heartbeat IPC: 0.575498 cumulative IPC: 0.576527 (Simulation time: 0 hr 33 min 16 sec) 
Heartbeat CPU 0 instructions: 54000000 cycles: 37187494 heartbeat IPC: 0.593268 cumulative IPC: 0.580623 (Simulation time: 0 hr 33 min 55 sec) 
Heartbeat CPU 0 instructions: 55000001 cycles: 38863122 heartbeat IPC: 0.596792 cumulative IPC: 0.583786 (Simulation time: 0 hr 34 min 34 sec) 
Heartbeat CPU 0 instructions: 56000000 cycles: 40613465 heartbeat IPC: 0.571316 cumulative IPC: 0.58167 (Simulation time: 0 hr 35 min 14 sec) 
Heartbeat CPU 0 instructions: 57000000 cycles: 42361117 heartbeat IPC: 0.572196 cumulative IPC: 0.580297 (Simulation time: 0 hr 35 min 52 sec) 
Heartbeat CPU 0 instructions: 58000001 cycles: 44093249 heartbeat IPC: 0.577324 cumulative IPC: 0.579924 (Simulation time: 0 hr 36 min 29 sec) 
Heartbeat CPU 0 instructions: 59000000 cycles: 45750694 heartbeat IPC: 0.603338 cumulative IPC: 0.582435 (Simulation time: 0 hr 37 min 9 sec) 
Heartbeat CPU 0 instructions: 60000000 cycles: 47456331 heartbeat IPC: 0.586291 cumulative IPC: 0.582819 (Simulation time: 0 hr 37 min 50 sec) 
Heartbeat CPU 0 instructions: 61000002 cycles: 49195900 heartbeat IPC: 0.574856 cumulative IPC: 0.582086 (Simulation time: 0 hr 38 min 30 sec) 
Heartbeat CPU 0 instructions: 62000002 cycles: 50935315 heartbeat IPC: 0.574906 cumulative IPC: 0.581481 (Simulation time: 0 hr 39 min 7 sec) 
Heartbeat CPU 0 instructions: 63000002 cycles: 58287025 heartbeat IPC: 0.136023 cumulative IPC: 0.464473 (Simulation time: 0 hr 39 min 51 sec) 
Heartbeat CPU 0 instructions: 64000000 cycles: 60233379 heartbeat IPC: 0.51378 cumulative IPC: 0.467679 (Simulation time: 0 hr 40 min 33 sec) 
Heartbeat CPU 0 instructions: 65000003 cycles: 61969083 heartbeat IPC: 0.576137 cumulative IPC: 0.473623 (Simulation time: 0 hr 41 min 11 sec) 
Heartbeat CPU 0 instructions: 66000001 cycles: 63708233 heartbeat IPC: 0.574992 cumulative IPC: 0.4789 (Simulation time: 0 hr 41 min 48 sec) 
Heartbeat CPU 0 instructions: 67000000 cycles: 65442145 heartbeat IPC: 0.57673 cumulative IPC: 0.483727 (Simulation time: 0 hr 42 min 27 sec) 
Heartbeat CPU 0 instructions: 68000000 cycles: 67103647 heartbeat IPC: 0.601865 cumulative IPC: 0.48906 (Simulation time: 0 hr 43 min 7 sec) 
Heartbeat CPU 0 instructions: 69000000 cycles: 68803685 heartbeat IPC: 0.588222 cumulative IPC: 0.493438 (Simulation time: 0 hr 43 min 46 sec) 
Heartbeat CPU 0 instructions: 70000001 cycles: 70543057 heartbeat IPC: 0.574921 cumulative IPC: 0.49696 (Simulation time: 0 hr 44 min 23 sec) 
Heartbeat CPU 0 instructions: 71000001 cycles: 72283956 heartbeat IPC: 0.574416 cumulative IPC: 0.500171 (Simulation time: 0 hr 45 min 1 sec) 
Heartbeat CPU 0 instructions: 72000000 cycles: 74003293 heartbeat IPC: 0.581619 cumulative IPC: 0.503375 (Simulation time: 0 hr 45 min 39 sec) 
Heartbeat CPU 0 instructions: 73000003 cycles: 75652141 heartbeat IPC: 0.606486 cumulative IPC: 0.507124 (Simulation time: 0 hr 46 min 18 sec) 
Heartbeat CPU 0 instructions: 74000002 cycles: 77383722 heartbeat IPC: 0.577506 cumulative IPC: 0.509712 (Simulation time: 0 hr 46 min 55 sec) 
Heartbeat CPU 0 instructions: 75000002 cycles: 79123813 heartbeat IPC: 0.574683 cumulative IPC: 0.512028 (Simulation time: 0 hr 47 min 32 sec) 
Heartbeat CPU 0 instructions: 76000000 cycles: 85287681 heartbeat IPC: 0.162235 cumulative IPC: 0.472819 (Simulation time: 0 hr 48 min 16 sec) 
Heartbeat CPU 0 instructions: 77000000 cycles: 88463764 heartbeat IPC: 0.314853 cumulative IPC: 0.464193 (Simulation time: 0 hr 49 min 0 sec) 
Heartbeat CPU 0 instructions: 78000002 cycles: 90159292 heartbeat IPC: 0.589788 cumulative IPC: 0.467751 (Simulation time: 0 hr 49 min 41 sec) 
Heartbeat CPU 0 instructions: 79000002 cycles: 91899241 heartbeat IPC: 0.57473 cumulative IPC: 0.470772 (Simulation time: 0 hr 50 min 19 sec) 
Heartbeat CPU 0 instructions: 80000000 cycles: 93635497 heartbeat IPC: 0.575951 cumulative IPC: 0.473656 (Simulation time: 0 hr 51 min 0 sec) 
Heartbeat CPU 0 instructions: 81000000 cycles: 95361063 heartbeat IPC: 0.57952 cumulative IPC: 0.476463 (Simulation time: 0 hr 51 min 42 sec) 
Heartbeat CPU 0 instructions: 82000003 cycles: 97004939 heartbeat IPC: 0.60832 cumulative IPC: 0.479713 (Simulation time: 0 hr 52 min 24 sec) 
Heartbeat CPU 0 instructions: 83000003 cycles: 98732668 heartbeat IPC: 0.578794 cumulative IPC: 0.482214 (Simulation time: 0 hr 53 min 8 sec) 
Heartbeat CPU 0 instructions: 84000000 cycles: 100470811 heartbeat IPC: 0.575325 cumulative IPC: 0.48452 (Simulation time: 0 hr 53 min 51 sec) 
Heartbeat CPU 0 instructions: 85000003 cycles: 102209326 heartbeat IPC: 0.575205 cumulative IPC: 0.486713 (Simulation time: 0 hr 54 min 30 sec) 
Heartbeat CPU 0 instructions: 86000000 cycles: 103902382 heartbeat IPC: 0.590646 cumulative IPC: 0.489104 (Simulation time: 0 hr 55 min 11 sec) 
Heartbeat CPU 0 instructions: 87000000 cycles: 105575624 heartbeat IPC: 0.597642 cumulative IPC: 0.491516 (Simulation time: 0 hr 55 min 51 sec) 
Heartbeat CPU 0 instructions: 88000000 cycles: 107342564 heartbeat IPC: 0.56595 cumulative IPC: 0.493223 (Simulation time: 0 hr 56 min 30 sec) 
Heartbeat CPU 0 instructions: 89000002 cycles: 112437255 heartbeat IPC: 0.196283 cumulative IPC: 0.474805 (Simulation time: 0 hr 57 min 13 sec) 
Heartbeat CPU 0 instructions: 90000002 cycles: 116687205 heartbeat IPC: 0.235297 cumulative IPC: 0.463023 (Simulation time: 0 hr 57 min 55 sec) 
Heartbeat CPU 0 instructions: 91000003 cycles: 118334561 heartbeat IPC: 0.607034 cumulative IPC: 0.465717 (Simulation time: 0 hr 58 min 34 sec) 
Heartbeat CPU 0 instructions: 92000000 cycles: 120062110 heartbeat IPC: 0.578853 cumulative IPC: 0.467895 (Simulation time: 0 hr 59 min 11 sec) 
Heartbeat CPU 0 instructions: 93000000 cycles: 121800365 heartbeat IPC: 0.57529 cumulative IPC: 0.469935 (Simulation time: 0 hr 59 min 52 sec) 
Heartbeat CPU 0 instructions: 94000003 cycles: 123540270 heartbeat IPC: 0.574746 cumulative IPC: 0.471891 (Simulation time: 1 hr 0 min 31 sec) 
Heartbeat CPU 0 instructions: 95000000 cycles: 125238215 heartbeat IPC: 0.588945 cumulative IPC: 0.473984 (Simulation time: 1 hr 1 min 6 sec) 
Heartbeat CPU 0 instructions: 96000000 cycles: 126908505 heartbeat IPC: 0.598698 cumulative IPC: 0.47614 (Simulation time: 1 hr 1 min 52 sec) 
Heartbeat CPU 0 instructions: 97000001 cycles: 128643507 heartbeat IPC: 0.576369 cumulative IPC: 0.477909 (Simulation time: 1 hr 2 min 31 sec) 
Heartbeat CPU 0 instructions: 98000000 cycles: 130384015 heartbeat IPC: 0.574544 cumulative IPC: 0.479589 (Simulation time: 1 hr 3 min 8 sec) 
Heartbeat CPU 0 instructions: 99000001 cycles: 132123076 heartbeat IPC: 0.575024 cumulative IPC: 0.481219 (Simulation time: 1 hr 3 min 44 sec) 
Heartbeat CPU 0 instructions: 100000000 cycles: 133791680 heartbeat IPC: 0.599303 cumulative IPC: 0.483123 (Simulation time: 1 hr 4 min 24 sec) 
Heartbeat CPU 0 instructions: 101000000 cycles: 135494100 heartbeat IPC: 0.587399 cumulative IPC: 0.48481 (Simulation time: 1 hr 5 min 4 sec) 
Heartbeat CPU 0 instructions: 102000002 cycles: 139506420 heartbeat IPC: 0.249233 cumulative IPC: 0.476155 (Simulation time: 1 hr 5 min 44 sec) 
Heartbeat CPU 0 instructions: 103000000 cycles: 144841787 heartbeat IPC: 0.187428 cumulative IPC: 0.462707 (Simulation time: 1 hr 6 min 25 sec) 
Heartbeat CPU 0 instructions: 104000000 cycles: 146545034 heartbeat IPC: 0.587114 cumulative IPC: 0.464529 (Simulation time: 1 hr 7 min 4 sec) 
Heartbeat CPU 0 instructions: 105000000 cycles: 148208176 heartbeat IPC: 0.601272 cumulative IPC: 0.466458 (Simulation time: 1 hr 7 min 41 sec) 
Heartbeat CPU 0 instructions: 106000002 cycles: 149940268 heartbeat IPC: 0.577338 cumulative IPC: 0.468063 (Simulation time: 1 hr 8 min 21 sec) 
Heartbeat CPU 0 instructions: 107000001 cycles: 151680223 heartbeat IPC: 0.574727 cumulative IPC: 0.469592 (Simulation time: 1 hr 8 min 58 sec) 
Heartbeat CPU 0 instructions: 108000000 cycles: 153415329 heartbeat IPC: 0.576333 cumulative IPC: 0.471097 (Simulation time: 1 hr 9 min 34 sec) 
Heartbeat CPU 0 instructions: 109000001 cycles: 155088698 heartbeat IPC: 0.597597 cumulative IPC: 0.472793 (Simulation time: 1 hr 10 min 9 sec) 
Heartbeat CPU 0 instructions: 110000003 cycles: 156781347 heartbeat IPC: 0.590791 cumulative IPC: 0.474372 (Simulation time: 1 hr 10 min 42 sec) 
Heartbeat CPU 0 instructions: 111000002 cycles: 158519196 heartbeat IPC: 0.575423 cumulative IPC: 0.475742 (Simulation time: 1 hr 11 min 13 sec) 
Heartbeat CPU 0 instructions: 112000000 cycles: 160260087 heartbeat IPC: 0.574417 cumulative IPC: 0.477063 (Simulation time: 1 hr 11 min 46 sec) 
Heartbeat CPU 0 instructions: 113000002 cycles: 161987384 heartbeat IPC: 0.57894 cumulative IPC: 0.4784 (Simulation time: 1 hr 12 min 17 sec) 
Heartbeat CPU 0 instructions: 114000000 cycles: 163633955 heartbeat IPC: 0.607322 cumulative IPC: 0.479992 (Simulation time: 1 hr 12 min 49 sec) 
Heartbeat CPU 0 instructions: 115000002 cycles: 166437535 heartbeat IPC: 0.356688 cumulative IPC: 0.477453 (Simulation time: 1 hr 13 min 23 sec) 
Heartbeat CPU 0 instructions: 116000000 cycles: 172954133 heartbeat IPC: 0.153454 cumulative IPC: 0.462652 (Simulation time: 1 hr 14 min 1 sec) 
Heartbeat CPU 0 instructions: 117000000 cycles: 174702987 heartbeat IPC: 0.571803 cumulative IPC: 0.463974 (Simulation time: 1 hr 14 min 34 sec) 
Heartbeat CPU 0 instructions: 118000002 cycles: 176382331 heartbeat IPC: 0.595472 cumulative IPC: 0.465486 (Simulation time: 1 hr 15 min 5 sec) 
Heartbeat CPU 0 instructions: 119000003 cycles: 178072351 heartbeat IPC: 0.59171 cumulative IPC: 0.466929 (Simulation time: 1 hr 15 min 36 sec) 
Heartbeat CPU 0 instructions: 120000000 cycles: 179813154 heartbeat IPC: 0.574446 cumulative IPC: 0.468181 (Simulation time: 1 hr 16 min 6 sec) 
Heartbeat CPU 0 instructions: 121000001 cycles: 181555521 heartbeat IPC: 0.573932 cumulative IPC: 0.469399 (Simulation time: 1 hr 16 min 39 sec) 
Heartbeat CPU 0 instructions: 122000003 cycles: 183285329 heartbeat IPC: 0.5781 cumulative IPC: 0.470628 (Simulation time: 1 hr 17 min 10 sec) 
Heartbeat CPU 0 instructions: 123000000 cycles: 184938651 heartbeat IPC: 0.604841 cumulative IPC: 0.472063 (Simulation time: 1 hr 17 min 40 sec) 
Heartbeat CPU 0 instructions: 124000000 cycles: 186663064 heartbeat IPC: 0.579907 cumulative IPC: 0.473253 (Simulation time: 1 hr 18 min 8 sec) 
Heartbeat CPU 0 instructions: 125000002 cycles: 188404299 heartbeat IPC: 0.574306 cumulative IPC: 0.474365 (Simulation time: 1 hr 18 min 35 sec) 
Heartbeat CPU 0 instructions: 126000000 cycles: 190145922 heartbeat IPC: 0.574176 cumulative IPC: 0.475453 (Simulation time: 1 hr 18 min 59 sec) 
Heartbeat CPU 0 instructions: 127000001 cycles: 191852263 heartbeat IPC: 0.58605 cumulative IPC: 0.476621 (Simulation time: 1 hr 19 min 24 sec) 
Heartbeat CPU 0 instructions: 128000000 cycles: 193523525 heartbeat IPC: 0.59835 cumulative IPC: 0.477867 (Simulation time: 1 hr 19 min 50 sec) 
Heartbeat CPU 0 instructions: 129000002 cycles: 201143530 heartbeat IPC: 0.131234 cumulative IPC: 0.462407 (Simulation time: 1 hr 20 min 21 sec) 
Heartbeat CPU 0 instructions: 130000001 cycles: 202883210 heartbeat IPC: 0.574818 cumulative IPC: 0.46354 (Simulation time: 1 hr 20 min 46 sec) 
Heartbeat CPU 0 instructions: 131000002 cycles: 204617119 heartbeat IPC: 0.576732 cumulative IPC: 0.464666 (Simulation time: 1 hr 21 min 10 sec) 
Heartbeat CPU 0 instructions: 132000000 cycles: 206273187 heartbeat IPC: 0.603839 cumulative IPC: 0.465976 (Simulation time: 1 hr 21 min 34 sec) 
Heartbeat CPU 0 instructions: 133000000 cycles: 207991695 heartbeat IPC: 0.5819 cumulative IPC: 0.467097 (Simulation time: 1 hr 21 min 55 sec) 
Heartbeat CPU 0 instructions: 134000000 cycles: 209732353 heartbeat IPC: 0.574495 cumulative IPC: 0.468139 (Simulation time: 1 hr 22 min 17 sec) 
Heartbeat CPU 0 instructions: 135000003 cycles: 211474443 heartbeat IPC: 0.574025 cumulative IPC: 0.469157 (Simulation time: 1 hr 22 min 37 sec) 
Heartbeat CPU 0 instructions: 136000000 cycles: 213181643 heartbeat IPC: 0.585753 cumulative IPC: 0.470245 (Simulation time: 1 hr 22 min 56 sec) 
Heartbeat CPU 0 instructions: 137000001 cycles: 214847122 heartbeat IPC: 0.600428 cumulative IPC: 0.47142 (Simulation time: 1 hr 23 min 16 sec) 
Heartbeat CPU 0 instructions: 138000003 cycles: 216582796 heartbeat IPC: 0.576146 cumulative IPC: 0.472396 (Simulation time: 1 hr 23 min 35 sec) 
Heartbeat CPU 0 instructions: 139000000 cycles: 218325287 heartbeat IPC: 0.573889 cumulative IPC: 0.473336 (Simulation time: 1 hr 23 min 54 sec) 
Heartbeat CPU 0 instructions: 140000000 cycles: 220065043 heartbeat IPC: 0.574793 cumulative IPC: 0.474267 (Simulation time: 1 hr 24 min 11 sec) 
Heartbeat CPU 0 instructions: 141000002 cycles: 221743314 heartbeat IPC: 0.595852 cumulative IPC: 0.475332 (Simulation time: 1 hr 24 min 29 sec) 
Heartbeat CPU 0 instructions: 142000000 cycles: 228874611 heartbeat IPC: 0.140227 cumulative IPC: 0.463298 (Simulation time: 1 hr 24 min 51 sec) 
Heartbeat CPU 0 instructions: 143000000 cycles: 230614871 heartbeat IPC: 0.574627 cumulative IPC: 0.464265 (Simulation time: 1 hr 25 min 8 sec) 
Heartbeat CPU 0 instructions: 144000000 cycles: 232357533 heartbeat IPC: 0.573835 cumulative IPC: 0.46521 (Simulation time: 1 hr 25 min 25 sec) 
Heartbeat CPU 0 instructions: 145000002 cycles: 234070764 heartbeat IPC: 0.583694 cumulative IPC: 0.466206 (Simulation time: 1 hr 25 min 41 sec) 
Heartbeat CPU 0 instructions: 146000003 cycles: 235733166 heartbeat IPC: 0.60154 cumulative IPC: 0.467301 (Simulation time: 1 hr 25 min 55 sec) 
Heartbeat CPU 0 instructions: 147000001 cycles: 237469255 heartbeat IPC: 0.576006 cumulative IPC: 0.468212 (Simulation time: 1 hr 26 min 8 sec) 
Heartbeat CPU 0 instructions: 148000000 cycles: 239251223 heartbeat IPC: 0.561177 cumulative IPC: 0.469005 (Simulation time: 1 hr 26 min 22 sec) 
Heartbeat CPU 0 instructions: 149000001 cycles: 240993926 heartbeat IPC: 0.573822 cumulative IPC: 0.469872 (Simulation time: 1 hr 26 min 35 sec) 
Heartbeat CPU 0 instructions: 150000000 cycles: 242673074 heartbeat IPC: 0.59554 cumulative IPC: 0.470866 (Simulation time: 1 hr 26 min 49 sec) 
Finished CPU 0 instructions: 100000000 cycles: 212374735 cummulative IPC: 0.470866 (Simulation time: 1 hr 26 min 49 sec) 

ChampSim completed all CPUs

Region of Interest Statistics

CPU 0 cummulative IPC: 0.470866 instructions: 100000000 cycles: 212374735
LLC TOTAL     ACCESS:    1107884  HIT:     298918  MISS:     808966
LLC LOAD      ACCESS:      19183  HIT:       2790  MISS:      16393
LLC RFO       ACCESS:     245174  HIT:      87377  MISS:     157797
LLC PREFETCH  ACCESS:     596965  HIT:     100036  MISS:     496929
LLC WRITEBACK ACCESS:     246562  HIT:     108715  MISS:     137847
OPTgen accesses: 6487
OPTgen hits: 2056
OPTgen hit rate: 31.6942


