
*** ChampSim Multicore Out-of-Order Simulator ***

Warmup Instructions: 50000000
Simulation Instructions: 100000000
Configuration: 2
Number of CPUs: 1
LLC sets: 2048
LLC ways: 16
Off-chip DRAM Channels: 1 Width: 64-bit Data Rate: 1600 MT/s

CPU 0 runs /datasets/cs240c-wi22-a00-public/data/Assignment2-gz/perlbench_135B.trace.gz
CPU 0 L1D next line prefetcher
CPU 0 L2C IP-based stride prefetcher
Initialize Hawkeye state
Heartbeat CPU 0 instructions: 1000000 cycles: 600033 heartbeat IPC: 1.66657 cumulative IPC: 1.66657 (Simulation time: 0 hr 0 min 41 sec) 
Heartbeat CPU 0 instructions: 2000000 cycles: 1209301 heartbeat IPC: 1.64131 cumulative IPC: 1.65385 (Simulation time: 0 hr 1 min 25 sec) 
Heartbeat CPU 0 instructions: 3000000 cycles: 1832834 heartbeat IPC: 1.60376 cumulative IPC: 1.63681 (Simulation time: 0 hr 2 min 9 sec) 
Heartbeat CPU 0 instructions: 4000000 cycles: 2492639 heartbeat IPC: 1.5156 cumulative IPC: 1.60473 (Simulation time: 0 hr 2 min 50 sec) 
Heartbeat CPU 0 instructions: 5000001 cycles: 3079302 heartbeat IPC: 1.70456 cumulative IPC: 1.62374 (Simulation time: 0 hr 3 min 28 sec) 
Heartbeat CPU 0 instructions: 6000002 cycles: 3681731 heartbeat IPC: 1.65995 cumulative IPC: 1.62967 (Simulation time: 0 hr 4 min 9 sec) 
Heartbeat CPU 0 instructions: 7000001 cycles: 4282509 heartbeat IPC: 1.66451 cumulative IPC: 1.63456 (Simulation time: 0 hr 4 min 52 sec) 
Heartbeat CPU 0 instructions: 8000000 cycles: 4893000 heartbeat IPC: 1.63802 cumulative IPC: 1.63499 (Simulation time: 0 hr 5 min 31 sec) 
Heartbeat CPU 0 instructions: 9000001 cycles: 5534129 heartbeat IPC: 1.55975 cumulative IPC: 1.62627 (Simulation time: 0 hr 6 min 12 sec) 
Heartbeat CPU 0 instructions: 10000000 cycles: 6192840 heartbeat IPC: 1.51811 cumulative IPC: 1.61477 (Simulation time: 0 hr 6 min 55 sec) 
Heartbeat CPU 0 instructions: 11000003 cycles: 6888953 heartbeat IPC: 1.43655 cumulative IPC: 1.59676 (Simulation time: 0 hr 7 min 38 sec) 
Heartbeat CPU 0 instructions: 12000000 cycles: 7505167 heartbeat IPC: 1.62281 cumulative IPC: 1.5989 (Simulation time: 0 hr 8 min 25 sec) 
Heartbeat CPU 0 instructions: 13000000 cycles: 8134120 heartbeat IPC: 1.58994 cumulative IPC: 1.59821 (Simulation time: 0 hr 9 min 6 sec) 
Heartbeat CPU 0 instructions: 14000002 cycles: 8774601 heartbeat IPC: 1.56133 cumulative IPC: 1.59551 (Simulation time: 0 hr 9 min 47 sec) 
Heartbeat CPU 0 instructions: 15000003 cycles: 9413475 heartbeat IPC: 1.56526 cumulative IPC: 1.59346 (Simulation time: 0 hr 10 min 24 sec) 
Heartbeat CPU 0 instructions: 16000000 cycles: 10053311 heartbeat IPC: 1.5629 cumulative IPC: 1.59152 (Simulation time: 0 hr 11 min 3 sec) 
Heartbeat CPU 0 instructions: 17000000 cycles: 10694467 heartbeat IPC: 1.55968 cumulative IPC: 1.58961 (Simulation time: 0 hr 11 min 45 sec) 
Heartbeat CPU 0 instructions: 18000000 cycles: 11335137 heartbeat IPC: 1.56087 cumulative IPC: 1.58798 (Simulation time: 0 hr 12 min 28 sec) 
Heartbeat CPU 0 instructions: 19000003 cycles: 11972217 heartbeat IPC: 1.56967 cumulative IPC: 1.58701 (Simulation time: 0 hr 13 min 5 sec) 
Heartbeat CPU 0 instructions: 20000000 cycles: 12611056 heartbeat IPC: 1.56533 cumulative IPC: 1.58591 (Simulation time: 0 hr 13 min 46 sec) 
Heartbeat CPU 0 instructions: 21000000 cycles: 13246420 heartbeat IPC: 1.5739 cumulative IPC: 1.58533 (Simulation time: 0 hr 14 min 23 sec) 
Heartbeat CPU 0 instructions: 22000002 cycles: 13885165 heartbeat IPC: 1.56557 cumulative IPC: 1.58442 (Simulation time: 0 hr 15 min 4 sec) 
Heartbeat CPU 0 instructions: 23000003 cycles: 14552678 heartbeat IPC: 1.4981 cumulative IPC: 1.58047 (Simulation time: 0 hr 15 min 49 sec) 
Heartbeat CPU 0 instructions: 24000000 cycles: 15116446 heartbeat IPC: 1.77377 cumulative IPC: 1.58767 (Simulation time: 0 hr 16 min 27 sec) 
Heartbeat CPU 0 instructions: 25000000 cycles: 15773351 heartbeat IPC: 1.52229 cumulative IPC: 1.58495 (Simulation time: 0 hr 17 min 6 sec) 
Heartbeat CPU 0 instructions: 26000001 cycles: 16389271 heartbeat IPC: 1.62359 cumulative IPC: 1.5864 (Simulation time: 0 hr 17 min 46 sec) 
Heartbeat CPU 0 instructions: 27000000 cycles: 17029497 heartbeat IPC: 1.56195 cumulative IPC: 1.58548 (Simulation time: 0 hr 18 min 26 sec) 
Heartbeat CPU 0 instructions: 28000000 cycles: 17670205 heartbeat IPC: 1.56077 cumulative IPC: 1.58459 (Simulation time: 0 hr 19 min 8 sec) 
Heartbeat CPU 0 instructions: 29000000 cycles: 18307735 heartbeat IPC: 1.56855 cumulative IPC: 1.58403 (Simulation time: 0 hr 19 min 49 sec) 
Heartbeat CPU 0 instructions: 30000002 cycles: 18953371 heartbeat IPC: 1.54886 cumulative IPC: 1.58283 (Simulation time: 0 hr 20 min 30 sec) 
Heartbeat CPU 0 instructions: 31000001 cycles: 19589981 heartbeat IPC: 1.57082 cumulative IPC: 1.58244 (Simulation time: 0 hr 21 min 11 sec) 
Heartbeat CPU 0 instructions: 32000000 cycles: 20230151 heartbeat IPC: 1.56208 cumulative IPC: 1.5818 (Simulation time: 0 hr 21 min 54 sec) 
Heartbeat CPU 0 instructions: 33000000 cycles: 20865472 heartbeat IPC: 1.57401 cumulative IPC: 1.58156 (Simulation time: 0 hr 22 min 34 sec) 
Heartbeat CPU 0 instructions: 34000001 cycles: 21501805 heartbeat IPC: 1.57151 cumulative IPC: 1.58126 (Simulation time: 0 hr 23 min 14 sec) 
Heartbeat CPU 0 instructions: 35000003 cycles: 22157555 heartbeat IPC: 1.52497 cumulative IPC: 1.5796 (Simulation time: 0 hr 23 min 57 sec) 
Heartbeat CPU 0 instructions: 36000000 cycles: 22756616 heartbeat IPC: 1.66927 cumulative IPC: 1.58196 (Simulation time: 0 hr 24 min 36 sec) 
Heartbeat CPU 0 instructions: 37000000 cycles: 23371591 heartbeat IPC: 1.62608 cumulative IPC: 1.58312 (Simulation time: 0 hr 25 min 14 sec) 
Heartbeat CPU 0 instructions: 38000002 cycles: 23943841 heartbeat IPC: 1.74749 cumulative IPC: 1.58705 (Simulation time: 0 hr 25 min 50 sec) 
Heartbeat CPU 0 instructions: 39000000 cycles: 24547823 heartbeat IPC: 1.65568 cumulative IPC: 1.58874 (Simulation time: 0 hr 26 min 29 sec) 
Heartbeat CPU 0 instructions: 40000000 cycles: 25099334 heartbeat IPC: 1.8132 cumulative IPC: 1.59367 (Simulation time: 0 hr 27 min 3 sec) 
Heartbeat CPU 0 instructions: 41000001 cycles: 25665879 heartbeat IPC: 1.76509 cumulative IPC: 1.59745 (Simulation time: 0 hr 27 min 45 sec) 
Heartbeat CPU 0 instructions: 42000003 cycles: 26303475 heartbeat IPC: 1.56839 cumulative IPC: 1.59675 (Simulation time: 0 hr 28 min 24 sec) 
Heartbeat CPU 0 instructions: 43000001 cycles: 26969566 heartbeat IPC: 1.50129 cumulative IPC: 1.59439 (Simulation time: 0 hr 29 min 1 sec) 
Heartbeat CPU 0 instructions: 44000000 cycles: 27581745 heartbeat IPC: 1.63351 cumulative IPC: 1.59526 (Simulation time: 0 hr 29 min 40 sec) 
Heartbeat CPU 0 instructions: 45000003 cycles: 28227624 heartbeat IPC: 1.54828 cumulative IPC: 1.59418 (Simulation time: 0 hr 30 min 27 sec) 
Heartbeat CPU 0 instructions: 46000000 cycles: 28867244 heartbeat IPC: 1.56342 cumulative IPC: 1.5935 (Simulation time: 0 hr 31 min 5 sec) 
Heartbeat CPU 0 instructions: 47000000 cycles: 29506366 heartbeat IPC: 1.56465 cumulative IPC: 1.59288 (Simulation time: 0 hr 31 min 44 sec) 
Heartbeat CPU 0 instructions: 48000000 cycles: 30146521 heartbeat IPC: 1.56212 cumulative IPC: 1.59222 (Simulation time: 0 hr 32 min 21 sec) 
Heartbeat CPU 0 instructions: 49000003 cycles: 30788449 heartbeat IPC: 1.55781 cumulative IPC: 1.59151 (Simulation time: 0 hr 32 min 58 sec) 
Heartbeat CPU 0 instructions: 50000001 cycles: 31428055 heartbeat IPC: 1.56346 cumulative IPC: 1.59094 (Simulation time: 0 hr 33 min 35 sec) 

Warmup complete CPU 0 instructions: 50000001 cycles: 31428055 (Simulation time: 0 hr 33 min 35 sec) 

Heartbeat CPU 0 instructions: 51000000 cycles: 34046825 heartbeat IPC: 0.381858 cumulative IPC: 0.381858 (Simulation time: 0 hr 34 min 19 sec) 
Heartbeat CPU 0 instructions: 52000000 cycles: 36657463 heartbeat IPC: 0.383048 cumulative IPC: 0.382452 (Simulation time: 0 hr 34 min 58 sec) 
Heartbeat CPU 0 instructions: 53000000 cycles: 39241656 heartbeat IPC: 0.386968 cumulative IPC: 0.383946 (Simulation time: 0 hr 35 min 38 sec) 
Heartbeat CPU 0 instructions: 54000001 cycles: 41881318 heartbeat IPC: 0.378837 cumulative IPC: 0.382656 (Simulation time: 0 hr 36 min 21 sec) 
Heartbeat CPU 0 instructions: 55000001 cycles: 44328397 heartbeat IPC: 0.40865 cumulative IPC: 0.387587 (Simulation time: 0 hr 37 min 12 sec) 
Heartbeat CPU 0 instructions: 56000000 cycles: 46452029 heartbeat IPC: 0.470891 cumulative IPC: 0.399362 (Simulation time: 0 hr 37 min 59 sec) 
Heartbeat CPU 0 instructions: 57000000 cycles: 48653743 heartbeat IPC: 0.454192 cumulative IPC: 0.40637 (Simulation time: 0 hr 38 min 43 sec) 
Heartbeat CPU 0 instructions: 58000002 cycles: 50601532 heartbeat IPC: 0.513404 cumulative IPC: 0.417243 (Simulation time: 0 hr 39 min 22 sec) 
Heartbeat CPU 0 instructions: 59000003 cycles: 52719247 heartbeat IPC: 0.472208 cumulative IPC: 0.42271 (Simulation time: 0 hr 40 min 2 sec) 
Heartbeat CPU 0 instructions: 60000000 cycles: 55766465 heartbeat IPC: 0.328167 cumulative IPC: 0.410873 (Simulation time: 0 hr 40 min 46 sec) 
Heartbeat CPU 0 instructions: 61000000 cycles: 58189348 heartbeat IPC: 0.412731 cumulative IPC: 0.411041 (Simulation time: 0 hr 41 min 27 sec) 
Heartbeat CPU 0 instructions: 62000001 cycles: 61028574 heartbeat IPC: 0.352209 cumulative IPC: 0.405398 (Simulation time: 0 hr 42 min 10 sec) 
Heartbeat CPU 0 instructions: 63000000 cycles: 64028029 heartbeat IPC: 0.333394 cumulative IPC: 0.398773 (Simulation time: 0 hr 42 min 53 sec) 
Heartbeat CPU 0 instructions: 64000000 cycles: 67073474 heartbeat IPC: 0.328359 cumulative IPC: 0.392757 (Simulation time: 0 hr 43 min 31 sec) 
Heartbeat CPU 0 instructions: 65000001 cycles: 70021357 heartbeat IPC: 0.339227 cumulative IPC: 0.388668 (Simulation time: 0 hr 44 min 15 sec) 
Heartbeat CPU 0 instructions: 66000001 cycles: 72928345 heartbeat IPC: 0.343999 cumulative IPC: 0.385539 (Simulation time: 0 hr 44 min 56 sec) 
Heartbeat CPU 0 instructions: 67000001 cycles: 75672474 heartbeat IPC: 0.364414 cumulative IPC: 0.384229 (Simulation time: 0 hr 45 min 39 sec) 
Heartbeat CPU 0 instructions: 68000000 cycles: 78410514 heartbeat IPC: 0.365224 cumulative IPC: 0.383122 (Simulation time: 0 hr 46 min 24 sec) 
Heartbeat CPU 0 instructions: 69000002 cycles: 81380402 heartbeat IPC: 0.336714 cumulative IPC: 0.380363 (Simulation time: 0 hr 47 min 12 sec) 
Heartbeat CPU 0 instructions: 70000003 cycles: 83194913 heartbeat IPC: 0.551113 cumulative IPC: 0.386348 (Simulation time: 0 hr 47 min 51 sec) 
Heartbeat CPU 0 instructions: 71000000 cycles: 85114658 heartbeat IPC: 0.520901 cumulative IPC: 0.391159 (Simulation time: 0 hr 48 min 26 sec) 
Heartbeat CPU 0 instructions: 72000000 cycles: 87106821 heartbeat IPC: 0.501967 cumulative IPC: 0.395124 (Simulation time: 0 hr 49 min 6 sec) 
Heartbeat CPU 0 instructions: 73000000 cycles: 89377510 heartbeat IPC: 0.440395 cumulative IPC: 0.396898 (Simulation time: 0 hr 49 min 48 sec) 
Heartbeat CPU 0 instructions: 74000000 cycles: 91296056 heartbeat IPC: 0.521228 cumulative IPC: 0.400882 (Simulation time: 0 hr 50 min 27 sec) 
Heartbeat CPU 0 instructions: 75000003 cycles: 93542911 heartbeat IPC: 0.445068 cumulative IPC: 0.40248 (Simulation time: 0 hr 51 min 7 sec) 
Heartbeat CPU 0 instructions: 76000000 cycles: 96294643 heartbeat IPC: 0.363406 cumulative IPC: 0.400823 (Simulation time: 0 hr 51 min 46 sec) 
Heartbeat CPU 0 instructions: 77000000 cycles: 98993442 heartbeat IPC: 0.370535 cumulative IPC: 0.399613 (Simulation time: 0 hr 52 min 27 sec) 
Heartbeat CPU 0 instructions: 78000000 cycles: 101951582 heartbeat IPC: 0.33805 cumulative IPC: 0.397031 (Simulation time: 0 hr 53 min 12 sec) 
Heartbeat CPU 0 instructions: 79000000 cycles: 103811435 heartbeat IPC: 0.537677 cumulative IPC: 0.400644 (Simulation time: 0 hr 53 min 50 sec) 
Heartbeat CPU 0 instructions: 80000000 cycles: 105598589 heartbeat IPC: 0.559549 cumulative IPC: 0.404473 (Simulation time: 0 hr 54 min 27 sec) 
Heartbeat CPU 0 instructions: 81000000 cycles: 107519985 heartbeat IPC: 0.520455 cumulative IPC: 0.407402 (Simulation time: 0 hr 55 min 4 sec) 
Heartbeat CPU 0 instructions: 82000000 cycles: 109437524 heartbeat IPC: 0.521502 cumulative IPC: 0.410207 (Simulation time: 0 hr 55 min 44 sec) 
Heartbeat CPU 0 instructions: 83000000 cycles: 111769856 heartbeat IPC: 0.428755 cumulative IPC: 0.410745 (Simulation time: 0 hr 56 min 24 sec) 
Heartbeat CPU 0 instructions: 84000000 cycles: 113721656 heartbeat IPC: 0.512348 cumulative IPC: 0.413155 (Simulation time: 0 hr 57 min 7 sec) 
Heartbeat CPU 0 instructions: 85000000 cycles: 115642671 heartbeat IPC: 0.520558 cumulative IPC: 0.415605 (Simulation time: 0 hr 57 min 44 sec) 
Heartbeat CPU 0 instructions: 86000002 cycles: 117561200 heartbeat IPC: 0.521234 cumulative IPC: 0.417958 (Simulation time: 0 hr 58 min 19 sec) 
Heartbeat CPU 0 instructions: 87000003 cycles: 119732879 heartbeat IPC: 0.460474 cumulative IPC: 0.419003 (Simulation time: 0 hr 58 min 58 sec) 
Heartbeat CPU 0 instructions: 88000000 cycles: 122519685 heartbeat IPC: 0.358833 cumulative IPC: 0.417162 (Simulation time: 0 hr 59 min 45 sec) 
Heartbeat CPU 0 instructions: 89000003 cycles: 125090507 heartbeat IPC: 0.388982 cumulative IPC: 0.416389 (Simulation time: 1 hr 0 min 27 sec) 
Heartbeat CPU 0 instructions: 90000001 cycles: 127978546 heartbeat IPC: 0.346255 cumulative IPC: 0.414291 (Simulation time: 1 hr 1 min 16 sec) 
Heartbeat CPU 0 instructions: 91000000 cycles: 130465462 heartbeat IPC: 0.402104 cumulative IPC: 0.413985 (Simulation time: 1 hr 1 min 56 sec) 
Heartbeat CPU 0 instructions: 92000000 cycles: 132924277 heartbeat IPC: 0.4067 cumulative IPC: 0.413808 (Simulation time: 1 hr 2 min 45 sec) 
Heartbeat CPU 0 instructions: 93000000 cycles: 135634381 heartbeat IPC: 0.36899 cumulative IPC: 0.412643 (Simulation time: 1 hr 3 min 29 sec) 
Heartbeat CPU 0 instructions: 94000001 cycles: 138292554 heartbeat IPC: 0.376199 cumulative IPC: 0.411736 (Simulation time: 1 hr 4 min 10 sec) 
Heartbeat CPU 0 instructions: 95000000 cycles: 141144257 heartbeat IPC: 0.350667 cumulative IPC: 0.410149 (Simulation time: 1 hr 4 min 56 sec) 
Heartbeat CPU 0 instructions: 96000000 cycles: 144235276 heartbeat IPC: 0.323518 cumulative IPC: 0.407775 (Simulation time: 1 hr 5 min 42 sec) 
Heartbeat CPU 0 instructions: 97000001 cycles: 147250649 heartbeat IPC: 0.331634 cumulative IPC: 0.405793 (Simulation time: 1 hr 6 min 27 sec) 
Heartbeat CPU 0 instructions: 98000000 cycles: 149918616 heartbeat IPC: 0.374817 cumulative IPC: 0.405096 (Simulation time: 1 hr 7 min 9 sec) 
Heartbeat CPU 0 instructions: 99000000 cycles: 152519058 heartbeat IPC: 0.38455 cumulative IPC: 0.404654 (Simulation time: 1 hr 7 min 59 sec) 
Heartbeat CPU 0 instructions: 100000000 cycles: 155144859 heartbeat IPC: 0.380836 cumulative IPC: 0.404149 (Simulation time: 1 hr 8 min 39 sec) 
Heartbeat CPU 0 instructions: 101000001 cycles: 157747626 heartbeat IPC: 0.384207 cumulative IPC: 0.403738 (Simulation time: 1 hr 9 min 22 sec) 
Heartbeat CPU 0 instructions: 102000000 cycles: 160382349 heartbeat IPC: 0.379546 cumulative IPC: 0.403244 (Simulation time: 1 hr 10 min 5 sec) 
Heartbeat CPU 0 instructions: 103000000 cycles: 163040937 heartbeat IPC: 0.37614 cumulative IPC: 0.402696 (Simulation time: 1 hr 10 min 54 sec) 
Heartbeat CPU 0 instructions: 104000000 cycles: 165762744 heartbeat IPC: 0.367403 cumulative IPC: 0.401981 (Simulation time: 1 hr 11 min 29 sec) 
Heartbeat CPU 0 instructions: 105000001 cycles: 168367754 heartbeat IPC: 0.383876 cumulative IPC: 0.401637 (Simulation time: 1 hr 12 min 2 sec) 
Heartbeat CPU 0 instructions: 106000001 cycles: 170986625 heartbeat IPC: 0.381844 cumulative IPC: 0.401265 (Simulation time: 1 hr 12 min 34 sec) 
Heartbeat CPU 0 instructions: 107000000 cycles: 173601425 heartbeat IPC: 0.382438 cumulative IPC: 0.400919 (Simulation time: 1 hr 13 min 7 sec) 
Heartbeat CPU 0 instructions: 108000000 cycles: 176212987 heartbeat IPC: 0.382913 cumulative IPC: 0.400594 (Simulation time: 1 hr 13 min 40 sec) 
Heartbeat CPU 0 instructions: 109000001 cycles: 178786158 heartbeat IPC: 0.388626 cumulative IPC: 0.400385 (Simulation time: 1 hr 14 min 16 sec) 
Heartbeat CPU 0 instructions: 110000003 cycles: 180950982 heartbeat IPC: 0.461932 cumulative IPC: 0.401276 (Simulation time: 1 hr 14 min 45 sec) 
Heartbeat CPU 0 instructions: 111000000 cycles: 183368342 heartbeat IPC: 0.413673 cumulative IPC: 0.401473 (Simulation time: 1 hr 15 min 16 sec) 
Heartbeat CPU 0 instructions: 112000000 cycles: 186188509 heartbeat IPC: 0.354589 cumulative IPC: 0.400619 (Simulation time: 1 hr 15 min 52 sec) 
Heartbeat CPU 0 instructions: 113000000 cycles: 188864288 heartbeat IPC: 0.373723 cumulative IPC: 0.400162 (Simulation time: 1 hr 16 min 27 sec) 
Heartbeat CPU 0 instructions: 114000002 cycles: 191433822 heartbeat IPC: 0.389176 cumulative IPC: 0.399986 (Simulation time: 1 hr 16 min 57 sec) 
Heartbeat CPU 0 instructions: 115000001 cycles: 194048970 heartbeat IPC: 0.382387 cumulative IPC: 0.399703 (Simulation time: 1 hr 17 min 28 sec) 
Heartbeat CPU 0 instructions: 116000000 cycles: 196636755 heartbeat IPC: 0.38643 cumulative IPC: 0.399495 (Simulation time: 1 hr 17 min 56 sec) 
Heartbeat CPU 0 instructions: 117000002 cycles: 199212508 heartbeat IPC: 0.388237 cumulative IPC: 0.399322 (Simulation time: 1 hr 18 min 23 sec) 
Heartbeat CPU 0 instructions: 118000001 cycles: 201717593 heartbeat IPC: 0.399188 cumulative IPC: 0.39932 (Simulation time: 1 hr 18 min 50 sec) 
Heartbeat CPU 0 instructions: 119000000 cycles: 203713121 heartbeat IPC: 0.50112 cumulative IPC: 0.400499 (Simulation time: 1 hr 19 min 14 sec) 
Heartbeat CPU 0 instructions: 120000000 cycles: 206557003 heartbeat IPC: 0.351632 cumulative IPC: 0.399705 (Simulation time: 1 hr 19 min 41 sec) 
Heartbeat CPU 0 instructions: 121000001 cycles: 209210618 heartbeat IPC: 0.376845 cumulative IPC: 0.399364 (Simulation time: 1 hr 20 min 7 sec) 
Heartbeat CPU 0 instructions: 122000002 cycles: 212065505 heartbeat IPC: 0.350277 cumulative IPC: 0.398588 (Simulation time: 1 hr 20 min 33 sec) 
Heartbeat CPU 0 instructions: 123000001 cycles: 214859437 heartbeat IPC: 0.357918 cumulative IPC: 0.397969 (Simulation time: 1 hr 21 min 0 sec) 
Heartbeat CPU 0 instructions: 124000000 cycles: 217405779 heartbeat IPC: 0.39272 cumulative IPC: 0.397897 (Simulation time: 1 hr 21 min 26 sec) 
Heartbeat CPU 0 instructions: 125000003 cycles: 219371385 heartbeat IPC: 0.50875 cumulative IPC: 0.399056 (Simulation time: 1 hr 21 min 47 sec) 
Heartbeat CPU 0 instructions: 126000000 cycles: 221293123 heartbeat IPC: 0.520361 cumulative IPC: 0.400284 (Simulation time: 1 hr 22 min 7 sec) 
Heartbeat CPU 0 instructions: 127000001 cycles: 223694329 heartbeat IPC: 0.416458 cumulative IPC: 0.400486 (Simulation time: 1 hr 22 min 29 sec) 
Heartbeat CPU 0 instructions: 128000000 cycles: 225683830 heartbeat IPC: 0.502638 cumulative IPC: 0.401532 (Simulation time: 1 hr 22 min 48 sec) 
Heartbeat CPU 0 instructions: 129000000 cycles: 227606609 heartbeat IPC: 0.520081 cumulative IPC: 0.402694 (Simulation time: 1 hr 23 min 6 sec) 
Heartbeat CPU 0 instructions: 130000001 cycles: 230372141 heartbeat IPC: 0.361594 cumulative IPC: 0.402123 (Simulation time: 1 hr 23 min 25 sec) 
Heartbeat CPU 0 instructions: 131000003 cycles: 233042384 heartbeat IPC: 0.374498 cumulative IPC: 0.401757 (Simulation time: 1 hr 23 min 44 sec) 
Heartbeat CPU 0 instructions: 132000000 cycles: 235762133 heartbeat IPC: 0.36768 cumulative IPC: 0.401304 (Simulation time: 1 hr 24 min 3 sec) 
Heartbeat CPU 0 instructions: 133000002 cycles: 238695035 heartbeat IPC: 0.34096 cumulative IPC: 0.40045 (Simulation time: 1 hr 24 min 20 sec) 
Heartbeat CPU 0 instructions: 134000000 cycles: 241729940 heartbeat IPC: 0.329499 cumulative IPC: 0.399426 (Simulation time: 1 hr 24 min 41 sec) 
Heartbeat CPU 0 instructions: 135000002 cycles: 244287783 heartbeat IPC: 0.390955 cumulative IPC: 0.399324 (Simulation time: 1 hr 25 min 2 sec) 
Heartbeat CPU 0 instructions: 136000000 cycles: 247133443 heartbeat IPC: 0.351412 cumulative IPC: 0.398692 (Simulation time: 1 hr 25 min 21 sec) 
Heartbeat CPU 0 instructions: 137000003 cycles: 249905050 heartbeat IPC: 0.360803 cumulative IPC: 0.398211 (Simulation time: 1 hr 25 min 39 sec) 
Heartbeat CPU 0 instructions: 138000000 cycles: 252634575 heartbeat IPC: 0.366363 cumulative IPC: 0.397818 (Simulation time: 1 hr 25 min 55 sec) 
Heartbeat CPU 0 instructions: 139000001 cycles: 254904941 heartbeat IPC: 0.440458 cumulative IPC: 0.398251 (Simulation time: 1 hr 26 min 10 sec) 
Heartbeat CPU 0 instructions: 140000000 cycles: 257543575 heartbeat IPC: 0.378984 cumulative IPC: 0.398027 (Simulation time: 1 hr 26 min 26 sec) 
Heartbeat CPU 0 instructions: 141000000 cycles: 260299808 heartbeat IPC: 0.362814 cumulative IPC: 0.397603 (Simulation time: 1 hr 26 min 41 sec) 
Heartbeat CPU 0 instructions: 142000000 cycles: 263054752 heartbeat IPC: 0.362984 cumulative IPC: 0.397191 (Simulation time: 1 hr 26 min 56 sec) 
Heartbeat CPU 0 instructions: 143000000 cycles: 265697861 heartbeat IPC: 0.378342 cumulative IPC: 0.396978 (Simulation time: 1 hr 27 min 10 sec) 
Heartbeat CPU 0 instructions: 144000000 cycles: 267897597 heartbeat IPC: 0.4546 cumulative IPC: 0.397514 (Simulation time: 1 hr 27 min 23 sec) 
Heartbeat CPU 0 instructions: 145000002 cycles: 270116187 heartbeat IPC: 0.450738 cumulative IPC: 0.398009 (Simulation time: 1 hr 27 min 35 sec) 
Heartbeat CPU 0 instructions: 146000001 cycles: 272129718 heartbeat IPC: 0.496639 cumulative IPC: 0.398834 (Simulation time: 1 hr 27 min 47 sec) 
Heartbeat CPU 0 instructions: 147000001 cycles: 274855649 heartbeat IPC: 0.366847 cumulative IPC: 0.398476 (Simulation time: 1 hr 27 min 59 sec) 
Heartbeat CPU 0 instructions: 148000000 cycles: 277438022 heartbeat IPC: 0.38724 cumulative IPC: 0.398358 (Simulation time: 1 hr 28 min 13 sec) 
Heartbeat CPU 0 instructions: 149000000 cycles: 280080299 heartbeat IPC: 0.378461 cumulative IPC: 0.398146 (Simulation time: 1 hr 28 min 25 sec) 
Heartbeat CPU 0 instructions: 150000001 cycles: 282823511 heartbeat IPC: 0.364537 cumulative IPC: 0.39778 (Simulation time: 1 hr 28 min 35 sec) 
Finished CPU 0 instructions: 100000000 cycles: 251395456 cummulative IPC: 0.39778 (Simulation time: 1 hr 28 min 35 sec) 

ChampSim completed all CPUs

Region of Interest Statistics

CPU 0 cummulative IPC: 0.39778 instructions: 100000000 cycles: 251395456
LLC TOTAL     ACCESS:     694194  HIT:     637968  MISS:      56226
LLC LOAD      ACCESS:     325712  HIT:     303270  MISS:      22442
LLC RFO       ACCESS:      31881  HIT:      26316  MISS:       5565
LLC PREFETCH  ACCESS:     223580  HIT:     197002  MISS:      26578
LLC WRITEBACK ACCESS:     113021  HIT:     111380  MISS:       1641
OPTgen accesses: 8427
OPTgen hits: 9613
OPTgen hit rate: 114.074


