
*** ChampSim Multicore Out-of-Order Simulator ***

Warmup Instructions: 50000000
Simulation Instructions: 100000000
Configuration: 2
Number of CPUs: 1
LLC sets: 2048
LLC ways: 16
Off-chip DRAM Channels: 1 Width: 64-bit Data Rate: 1600 MT/s

CPU 0 runs /datasets/cs240c-wi22-a00-public/data/Assignment2-gz/calculix_3812B.trace.gz
CPU 0 L1D next line prefetcher
CPU 0 L2C IP-based stride prefetcher
Initialize Hawkeye state
Heartbeat CPU 0 instructions: 1000001 cycles: 478689 heartbeat IPC: 2.08904 cumulative IPC: 2.08904 (Simulation time: 0 hr 0 min 36 sec) 
Heartbeat CPU 0 instructions: 2000002 cycles: 956483 heartbeat IPC: 2.09295 cumulative IPC: 2.091 (Simulation time: 0 hr 1 min 10 sec) 
Heartbeat CPU 0 instructions: 3000002 cycles: 1434999 heartbeat IPC: 2.08979 cumulative IPC: 2.0906 (Simulation time: 0 hr 1 min 47 sec) 
Heartbeat CPU 0 instructions: 4000000 cycles: 1907482 heartbeat IPC: 2.11647 cumulative IPC: 2.09701 (Simulation time: 0 hr 2 min 20 sec) 
Heartbeat CPU 0 instructions: 5000000 cycles: 2356307 heartbeat IPC: 2.22804 cumulative IPC: 2.12196 (Simulation time: 0 hr 2 min 50 sec) 
Heartbeat CPU 0 instructions: 6000003 cycles: 2761688 heartbeat IPC: 2.46682 cumulative IPC: 2.17259 (Simulation time: 0 hr 3 min 12 sec) 
Heartbeat CPU 0 instructions: 7000002 cycles: 3154798 heartbeat IPC: 2.54381 cumulative IPC: 2.21884 (Simulation time: 0 hr 3 min 36 sec) 
Heartbeat CPU 0 instructions: 8000000 cycles: 3547939 heartbeat IPC: 2.54361 cumulative IPC: 2.25483 (Simulation time: 0 hr 3 min 58 sec) 
Heartbeat CPU 0 instructions: 9000000 cycles: 3940928 heartbeat IPC: 2.5446 cumulative IPC: 2.28373 (Simulation time: 0 hr 4 min 20 sec) 
Heartbeat CPU 0 instructions: 10000003 cycles: 4334017 heartbeat IPC: 2.54396 cumulative IPC: 2.30733 (Simulation time: 0 hr 4 min 46 sec) 
Heartbeat CPU 0 instructions: 11000000 cycles: 4726964 heartbeat IPC: 2.54486 cumulative IPC: 2.32708 (Simulation time: 0 hr 5 min 8 sec) 
Heartbeat CPU 0 instructions: 12000000 cycles: 5120150 heartbeat IPC: 2.54333 cumulative IPC: 2.34368 (Simulation time: 0 hr 5 min 31 sec) 
Heartbeat CPU 0 instructions: 13000003 cycles: 5513237 heartbeat IPC: 2.54397 cumulative IPC: 2.35796 (Simulation time: 0 hr 5 min 57 sec) 
Heartbeat CPU 0 instructions: 14000001 cycles: 5942143 heartbeat IPC: 2.33151 cumulative IPC: 2.35605 (Simulation time: 0 hr 6 min 28 sec) 
Heartbeat CPU 0 instructions: 15000000 cycles: 6335377 heartbeat IPC: 2.54301 cumulative IPC: 2.36766 (Simulation time: 0 hr 6 min 53 sec) 
Heartbeat CPU 0 instructions: 16000000 cycles: 6728574 heartbeat IPC: 2.54325 cumulative IPC: 2.37792 (Simulation time: 0 hr 7 min 19 sec) 
Heartbeat CPU 0 instructions: 17000002 cycles: 7121749 heartbeat IPC: 2.5434 cumulative IPC: 2.38705 (Simulation time: 0 hr 7 min 43 sec) 
Heartbeat CPU 0 instructions: 18000001 cycles: 7515076 heartbeat IPC: 2.54241 cumulative IPC: 2.39519 (Simulation time: 0 hr 8 min 8 sec) 
Heartbeat CPU 0 instructions: 19000001 cycles: 7908293 heartbeat IPC: 2.54313 cumulative IPC: 2.40254 (Simulation time: 0 hr 8 min 33 sec) 
Heartbeat CPU 0 instructions: 20000000 cycles: 8301267 heartbeat IPC: 2.5447 cumulative IPC: 2.40927 (Simulation time: 0 hr 8 min 56 sec) 
Heartbeat CPU 0 instructions: 21000000 cycles: 8694478 heartbeat IPC: 2.54316 cumulative IPC: 2.41533 (Simulation time: 0 hr 9 min 22 sec) 
Heartbeat CPU 0 instructions: 22000003 cycles: 9087727 heartbeat IPC: 2.54293 cumulative IPC: 2.42085 (Simulation time: 0 hr 9 min 50 sec) 
Heartbeat CPU 0 instructions: 23000002 cycles: 9480994 heartbeat IPC: 2.5428 cumulative IPC: 2.42591 (Simulation time: 0 hr 10 min 15 sec) 
Heartbeat CPU 0 instructions: 24000000 cycles: 9874252 heartbeat IPC: 2.54285 cumulative IPC: 2.43056 (Simulation time: 0 hr 10 min 40 sec) 
Heartbeat CPU 0 instructions: 25000003 cycles: 10262722 heartbeat IPC: 2.57421 cumulative IPC: 2.436 (Simulation time: 0 hr 11 min 5 sec) 
Heartbeat CPU 0 instructions: 26000003 cycles: 10649331 heartbeat IPC: 2.58659 cumulative IPC: 2.44147 (Simulation time: 0 hr 11 min 28 sec) 
Heartbeat CPU 0 instructions: 27000000 cycles: 11035433 heartbeat IPC: 2.58998 cumulative IPC: 2.44666 (Simulation time: 0 hr 11 min 54 sec) 
Heartbeat CPU 0 instructions: 28000000 cycles: 11422755 heartbeat IPC: 2.58183 cumulative IPC: 2.45125 (Simulation time: 0 hr 12 min 26 sec) 
Heartbeat CPU 0 instructions: 29000003 cycles: 11815303 heartbeat IPC: 2.54747 cumulative IPC: 2.45444 (Simulation time: 0 hr 12 min 48 sec) 
Heartbeat CPU 0 instructions: 30000001 cycles: 12202093 heartbeat IPC: 2.58538 cumulative IPC: 2.45859 (Simulation time: 0 hr 13 min 15 sec) 
Heartbeat CPU 0 instructions: 31000001 cycles: 12567508 heartbeat IPC: 2.73661 cumulative IPC: 2.46668 (Simulation time: 0 hr 13 min 45 sec) 
Heartbeat CPU 0 instructions: 32000000 cycles: 13033829 heartbeat IPC: 2.14444 cumulative IPC: 2.45515 (Simulation time: 0 hr 14 min 17 sec) 
Heartbeat CPU 0 instructions: 33000003 cycles: 13513410 heartbeat IPC: 2.08516 cumulative IPC: 2.44202 (Simulation time: 0 hr 14 min 49 sec) 
Heartbeat CPU 0 instructions: 34000000 cycles: 13993160 heartbeat IPC: 2.08441 cumulative IPC: 2.42976 (Simulation time: 0 hr 15 min 24 sec) 
Heartbeat CPU 0 instructions: 35000000 cycles: 14471851 heartbeat IPC: 2.08903 cumulative IPC: 2.41849 (Simulation time: 0 hr 16 min 2 sec) 
Heartbeat CPU 0 instructions: 36000000 cycles: 14948719 heartbeat IPC: 2.09702 cumulative IPC: 2.40823 (Simulation time: 0 hr 16 min 39 sec) 
Heartbeat CPU 0 instructions: 37000003 cycles: 15427170 heartbeat IPC: 2.09008 cumulative IPC: 2.39837 (Simulation time: 0 hr 17 min 17 sec) 
Heartbeat CPU 0 instructions: 38000003 cycles: 15900975 heartbeat IPC: 2.11057 cumulative IPC: 2.38979 (Simulation time: 0 hr 17 min 54 sec) 
Heartbeat CPU 0 instructions: 39000001 cycles: 16324327 heartbeat IPC: 2.3621 cumulative IPC: 2.38907 (Simulation time: 0 hr 18 min 26 sec) 
Heartbeat CPU 0 instructions: 40000000 cycles: 16759418 heartbeat IPC: 2.29837 cumulative IPC: 2.38672 (Simulation time: 0 hr 18 min 57 sec) 
Heartbeat CPU 0 instructions: 41000002 cycles: 17202701 heartbeat IPC: 2.2559 cumulative IPC: 2.38335 (Simulation time: 0 hr 19 min 25 sec) 
Heartbeat CPU 0 instructions: 42000003 cycles: 17578921 heartbeat IPC: 2.65802 cumulative IPC: 2.38923 (Simulation time: 0 hr 19 min 55 sec) 
Heartbeat CPU 0 instructions: 43000000 cycles: 17974085 heartbeat IPC: 2.53059 cumulative IPC: 2.39233 (Simulation time: 0 hr 20 min 26 sec) 
Heartbeat CPU 0 instructions: 44000000 cycles: 18451872 heartbeat IPC: 2.09298 cumulative IPC: 2.38458 (Simulation time: 0 hr 21 min 0 sec) 
Heartbeat CPU 0 instructions: 45000002 cycles: 18927211 heartbeat IPC: 2.10377 cumulative IPC: 2.37753 (Simulation time: 0 hr 21 min 31 sec) 
Heartbeat CPU 0 instructions: 46000002 cycles: 19405115 heartbeat IPC: 2.09247 cumulative IPC: 2.37051 (Simulation time: 0 hr 22 min 7 sec) 
Heartbeat CPU 0 instructions: 47000002 cycles: 19841084 heartbeat IPC: 2.29374 cumulative IPC: 2.36882 (Simulation time: 0 hr 22 min 34 sec) 
Heartbeat CPU 0 instructions: 48000000 cycles: 20234998 heartbeat IPC: 2.53862 cumulative IPC: 2.37213 (Simulation time: 0 hr 22 min 58 sec) 
Heartbeat CPU 0 instructions: 49000001 cycles: 20628491 heartbeat IPC: 2.54134 cumulative IPC: 2.37536 (Simulation time: 0 hr 23 min 23 sec) 
Heartbeat CPU 0 instructions: 50000000 cycles: 21023587 heartbeat IPC: 2.53103 cumulative IPC: 2.37828 (Simulation time: 0 hr 23 min 47 sec) 

Warmup complete CPU 0 instructions: 50000004 cycles: 21023588 (Simulation time: 0 hr 23 min 47 sec) 

Heartbeat CPU 0 instructions: 51000000 cycles: 21625015 heartbeat IPC: 1.66271 cumulative IPC: 1.66271 (Simulation time: 0 hr 24 min 17 sec) 
Heartbeat CPU 0 instructions: 52000000 cycles: 22211449 heartbeat IPC: 1.70522 cumulative IPC: 1.6837 (Simulation time: 0 hr 24 min 51 sec) 
Heartbeat CPU 0 instructions: 53000000 cycles: 22672370 heartbeat IPC: 2.16957 cumulative IPC: 1.81952 (Simulation time: 0 hr 25 min 17 sec) 
Heartbeat CPU 0 instructions: 54000003 cycles: 23120702 heartbeat IPC: 2.2305 cumulative IPC: 1.90738 (Simulation time: 0 hr 25 min 43 sec) 
Heartbeat CPU 0 instructions: 55000001 cycles: 23560234 heartbeat IPC: 2.27514 cumulative IPC: 1.97111 (Simulation time: 0 hr 26 min 12 sec) 
Heartbeat CPU 0 instructions: 56000000 cycles: 24000094 heartbeat IPC: 2.27345 cumulative IPC: 2.01578 (Simulation time: 0 hr 26 min 41 sec) 
Heartbeat CPU 0 instructions: 57000003 cycles: 24440735 heartbeat IPC: 2.26943 cumulative IPC: 2.04849 (Simulation time: 0 hr 27 min 8 sec) 
Heartbeat CPU 0 instructions: 58000000 cycles: 24902644 heartbeat IPC: 2.16492 cumulative IPC: 2.06236 (Simulation time: 0 hr 27 min 36 sec) 
Heartbeat CPU 0 instructions: 59000001 cycles: 25483707 heartbeat IPC: 1.72099 cumulative IPC: 2.01788 (Simulation time: 0 hr 28 min 7 sec) 
Heartbeat CPU 0 instructions: 60000000 cycles: 25920130 heartbeat IPC: 2.29135 cumulative IPC: 2.04226 (Simulation time: 0 hr 28 min 32 sec) 
Heartbeat CPU 0 instructions: 61000003 cycles: 26357813 heartbeat IPC: 2.28477 cumulative IPC: 2.06216 (Simulation time: 0 hr 29 min 1 sec) 
Heartbeat CPU 0 instructions: 62000002 cycles: 26794865 heartbeat IPC: 2.28805 cumulative IPC: 2.07926 (Simulation time: 0 hr 29 min 27 sec) 
Heartbeat CPU 0 instructions: 63000003 cycles: 27232984 heartbeat IPC: 2.28249 cumulative IPC: 2.0936 (Simulation time: 0 hr 29 min 56 sec) 
Heartbeat CPU 0 instructions: 64000000 cycles: 27670491 heartbeat IPC: 2.28567 cumulative IPC: 2.10624 (Simulation time: 0 hr 30 min 26 sec) 
Heartbeat CPU 0 instructions: 65000000 cycles: 28299679 heartbeat IPC: 1.58935 cumulative IPC: 2.06155 (Simulation time: 0 hr 30 min 56 sec) 
Heartbeat CPU 0 instructions: 66000002 cycles: 28861794 heartbeat IPC: 1.779 cumulative IPC: 2.04128 (Simulation time: 0 hr 31 min 26 sec) 
Heartbeat CPU 0 instructions: 67000002 cycles: 29299600 heartbeat IPC: 2.28412 cumulative IPC: 2.05413 (Simulation time: 0 hr 31 min 51 sec) 
Heartbeat CPU 0 instructions: 68000000 cycles: 29736004 heartbeat IPC: 2.29145 cumulative IPC: 2.06602 (Simulation time: 0 hr 32 min 21 sec) 
Heartbeat CPU 0 instructions: 69000001 cycles: 30289224 heartbeat IPC: 1.8076 cumulative IPC: 2.05059 (Simulation time: 0 hr 32 min 50 sec) 
Heartbeat CPU 0 instructions: 70000000 cycles: 30727753 heartbeat IPC: 2.28035 cumulative IPC: 2.06097 (Simulation time: 0 hr 33 min 15 sec) 
Heartbeat CPU 0 instructions: 71000000 cycles: 31168241 heartbeat IPC: 2.27021 cumulative IPC: 2.07006 (Simulation time: 0 hr 33 min 41 sec) 
Heartbeat CPU 0 instructions: 72000000 cycles: 31650734 heartbeat IPC: 2.07257 cumulative IPC: 2.07017 (Simulation time: 0 hr 34 min 7 sec) 
Heartbeat CPU 0 instructions: 73000001 cycles: 32213463 heartbeat IPC: 1.77706 cumulative IPC: 2.05543 (Simulation time: 0 hr 34 min 32 sec) 
Heartbeat CPU 0 instructions: 74000002 cycles: 32856262 heartbeat IPC: 1.5557 cumulative IPC: 2.02828 (Simulation time: 0 hr 35 min 4 sec) 
Heartbeat CPU 0 instructions: 75000000 cycles: 33403727 heartbeat IPC: 1.8266 cumulative IPC: 2.01936 (Simulation time: 0 hr 35 min 36 sec) 
Heartbeat CPU 0 instructions: 76000000 cycles: 34150015 heartbeat IPC: 1.33997 cumulative IPC: 1.98074 (Simulation time: 0 hr 36 min 11 sec) 
Heartbeat CPU 0 instructions: 77000000 cycles: 34870978 heartbeat IPC: 1.38703 cumulative IPC: 1.94983 (Simulation time: 0 hr 36 min 45 sec) 
Heartbeat CPU 0 instructions: 78000003 cycles: 35589754 heartbeat IPC: 1.39126 cumulative IPC: 1.92226 (Simulation time: 0 hr 37 min 18 sec) 
Heartbeat CPU 0 instructions: 79000000 cycles: 36300655 heartbeat IPC: 1.40666 cumulative IPC: 1.89827 (Simulation time: 0 hr 37 min 52 sec) 
Heartbeat CPU 0 instructions: 80000000 cycles: 36985737 heartbeat IPC: 1.45968 cumulative IPC: 1.87945 (Simulation time: 0 hr 38 min 25 sec) 
Heartbeat CPU 0 instructions: 81000001 cycles: 37650069 heartbeat IPC: 1.50527 cumulative IPC: 1.8645 (Simulation time: 0 hr 38 min 59 sec) 
Heartbeat CPU 0 instructions: 82000002 cycles: 38293027 heartbeat IPC: 1.55531 cumulative IPC: 1.85298 (Simulation time: 0 hr 39 min 28 sec) 
Heartbeat CPU 0 instructions: 83000002 cycles: 39144415 heartbeat IPC: 1.17455 cumulative IPC: 1.82111 (Simulation time: 0 hr 40 min 1 sec) 
Heartbeat CPU 0 instructions: 84000000 cycles: 39735914 heartbeat IPC: 1.69062 cumulative IPC: 1.81698 (Simulation time: 0 hr 40 min 34 sec) 
Heartbeat CPU 0 instructions: 85000000 cycles: 40191327 heartbeat IPC: 2.19581 cumulative IPC: 1.82598 (Simulation time: 0 hr 41 min 1 sec) 
Heartbeat CPU 0 instructions: 86000001 cycles: 40643922 heartbeat IPC: 2.20948 cumulative IPC: 1.83483 (Simulation time: 0 hr 41 min 26 sec) 
Heartbeat CPU 0 instructions: 87000002 cycles: 41099563 heartbeat IPC: 2.19471 cumulative IPC: 1.843 (Simulation time: 0 hr 41 min 53 sec) 
Heartbeat CPU 0 instructions: 88000000 cycles: 41550960 heartbeat IPC: 2.21534 cumulative IPC: 1.85119 (Simulation time: 0 hr 42 min 20 sec) 
Heartbeat CPU 0 instructions: 89000003 cycles: 42000505 heartbeat IPC: 2.22448 cumulative IPC: 1.85919 (Simulation time: 0 hr 42 min 48 sec) 
Heartbeat CPU 0 instructions: 90000003 cycles: 42450478 heartbeat IPC: 2.22236 cumulative IPC: 1.86681 (Simulation time: 0 hr 43 min 13 sec) 
Heartbeat CPU 0 instructions: 91000001 cycles: 42916277 heartbeat IPC: 2.14684 cumulative IPC: 1.87277 (Simulation time: 0 hr 43 min 38 sec) 
Heartbeat CPU 0 instructions: 92000000 cycles: 43414794 heartbeat IPC: 2.00595 cumulative IPC: 1.87574 (Simulation time: 0 hr 44 min 3 sec) 
Heartbeat CPU 0 instructions: 93000000 cycles: 43860687 heartbeat IPC: 2.24269 cumulative IPC: 1.8829 (Simulation time: 0 hr 44 min 29 sec) 
Heartbeat CPU 0 instructions: 94000003 cycles: 44305827 heartbeat IPC: 2.24649 cumulative IPC: 1.88985 (Simulation time: 0 hr 44 min 54 sec) 
Heartbeat CPU 0 instructions: 95000001 cycles: 44934361 heartbeat IPC: 1.591 cumulative IPC: 1.882 (Simulation time: 0 hr 45 min 23 sec) 
Heartbeat CPU 0 instructions: 96000000 cycles: 45534230 heartbeat IPC: 1.66703 cumulative IPC: 1.87674 (Simulation time: 0 hr 45 min 50 sec) 
Heartbeat CPU 0 instructions: 97000000 cycles: 45999312 heartbeat IPC: 2.15016 cumulative IPC: 1.88183 (Simulation time: 0 hr 46 min 16 sec) 
Heartbeat CPU 0 instructions: 98000003 cycles: 46439552 heartbeat IPC: 2.2715 cumulative IPC: 1.88858 (Simulation time: 0 hr 46 min 43 sec) 
Heartbeat CPU 0 instructions: 99000000 cycles: 46879198 heartbeat IPC: 2.27455 cumulative IPC: 1.89514 (Simulation time: 0 hr 47 min 10 sec) 
Heartbeat CPU 0 instructions: 100000000 cycles: 47319463 heartbeat IPC: 2.27136 cumulative IPC: 1.90144 (Simulation time: 0 hr 47 min 38 sec) 
Heartbeat CPU 0 instructions: 101000003 cycles: 47759047 heartbeat IPC: 2.27488 cumulative IPC: 1.90758 (Simulation time: 0 hr 48 min 9 sec) 
Heartbeat CPU 0 instructions: 102000002 cycles: 48306899 heartbeat IPC: 1.82531 cumulative IPC: 1.90593 (Simulation time: 0 hr 48 min 35 sec) 
Heartbeat CPU 0 instructions: 103000000 cycles: 48749979 heartbeat IPC: 2.25692 cumulative IPC: 1.91154 (Simulation time: 0 hr 49 min 2 sec) 
Heartbeat CPU 0 instructions: 104000000 cycles: 49187006 heartbeat IPC: 2.28819 cumulative IPC: 1.91738 (Simulation time: 0 hr 49 min 29 sec) 
Heartbeat CPU 0 instructions: 105000000 cycles: 49624432 heartbeat IPC: 2.2861 cumulative IPC: 1.92302 (Simulation time: 0 hr 49 min 58 sec) 
Heartbeat CPU 0 instructions: 106000003 cycles: 50061518 heartbeat IPC: 2.28789 cumulative IPC: 1.92851 (Simulation time: 0 hr 50 min 25 sec) 
Heartbeat CPU 0 instructions: 107000003 cycles: 50499479 heartbeat IPC: 2.28331 cumulative IPC: 1.93378 (Simulation time: 0 hr 50 min 50 sec) 
Heartbeat CPU 0 instructions: 108000000 cycles: 51012401 heartbeat IPC: 1.94961 cumulative IPC: 1.93405 (Simulation time: 0 hr 51 min 14 sec) 
Heartbeat CPU 0 instructions: 109000002 cycles: 51655974 heartbeat IPC: 1.55383 cumulative IPC: 1.92607 (Simulation time: 0 hr 51 min 47 sec) 
Heartbeat CPU 0 instructions: 110000003 cycles: 52090685 heartbeat IPC: 2.30038 cumulative IPC: 1.9313 (Simulation time: 0 hr 52 min 16 sec) 
Heartbeat CPU 0 instructions: 111000001 cycles: 52526438 heartbeat IPC: 2.29487 cumulative IPC: 1.93633 (Simulation time: 0 hr 52 min 43 sec) 
Heartbeat CPU 0 instructions: 112000000 cycles: 53012208 heartbeat IPC: 2.05859 cumulative IPC: 1.93819 (Simulation time: 0 hr 53 min 12 sec) 
Heartbeat CPU 0 instructions: 113000003 cycles: 53486616 heartbeat IPC: 2.1079 cumulative IPC: 1.94067 (Simulation time: 0 hr 53 min 39 sec) 
Heartbeat CPU 0 instructions: 114000003 cycles: 53924578 heartbeat IPC: 2.2833 cumulative IPC: 1.94523 (Simulation time: 0 hr 54 min 6 sec) 
Heartbeat CPU 0 instructions: 115000002 cycles: 54360150 heartbeat IPC: 2.29583 cumulative IPC: 1.94981 (Simulation time: 0 hr 54 min 31 sec) 
Heartbeat CPU 0 instructions: 116000000 cycles: 54860867 heartbeat IPC: 1.99713 cumulative IPC: 1.95051 (Simulation time: 0 hr 54 min 57 sec) 
Heartbeat CPU 0 instructions: 117000000 cycles: 55416285 heartbeat IPC: 1.80045 cumulative IPC: 1.94809 (Simulation time: 0 hr 55 min 25 sec) 
Heartbeat CPU 0 instructions: 118000001 cycles: 56041488 heartbeat IPC: 1.59948 cumulative IPC: 1.94186 (Simulation time: 0 hr 55 min 54 sec) 
Heartbeat CPU 0 instructions: 119000003 cycles: 56790538 heartbeat IPC: 1.33503 cumulative IPC: 1.92916 (Simulation time: 0 hr 56 min 25 sec) 
Heartbeat CPU 0 instructions: 120000000 cycles: 57507521 heartbeat IPC: 1.39473 cumulative IPC: 1.91865 (Simulation time: 0 hr 56 min 59 sec) 
Heartbeat CPU 0 instructions: 121000001 cycles: 58222506 heartbeat IPC: 1.39863 cumulative IPC: 1.90866 (Simulation time: 0 hr 57 min 31 sec) 
Heartbeat CPU 0 instructions: 122000002 cycles: 58928325 heartbeat IPC: 1.4168 cumulative IPC: 1.8995 (Simulation time: 0 hr 58 min 3 sec) 
Heartbeat CPU 0 instructions: 123000002 cycles: 59610771 heartbeat IPC: 1.46532 cumulative IPC: 1.89182 (Simulation time: 0 hr 58 min 41 sec) 
Heartbeat CPU 0 instructions: 124000000 cycles: 60274274 heartbeat IPC: 1.50715 cumulative IPC: 1.88532 (Simulation time: 0 hr 59 min 16 sec) 
Heartbeat CPU 0 instructions: 125000002 cycles: 60922432 heartbeat IPC: 1.54284 cumulative IPC: 1.87975 (Simulation time: 0 hr 59 min 52 sec) 
Heartbeat CPU 0 instructions: 126000001 cycles: 61856307 heartbeat IPC: 1.07081 cumulative IPC: 1.86125 (Simulation time: 1 hr 0 min 27 sec) 
Heartbeat CPU 0 instructions: 127000003 cycles: 62435163 heartbeat IPC: 1.72755 cumulative IPC: 1.85938 (Simulation time: 1 hr 0 min 56 sec) 
Heartbeat CPU 0 instructions: 128000000 cycles: 62895944 heartbeat IPC: 2.17022 cumulative IPC: 1.8628 (Simulation time: 1 hr 1 min 22 sec) 
Heartbeat CPU 0 instructions: 129000002 cycles: 63348656 heartbeat IPC: 2.20891 cumulative IPC: 1.86651 (Simulation time: 1 hr 1 min 50 sec) 
Heartbeat CPU 0 instructions: 130000001 cycles: 63797283 heartbeat IPC: 2.22902 cumulative IPC: 1.87031 (Simulation time: 1 hr 2 min 17 sec) 
Heartbeat CPU 0 instructions: 131000000 cycles: 64245734 heartbeat IPC: 2.2299 cumulative IPC: 1.87404 (Simulation time: 1 hr 2 min 43 sec) 
Heartbeat CPU 0 instructions: 132000000 cycles: 64699327 heartbeat IPC: 2.20462 cumulative IPC: 1.87747 (Simulation time: 1 hr 3 min 10 sec) 
Heartbeat CPU 0 instructions: 133000000 cycles: 65154862 heartbeat IPC: 2.19522 cumulative IPC: 1.88075 (Simulation time: 1 hr 3 min 37 sec) 
Heartbeat CPU 0 instructions: 134000000 cycles: 65687934 heartbeat IPC: 1.87592 cumulative IPC: 1.88069 (Simulation time: 1 hr 4 min 5 sec) 
Heartbeat CPU 0 instructions: 135000003 cycles: 66200630 heartbeat IPC: 1.95048 cumulative IPC: 1.88149 (Simulation time: 1 hr 4 min 32 sec) 
Heartbeat CPU 0 instructions: 136000000 cycles: 66653006 heartbeat IPC: 2.21054 cumulative IPC: 1.88475 (Simulation time: 1 hr 4 min 58 sec) 
Heartbeat CPU 0 instructions: 137000002 cycles: 67104700 heartbeat IPC: 2.21389 cumulative IPC: 1.88798 (Simulation time: 1 hr 5 min 24 sec) 
Heartbeat CPU 0 instructions: 138000002 cycles: 67557678 heartbeat IPC: 2.20761 cumulative IPC: 1.89109 (Simulation time: 1 hr 5 min 50 sec) 
Heartbeat CPU 0 instructions: 139000000 cycles: 68014189 heartbeat IPC: 2.19052 cumulative IPC: 1.894 (Simulation time: 1 hr 6 min 15 sec) 
Heartbeat CPU 0 instructions: 140000000 cycles: 68465884 heartbeat IPC: 2.21388 cumulative IPC: 1.89704 (Simulation time: 1 hr 6 min 43 sec) 
Heartbeat CPU 0 instructions: 141000000 cycles: 68918828 heartbeat IPC: 2.20778 cumulative IPC: 1.89998 (Simulation time: 1 hr 7 min 14 sec) 
Heartbeat CPU 0 instructions: 142000003 cycles: 69432617 heartbeat IPC: 1.94633 cumulative IPC: 1.90047 (Simulation time: 1 hr 7 min 40 sec) 
Heartbeat CPU 0 instructions: 143000002 cycles: 69876281 heartbeat IPC: 2.25396 cumulative IPC: 1.90368 (Simulation time: 1 hr 8 min 10 sec) 
Heartbeat CPU 0 instructions: 144000000 cycles: 70327711 heartbeat IPC: 2.21518 cumulative IPC: 1.90653 (Simulation time: 1 hr 8 min 34 sec) 
Heartbeat CPU 0 instructions: 145000001 cycles: 70985661 heartbeat IPC: 1.51987 cumulative IPC: 1.90144 (Simulation time: 1 hr 9 min 4 sec) 
Heartbeat CPU 0 instructions: 146000003 cycles: 71601950 heartbeat IPC: 1.62262 cumulative IPC: 1.89804 (Simulation time: 1 hr 9 min 33 sec) 
Heartbeat CPU 0 instructions: 147000002 cycles: 72056150 heartbeat IPC: 2.20167 cumulative IPC: 1.90075 (Simulation time: 1 hr 9 min 59 sec) 
Heartbeat CPU 0 instructions: 148000000 cycles: 72494413 heartbeat IPC: 2.28173 cumulative IPC: 1.90399 (Simulation time: 1 hr 10 min 23 sec) 
Heartbeat CPU 0 instructions: 149000002 cycles: 72933960 heartbeat IPC: 2.27507 cumulative IPC: 1.90713 (Simulation time: 1 hr 10 min 46 sec) 
Heartbeat CPU 0 instructions: 150000003 cycles: 73372970 heartbeat IPC: 2.27785 cumulative IPC: 1.91024 (Simulation time: 1 hr 11 min 8 sec) 
Finished CPU 0 instructions: 100000003 cycles: 52349383 cummulative IPC: 1.91024 (Simulation time: 1 hr 11 min 8 sec) 

ChampSim completed all CPUs

Region of Interest Statistics

CPU 0 cummulative IPC: 1.91024 instructions: 100000003 cycles: 52349383
LLC TOTAL     ACCESS:    1256098  HIT:    1164367  MISS:      91731
LLC LOAD      ACCESS:     149570  HIT:     140174  MISS:       9396
LLC RFO       ACCESS:      37521  HIT:      12789  MISS:      24732
LLC PREFETCH  ACCESS:     776650  HIT:     725680  MISS:      50970
LLC WRITEBACK ACCESS:     292357  HIT:     285724  MISS:       6633
OPTgen accesses: 4735
OPTgen hits: 12687
OPTgen hit rate: 267.941


