
*** ChampSim Multicore Out-of-Order Simulator ***

Warmup Instructions: 50000000
Simulation Instructions: 100000000
Configuration: 2
Number of CPUs: 1
LLC sets: 2048
LLC ways: 16
Off-chip DRAM Channels: 1 Width: 64-bit Data Rate: 1600 MT/s

CPU 0 runs /datasets/cs240c-wi22-a00-public/data/Assignment2-gz/soplex_217B.trace.gz
CPU 0 L1D next line prefetcher
CPU 0 L2C IP-based stride prefetcher
Initialize Hawkeye state
Heartbeat CPU 0 instructions: 1000002 cycles: 441289 heartbeat IPC: 2.26609 cumulative IPC: 2.26609 (Simulation time: 0 hr 0 min 36 sec) 
Heartbeat CPU 0 instructions: 2000003 cycles: 800423 heartbeat IPC: 2.78448 cumulative IPC: 2.49868 (Simulation time: 0 hr 1 min 5 sec) 
Heartbeat CPU 0 instructions: 3000002 cycles: 1245423 heartbeat IPC: 2.24719 cumulative IPC: 2.40882 (Simulation time: 0 hr 1 min 36 sec) 
Heartbeat CPU 0 instructions: 4000000 cycles: 1672917 heartbeat IPC: 2.33921 cumulative IPC: 2.39103 (Simulation time: 0 hr 2 min 6 sec) 
Heartbeat CPU 0 instructions: 5000001 cycles: 2056966 heartbeat IPC: 2.60384 cumulative IPC: 2.43076 (Simulation time: 0 hr 2 min 30 sec) 
Heartbeat CPU 0 instructions: 6000000 cycles: 2431134 heartbeat IPC: 2.67259 cumulative IPC: 2.46798 (Simulation time: 0 hr 2 min 55 sec) 
Heartbeat CPU 0 instructions: 7000003 cycles: 2955321 heartbeat IPC: 1.90772 cumulative IPC: 2.36861 (Simulation time: 0 hr 3 min 26 sec) 
Heartbeat CPU 0 instructions: 8000000 cycles: 3401636 heartbeat IPC: 2.24056 cumulative IPC: 2.35181 (Simulation time: 0 hr 3 min 59 sec) 
Heartbeat CPU 0 instructions: 9000001 cycles: 3825976 heartbeat IPC: 2.3566 cumulative IPC: 2.35234 (Simulation time: 0 hr 4 min 31 sec) 
Heartbeat CPU 0 instructions: 10000000 cycles: 4238312 heartbeat IPC: 2.4252 cumulative IPC: 2.35943 (Simulation time: 0 hr 5 min 1 sec) 
Heartbeat CPU 0 instructions: 11000002 cycles: 4666877 heartbeat IPC: 2.33337 cumulative IPC: 2.35704 (Simulation time: 0 hr 5 min 33 sec) 
Heartbeat CPU 0 instructions: 12000000 cycles: 5071121 heartbeat IPC: 2.47375 cumulative IPC: 2.36634 (Simulation time: 0 hr 6 min 0 sec) 
Heartbeat CPU 0 instructions: 13000000 cycles: 5455366 heartbeat IPC: 2.60251 cumulative IPC: 2.38297 (Simulation time: 0 hr 6 min 25 sec) 
Heartbeat CPU 0 instructions: 14000000 cycles: 5904584 heartbeat IPC: 2.22609 cumulative IPC: 2.37104 (Simulation time: 0 hr 6 min 50 sec) 
Heartbeat CPU 0 instructions: 15000000 cycles: 6425602 heartbeat IPC: 1.91932 cumulative IPC: 2.33441 (Simulation time: 0 hr 7 min 19 sec) 
Heartbeat CPU 0 instructions: 16000000 cycles: 6884118 heartbeat IPC: 2.18095 cumulative IPC: 2.32419 (Simulation time: 0 hr 7 min 54 sec) 
Heartbeat CPU 0 instructions: 17000002 cycles: 7263987 heartbeat IPC: 2.63249 cumulative IPC: 2.34031 (Simulation time: 0 hr 8 min 21 sec) 
Heartbeat CPU 0 instructions: 18000003 cycles: 7693790 heartbeat IPC: 2.32665 cumulative IPC: 2.33955 (Simulation time: 0 hr 8 min 51 sec) 
Heartbeat CPU 0 instructions: 19000001 cycles: 8117747 heartbeat IPC: 2.35873 cumulative IPC: 2.34055 (Simulation time: 0 hr 9 min 24 sec) 
Heartbeat CPU 0 instructions: 20000000 cycles: 8502091 heartbeat IPC: 2.60183 cumulative IPC: 2.35236 (Simulation time: 0 hr 9 min 50 sec) 
Heartbeat CPU 0 instructions: 21000000 cycles: 8879689 heartbeat IPC: 2.64832 cumulative IPC: 2.36495 (Simulation time: 0 hr 10 min 14 sec) 
Heartbeat CPU 0 instructions: 22000001 cycles: 9410765 heartbeat IPC: 1.88297 cumulative IPC: 2.33775 (Simulation time: 0 hr 10 min 43 sec) 
Heartbeat CPU 0 instructions: 23000001 cycles: 9858591 heartbeat IPC: 2.23301 cumulative IPC: 2.33299 (Simulation time: 0 hr 11 min 17 sec) 
Heartbeat CPU 0 instructions: 24000000 cycles: 10275892 heartbeat IPC: 2.39635 cumulative IPC: 2.33556 (Simulation time: 0 hr 11 min 50 sec) 
Heartbeat CPU 0 instructions: 25000001 cycles: 10688492 heartbeat IPC: 2.42366 cumulative IPC: 2.33896 (Simulation time: 0 hr 12 min 22 sec) 
Heartbeat CPU 0 instructions: 26000001 cycles: 11120531 heartbeat IPC: 2.31461 cumulative IPC: 2.33802 (Simulation time: 0 hr 13 min 0 sec) 
Heartbeat CPU 0 instructions: 27000002 cycles: 11522714 heartbeat IPC: 2.48643 cumulative IPC: 2.3432 (Simulation time: 0 hr 13 min 28 sec) 
Heartbeat CPU 0 instructions: 28000000 cycles: 11907027 heartbeat IPC: 2.60204 cumulative IPC: 2.35155 (Simulation time: 0 hr 13 min 57 sec) 
Heartbeat CPU 0 instructions: 29000002 cycles: 12361400 heartbeat IPC: 2.20084 cumulative IPC: 2.34601 (Simulation time: 0 hr 14 min 23 sec) 
Heartbeat CPU 0 instructions: 30000002 cycles: 12884190 heartbeat IPC: 1.91281 cumulative IPC: 2.32844 (Simulation time: 0 hr 14 min 54 sec) 
Heartbeat CPU 0 instructions: 31000000 cycles: 13289632 heartbeat IPC: 2.46644 cumulative IPC: 2.33265 (Simulation time: 0 hr 15 min 28 sec) 
Heartbeat CPU 0 instructions: 32000000 cycles: 13697898 heartbeat IPC: 2.44938 cumulative IPC: 2.33612 (Simulation time: 0 hr 15 min 57 sec) 
Heartbeat CPU 0 instructions: 33000002 cycles: 14122755 heartbeat IPC: 2.35374 cumulative IPC: 2.33665 (Simulation time: 0 hr 16 min 33 sec) 
Heartbeat CPU 0 instructions: 34000000 cycles: 14531037 heartbeat IPC: 2.44928 cumulative IPC: 2.33982 (Simulation time: 0 hr 17 min 4 sec) 
Heartbeat CPU 0 instructions: 35000002 cycles: 14915733 heartbeat IPC: 2.59946 cumulative IPC: 2.34652 (Simulation time: 0 hr 17 min 30 sec) 
Heartbeat CPU 0 instructions: 36000000 cycles: 15352610 heartbeat IPC: 2.28897 cumulative IPC: 2.34488 (Simulation time: 0 hr 17 min 55 sec) 
Heartbeat CPU 0 instructions: 37000001 cycles: 15877941 heartbeat IPC: 1.90356 cumulative IPC: 2.33028 (Simulation time: 0 hr 18 min 23 sec) 
Heartbeat CPU 0 instructions: 38000000 cycles: 16306480 heartbeat IPC: 2.33351 cumulative IPC: 2.33036 (Simulation time: 0 hr 19 min 1 sec) 
Heartbeat CPU 0 instructions: 39000001 cycles: 16702949 heartbeat IPC: 2.52227 cumulative IPC: 2.33492 (Simulation time: 0 hr 19 min 29 sec) 
Heartbeat CPU 0 instructions: 40000000 cycles: 17127600 heartbeat IPC: 2.35487 cumulative IPC: 2.33541 (Simulation time: 0 hr 20 min 0 sec) 
Heartbeat CPU 0 instructions: 41000000 cycles: 17542794 heartbeat IPC: 2.40851 cumulative IPC: 2.33714 (Simulation time: 0 hr 20 min 30 sec) 
Heartbeat CPU 0 instructions: 42000002 cycles: 17926719 heartbeat IPC: 2.60468 cumulative IPC: 2.34287 (Simulation time: 0 hr 20 min 56 sec) 
Heartbeat CPU 0 instructions: 43000000 cycles: 18347448 heartbeat IPC: 2.37682 cumulative IPC: 2.34365 (Simulation time: 0 hr 21 min 22 sec) 
Heartbeat CPU 0 instructions: 44000000 cycles: 18878857 heartbeat IPC: 1.88179 cumulative IPC: 2.33065 (Simulation time: 0 hr 21 min 50 sec) 
Heartbeat CPU 0 instructions: 45000003 cycles: 19338039 heartbeat IPC: 2.17779 cumulative IPC: 2.32702 (Simulation time: 0 hr 22 min 27 sec) 
Heartbeat CPU 0 instructions: 46000000 cycles: 19769768 heartbeat IPC: 2.31626 cumulative IPC: 2.32679 (Simulation time: 0 hr 22 min 57 sec) 
Heartbeat CPU 0 instructions: 47000001 cycles: 20180649 heartbeat IPC: 2.4338 cumulative IPC: 2.32896 (Simulation time: 0 hr 23 min 33 sec) 
Heartbeat CPU 0 instructions: 48000000 cycles: 20609228 heartbeat IPC: 2.33329 cumulative IPC: 2.32905 (Simulation time: 0 hr 24 min 5 sec) 
Heartbeat CPU 0 instructions: 49000000 cycles: 21014520 heartbeat IPC: 2.46736 cumulative IPC: 2.33172 (Simulation time: 0 hr 24 min 35 sec) 
Heartbeat CPU 0 instructions: 50000002 cycles: 21399024 heartbeat IPC: 2.60076 cumulative IPC: 2.33656 (Simulation time: 0 hr 25 min 1 sec) 

Warmup complete CPU 0 instructions: 50000002 cycles: 21399024 (Simulation time: 0 hr 25 min 1 sec) 

Heartbeat CPU 0 instructions: 51000000 cycles: 23909910 heartbeat IPC: 0.398265 cumulative IPC: 0.398265 (Simulation time: 0 hr 25 min 31 sec) 
Heartbeat CPU 0 instructions: 52000000 cycles: 26747281 heartbeat IPC: 0.352439 cumulative IPC: 0.373953 (Simulation time: 0 hr 26 min 11 sec) 
Heartbeat CPU 0 instructions: 53000000 cycles: 30048372 heartbeat IPC: 0.30293 cumulative IPC: 0.346847 (Simulation time: 0 hr 26 min 56 sec) 
Heartbeat CPU 0 instructions: 54000000 cycles: 31963086 heartbeat IPC: 0.522271 cumulative IPC: 0.378642 (Simulation time: 0 hr 27 min 30 sec) 
Heartbeat CPU 0 instructions: 55000000 cycles: 35297880 heartbeat IPC: 0.299869 cumulative IPC: 0.359742 (Simulation time: 0 hr 28 min 14 sec) 
Heartbeat CPU 0 instructions: 56000000 cycles: 38071751 heartbeat IPC: 0.360507 cumulative IPC: 0.359869 (Simulation time: 0 hr 28 min 47 sec) 
Heartbeat CPU 0 instructions: 57000003 cycles: 39300466 heartbeat IPC: 0.813861 cumulative IPC: 0.39103 (Simulation time: 0 hr 29 min 12 sec) 
Heartbeat CPU 0 instructions: 58000000 cycles: 41429755 heartbeat IPC: 0.469639 cumulative IPC: 0.399386 (Simulation time: 0 hr 29 min 41 sec) 
Heartbeat CPU 0 instructions: 59000001 cycles: 44116248 heartbeat IPC: 0.372233 cumulative IPC: 0.396175 (Simulation time: 0 hr 30 min 23 sec) 
Heartbeat CPU 0 instructions: 60000000 cycles: 47511792 heartbeat IPC: 0.294503 cumulative IPC: 0.382954 (Simulation time: 0 hr 31 min 10 sec) 
Heartbeat CPU 0 instructions: 61000000 cycles: 49707536 heartbeat IPC: 0.455426 cumulative IPC: 0.388576 (Simulation time: 0 hr 31 min 43 sec) 
Heartbeat CPU 0 instructions: 62000000 cycles: 52438910 heartbeat IPC: 0.366116 cumulative IPC: 0.386599 (Simulation time: 0 hr 32 min 23 sec) 
Heartbeat CPU 0 instructions: 63000001 cycles: 55777301 heartbeat IPC: 0.299546 cumulative IPC: 0.378146 (Simulation time: 0 hr 33 min 3 sec) 
Heartbeat CPU 0 instructions: 64000000 cycles: 57034929 heartbeat IPC: 0.795147 cumulative IPC: 0.392862 (Simulation time: 0 hr 33 min 26 sec) 
Heartbeat CPU 0 instructions: 65000001 cycles: 58451550 heartbeat IPC: 0.705906 cumulative IPC: 0.404831 (Simulation time: 0 hr 33 min 52 sec) 
Heartbeat CPU 0 instructions: 66000002 cycles: 61651859 heartbeat IPC: 0.31247 cumulative IPC: 0.397488 (Simulation time: 0 hr 34 min 30 sec) 
Heartbeat CPU 0 instructions: 67000000 cycles: 64844933 heartbeat IPC: 0.313177 cumulative IPC: 0.391291 (Simulation time: 0 hr 35 min 18 sec) 
Heartbeat CPU 0 instructions: 68000000 cycles: 70436601 heartbeat IPC: 0.178838 cumulative IPC: 0.367065 (Simulation time: 0 hr 36 min 2 sec) 
Heartbeat CPU 0 instructions: 69000001 cycles: 74362757 heartbeat IPC: 0.254702 cumulative IPC: 0.358736 (Simulation time: 0 hr 36 min 44 sec) 
Heartbeat CPU 0 instructions: 70000002 cycles: 78384436 heartbeat IPC: 0.248653 cumulative IPC: 0.350967 (Simulation time: 0 hr 37 min 31 sec) 
Heartbeat CPU 0 instructions: 71000002 cycles: 82615849 heartbeat IPC: 0.236328 cumulative IPC: 0.343043 (Simulation time: 0 hr 38 min 15 sec) 
Heartbeat CPU 0 instructions: 72000000 cycles: 85921714 heartbeat IPC: 0.302492 cumulative IPC: 0.340965 (Simulation time: 0 hr 38 min 58 sec) 
Heartbeat CPU 0 instructions: 73000000 cycles: 89252054 heartbeat IPC: 0.30027 cumulative IPC: 0.338968 (Simulation time: 0 hr 39 min 37 sec) 
Heartbeat CPU 0 instructions: 74000000 cycles: 92885179 heartbeat IPC: 0.275245 cumulative IPC: 0.335729 (Simulation time: 0 hr 40 min 13 sec) 
Heartbeat CPU 0 instructions: 75000002 cycles: 96491051 heartbeat IPC: 0.277326 cumulative IPC: 0.332925 (Simulation time: 0 hr 40 min 58 sec) 
Heartbeat CPU 0 instructions: 76000000 cycles: 99045566 heartbeat IPC: 0.391463 cumulative IPC: 0.334851 (Simulation time: 0 hr 41 min 33 sec) 
Heartbeat CPU 0 instructions: 77000000 cycles: 102428328 heartbeat IPC: 0.295616 cumulative IPC: 0.333213 (Simulation time: 0 hr 42 min 16 sec) 
Heartbeat CPU 0 instructions: 78000002 cycles: 104583875 heartbeat IPC: 0.46392 cumulative IPC: 0.3366 (Simulation time: 0 hr 42 min 52 sec) 
Heartbeat CPU 0 instructions: 79000003 cycles: 106449983 heartbeat IPC: 0.535875 cumulative IPC: 0.340972 (Simulation time: 0 hr 43 min 29 sec) 
Heartbeat CPU 0 instructions: 80000000 cycles: 107759192 heartbeat IPC: 0.763818 cumulative IPC: 0.347382 (Simulation time: 0 hr 43 min 59 sec) 
Heartbeat CPU 0 instructions: 81000002 cycles: 109914996 heartbeat IPC: 0.463865 cumulative IPC: 0.350219 (Simulation time: 0 hr 44 min 34 sec) 
Heartbeat CPU 0 instructions: 82000001 cycles: 112583063 heartbeat IPC: 0.374803 cumulative IPC: 0.350939 (Simulation time: 0 hr 45 min 19 sec) 
Heartbeat CPU 0 instructions: 83000002 cycles: 114895923 heartbeat IPC: 0.432366 cumulative IPC: 0.352953 (Simulation time: 0 hr 45 min 56 sec) 
Heartbeat CPU 0 instructions: 84000000 cycles: 117081697 heartbeat IPC: 0.457503 cumulative IPC: 0.355341 (Simulation time: 0 hr 46 min 31 sec) 
Heartbeat CPU 0 instructions: 85000000 cycles: 118693548 heartbeat IPC: 0.620405 cumulative IPC: 0.359732 (Simulation time: 0 hr 47 min 4 sec) 
Heartbeat CPU 0 instructions: 86000000 cycles: 122292597 heartbeat IPC: 0.277851 cumulative IPC: 0.356812 (Simulation time: 0 hr 47 min 50 sec) 
Heartbeat CPU 0 instructions: 87000000 cycles: 124815315 heartbeat IPC: 0.396398 cumulative IPC: 0.357777 (Simulation time: 0 hr 48 min 22 sec) 
Heartbeat CPU 0 instructions: 88000000 cycles: 126134524 heartbeat IPC: 0.75803 cumulative IPC: 0.362819 (Simulation time: 0 hr 48 min 48 sec) 
Heartbeat CPU 0 instructions: 89000003 cycles: 128750018 heartbeat IPC: 0.382338 cumulative IPC: 0.363294 (Simulation time: 0 hr 49 min 25 sec) 
Heartbeat CPU 0 instructions: 90000002 cycles: 131712759 heartbeat IPC: 0.337525 cumulative IPC: 0.362602 (Simulation time: 0 hr 50 min 4 sec) 
Heartbeat CPU 0 instructions: 91000001 cycles: 135103028 heartbeat IPC: 0.294962 cumulative IPC: 0.360585 (Simulation time: 0 hr 50 min 46 sec) 
Heartbeat CPU 0 instructions: 92000000 cycles: 136970873 heartbeat IPC: 0.535376 cumulative IPC: 0.36341 (Simulation time: 0 hr 51 min 20 sec) 
Heartbeat CPU 0 instructions: 93000000 cycles: 140410051 heartbeat IPC: 0.290767 cumulative IPC: 0.361311 (Simulation time: 0 hr 52 min 8 sec) 
Heartbeat CPU 0 instructions: 94000001 cycles: 143190963 heartbeat IPC: 0.359595 cumulative IPC: 0.361272 (Simulation time: 0 hr 52 min 45 sec) 
Heartbeat CPU 0 instructions: 95000003 cycles: 144414600 heartbeat IPC: 0.817237 cumulative IPC: 0.365807 (Simulation time: 0 hr 53 min 11 sec) 
Heartbeat CPU 0 instructions: 96000000 cycles: 146604960 heartbeat IPC: 0.456545 cumulative IPC: 0.367395 (Simulation time: 0 hr 53 min 44 sec) 
Heartbeat CPU 0 instructions: 97000002 cycles: 149164386 heartbeat IPC: 0.390713 cumulative IPC: 0.367862 (Simulation time: 0 hr 54 min 22 sec) 
Heartbeat CPU 0 instructions: 98000003 cycles: 153074888 heartbeat IPC: 0.255722 cumulative IPC: 0.364532 (Simulation time: 0 hr 55 min 13 sec) 
Heartbeat CPU 0 instructions: 99000000 cycles: 156043483 heartbeat IPC: 0.336859 cumulative IPC: 0.363921 (Simulation time: 0 hr 55 min 52 sec) 
Heartbeat CPU 0 instructions: 100000000 cycles: 157870607 heartbeat IPC: 0.547308 cumulative IPC: 0.366377 (Simulation time: 0 hr 56 min 27 sec) 
Heartbeat CPU 0 instructions: 101000001 cycles: 161711308 heartbeat IPC: 0.260369 cumulative IPC: 0.363475 (Simulation time: 0 hr 57 min 13 sec) 
Heartbeat CPU 0 instructions: 102000000 cycles: 163310610 heartbeat IPC: 0.625272 cumulative IPC: 0.366425 (Simulation time: 0 hr 57 min 37 sec) 
Heartbeat CPU 0 instructions: 103000001 cycles: 164515299 heartbeat IPC: 0.830091 cumulative IPC: 0.370328 (Simulation time: 0 hr 58 min 1 sec) 
Heartbeat CPU 0 instructions: 104000000 cycles: 167845955 heartbeat IPC: 0.300241 cumulative IPC: 0.368734 (Simulation time: 0 hr 58 min 42 sec) 
Heartbeat CPU 0 instructions: 105000003 cycles: 170999982 heartbeat IPC: 0.317056 cumulative IPC: 0.367645 (Simulation time: 0 hr 59 min 24 sec) 
Heartbeat CPU 0 instructions: 106000002 cycles: 173847422 heartbeat IPC: 0.351192 cumulative IPC: 0.367337 (Simulation time: 1 hr 0 min 5 sec) 
Heartbeat CPU 0 instructions: 107000000 cycles: 175537130 heartbeat IPC: 0.591817 cumulative IPC: 0.369798 (Simulation time: 1 hr 0 min 41 sec) 
Heartbeat CPU 0 instructions: 108000000 cycles: 179478135 heartbeat IPC: 0.253742 cumulative IPC: 0.366905 (Simulation time: 1 hr 1 min 30 sec) 
Heartbeat CPU 0 instructions: 109000000 cycles: 181310630 heartbeat IPC: 0.545704 cumulative IPC: 0.368954 (Simulation time: 1 hr 1 min 57 sec) 
Heartbeat CPU 0 instructions: 110000002 cycles: 182468045 heartbeat IPC: 0.863996 cumulative IPC: 0.372511 (Simulation time: 1 hr 2 min 23 sec) 
Heartbeat CPU 0 instructions: 111000000 cycles: 185689402 heartbeat IPC: 0.310428 cumulative IPC: 0.371294 (Simulation time: 1 hr 2 min 59 sec) 
Heartbeat CPU 0 instructions: 112000000 cycles: 188557557 heartbeat IPC: 0.348656 cumulative IPC: 0.370905 (Simulation time: 1 hr 3 min 38 sec) 
Heartbeat CPU 0 instructions: 113000001 cycles: 191425155 heartbeat IPC: 0.348724 cumulative IPC: 0.370531 (Simulation time: 1 hr 4 min 14 sec) 
Heartbeat CPU 0 instructions: 114000001 cycles: 192932254 heartbeat IPC: 0.663526 cumulative IPC: 0.373106 (Simulation time: 1 hr 4 min 48 sec) 
Heartbeat CPU 0 instructions: 115000000 cycles: 196826357 heartbeat IPC: 0.256798 cumulative IPC: 0.370524 (Simulation time: 1 hr 5 min 33 sec) 
Heartbeat CPU 0 instructions: 116000000 cycles: 198961764 heartbeat IPC: 0.468295 cumulative IPC: 0.3717 (Simulation time: 1 hr 6 min 1 sec) 
Heartbeat CPU 0 instructions: 117000000 cycles: 200144045 heartbeat IPC: 0.845823 cumulative IPC: 0.374836 (Simulation time: 1 hr 6 min 25 sec) 
Heartbeat CPU 0 instructions: 118000000 cycles: 203108630 heartbeat IPC: 0.337315 cumulative IPC: 0.374223 (Simulation time: 1 hr 6 min 58 sec) 
Heartbeat CPU 0 instructions: 119000001 cycles: 205895645 heartbeat IPC: 0.358807 cumulative IPC: 0.373991 (Simulation time: 1 hr 7 min 36 sec) 
Heartbeat CPU 0 instructions: 120000000 cycles: 208902487 heartbeat IPC: 0.332575 cumulative IPC: 0.373326 (Simulation time: 1 hr 8 min 18 sec) 
Heartbeat CPU 0 instructions: 121000000 cycles: 210444117 heartbeat IPC: 0.648664 cumulative IPC: 0.375572 (Simulation time: 1 hr 8 min 52 sec) 
Heartbeat CPU 0 instructions: 122000001 cycles: 214135891 heartbeat IPC: 0.270873 cumulative IPC: 0.373566 (Simulation time: 1 hr 9 min 34 sec) 
Heartbeat CPU 0 instructions: 123000000 cycles: 216632979 heartbeat IPC: 0.400466 cumulative IPC: 0.37391 (Simulation time: 1 hr 10 min 5 sec) 
Heartbeat CPU 0 instructions: 124000000 cycles: 217842368 heartbeat IPC: 0.826864 cumulative IPC: 0.376699 (Simulation time: 1 hr 10 min 28 sec) 
Heartbeat CPU 0 instructions: 125000003 cycles: 220418264 heartbeat IPC: 0.388216 cumulative IPC: 0.376848 (Simulation time: 1 hr 10 min 58 sec) 
Heartbeat CPU 0 instructions: 126000002 cycles: 223202745 heartbeat IPC: 0.359133 cumulative IPC: 0.376604 (Simulation time: 1 hr 11 min 33 sec) 
Heartbeat CPU 0 instructions: 127000003 cycles: 225586292 heartbeat IPC: 0.419543 cumulative IPC: 0.377105 (Simulation time: 1 hr 12 min 9 sec) 
Heartbeat CPU 0 instructions: 128000000 cycles: 228274459 heartbeat IPC: 0.372 cumulative IPC: 0.377038 (Simulation time: 1 hr 12 min 39 sec) 
Heartbeat CPU 0 instructions: 129000002 cycles: 230224795 heartbeat IPC: 0.512733 cumulative IPC: 0.378306 (Simulation time: 1 hr 13 min 10 sec) 
Heartbeat CPU 0 instructions: 130000000 cycles: 234221092 heartbeat IPC: 0.250231 cumulative IPC: 0.375901 (Simulation time: 1 hr 13 min 51 sec) 
Heartbeat CPU 0 instructions: 131000001 cycles: 235551650 heartbeat IPC: 0.751565 cumulative IPC: 0.378235 (Simulation time: 1 hr 14 min 11 sec) 
Heartbeat CPU 0 instructions: 132000000 cycles: 236689028 heartbeat IPC: 0.879214 cumulative IPC: 0.380882 (Simulation time: 1 hr 14 min 30 sec) 
Heartbeat CPU 0 instructions: 133000002 cycles: 240050754 heartbeat IPC: 0.297467 cumulative IPC: 0.379599 (Simulation time: 1 hr 14 min 59 sec) 
Heartbeat CPU 0 instructions: 134000002 cycles: 243206546 heartbeat IPC: 0.316878 cumulative IPC: 0.378707 (Simulation time: 1 hr 15 min 33 sec) 
Heartbeat CPU 0 instructions: 135000001 cycles: 245957399 heartbeat IPC: 0.363523 cumulative IPC: 0.378521 (Simulation time: 1 hr 16 min 4 sec) 
Heartbeat CPU 0 instructions: 136000000 cycles: 247656524 heartbeat IPC: 0.588538 cumulative IPC: 0.380098 (Simulation time: 1 hr 16 min 34 sec) 
Heartbeat CPU 0 instructions: 137000003 cycles: 251549804 heartbeat IPC: 0.256854 cumulative IPC: 0.378013 (Simulation time: 1 hr 17 min 10 sec) 
Heartbeat CPU 0 instructions: 138000000 cycles: 253306245 heartbeat IPC: 0.569331 cumulative IPC: 0.379462 (Simulation time: 1 hr 17 min 29 sec) 
Heartbeat CPU 0 instructions: 139000000 cycles: 254455695 heartbeat IPC: 0.869981 cumulative IPC: 0.381881 (Simulation time: 1 hr 17 min 47 sec) 
Heartbeat CPU 0 instructions: 140000000 cycles: 257750151 heartbeat IPC: 0.30354 cumulative IPC: 0.380789 (Simulation time: 1 hr 18 min 13 sec) 
Heartbeat CPU 0 instructions: 141000001 cycles: 260667554 heartbeat IPC: 0.342771 cumulative IPC: 0.380326 (Simulation time: 1 hr 18 min 42 sec) 
Heartbeat CPU 0 instructions: 142000001 cycles: 263478128 heartbeat IPC: 0.355799 cumulative IPC: 0.380041 (Simulation time: 1 hr 19 min 7 sec) 
Heartbeat CPU 0 instructions: 143000000 cycles: 265051849 heartbeat IPC: 0.635436 cumulative IPC: 0.381691 (Simulation time: 1 hr 19 min 31 sec) 
Heartbeat CPU 0 instructions: 144000000 cycles: 268953487 heartbeat IPC: 0.256303 cumulative IPC: 0.379714 (Simulation time: 1 hr 20 min 2 sec) 
Heartbeat CPU 0 instructions: 145000001 cycles: 270979232 heartbeat IPC: 0.493646 cumulative IPC: 0.380639 (Simulation time: 1 hr 20 min 21 sec) 
Heartbeat CPU 0 instructions: 146000000 cycles: 272150913 heartbeat IPC: 0.853474 cumulative IPC: 0.382849 (Simulation time: 1 hr 20 min 36 sec) 
Heartbeat CPU 0 instructions: 147000000 cycles: 275197573 heartbeat IPC: 0.328228 cumulative IPC: 0.382193 (Simulation time: 1 hr 20 min 56 sec) 
Heartbeat CPU 0 instructions: 148000000 cycles: 278001155 heartbeat IPC: 0.356687 cumulative IPC: 0.381914 (Simulation time: 1 hr 21 min 21 sec) 
Heartbeat CPU 0 instructions: 149000002 cycles: 281032047 heartbeat IPC: 0.329937 cumulative IPC: 0.381307 (Simulation time: 1 hr 21 min 44 sec) 
Heartbeat CPU 0 instructions: 150000000 cycles: 282459840 heartbeat IPC: 0.70038 cumulative IPC: 0.383052 (Simulation time: 1 hr 22 min 3 sec) 
Finished CPU 0 instructions: 100000001 cycles: 261060820 cummulative IPC: 0.383052 (Simulation time: 1 hr 22 min 3 sec) 

ChampSim completed all CPUs

Region of Interest Statistics

CPU 0 cummulative IPC: 0.383052 instructions: 100000001 cycles: 261060820
LLC TOTAL     ACCESS:    8583887  HIT:    4825035  MISS:    3758852
LLC LOAD      ACCESS:    2178806  HIT:    1073644  MISS:    1105162
LLC RFO       ACCESS:     808503  HIT:     257340  MISS:     551163
LLC PREFETCH  ACCESS:    3497689  HIT:    1648876  MISS:    1848813
LLC WRITEBACK ACCESS:    2098889  HIT:    1845175  MISS:     253714
OPTgen accesses: 65776
OPTgen hits: 44445
OPTgen hit rate: 67.5702


