
*** ChampSim Multicore Out-of-Order Simulator ***

Warmup Instructions: 50000000
Simulation Instructions: 100000000
Configuration: 2
Number of CPUs: 1
LLC sets: 2048
LLC ways: 16
Off-chip DRAM Channels: 1 Width: 64-bit Data Rate: 1600 MT/s

CPU 0 runs /datasets/cs240c-wi22-a00-public/data/Assignment2-gz/soplex_205B.trace.gz
CPU 0 L1D next line prefetcher
CPU 0 L2C IP-based stride prefetcher
Initialize Hawkeye state
Heartbeat CPU 0 instructions: 1000000 cycles: 395620 heartbeat IPC: 2.52768 cumulative IPC: 2.52768 (Simulation time: 0 hr 0 min 30 sec) 
Heartbeat CPU 0 instructions: 2000002 cycles: 928717 heartbeat IPC: 1.87583 cumulative IPC: 2.15351 (Simulation time: 0 hr 1 min 3 sec) 
Heartbeat CPU 0 instructions: 3000000 cycles: 1400487 heartbeat IPC: 2.11967 cumulative IPC: 2.14211 (Simulation time: 0 hr 1 min 48 sec) 
Heartbeat CPU 0 instructions: 4000000 cycles: 1761657 heartbeat IPC: 2.76878 cumulative IPC: 2.27059 (Simulation time: 0 hr 2 min 20 sec) 
Heartbeat CPU 0 instructions: 5000003 cycles: 2205047 heartbeat IPC: 2.25536 cumulative IPC: 2.26753 (Simulation time: 0 hr 2 min 56 sec) 
Heartbeat CPU 0 instructions: 6000003 cycles: 2624660 heartbeat IPC: 2.38315 cumulative IPC: 2.28601 (Simulation time: 0 hr 3 min 33 sec) 
Heartbeat CPU 0 instructions: 7000000 cycles: 3009094 heartbeat IPC: 2.60122 cumulative IPC: 2.32628 (Simulation time: 0 hr 4 min 3 sec) 
Heartbeat CPU 0 instructions: 8000000 cycles: 3401644 heartbeat IPC: 2.54745 cumulative IPC: 2.3518 (Simulation time: 0 hr 4 min 35 sec) 
Heartbeat CPU 0 instructions: 9000003 cycles: 3922508 heartbeat IPC: 1.91989 cumulative IPC: 2.29445 (Simulation time: 0 hr 5 min 7 sec) 
Heartbeat CPU 0 instructions: 10000000 cycles: 4407867 heartbeat IPC: 2.06032 cumulative IPC: 2.26867 (Simulation time: 0 hr 5 min 48 sec) 
Heartbeat CPU 0 instructions: 11000001 cycles: 4777781 heartbeat IPC: 2.70333 cumulative IPC: 2.30232 (Simulation time: 0 hr 6 min 20 sec) 
Heartbeat CPU 0 instructions: 12000000 cycles: 5214699 heartbeat IPC: 2.28876 cumulative IPC: 2.30119 (Simulation time: 0 hr 6 min 55 sec) 
Heartbeat CPU 0 instructions: 13000001 cycles: 5637157 heartbeat IPC: 2.3671 cumulative IPC: 2.30613 (Simulation time: 0 hr 7 min 31 sec) 
Heartbeat CPU 0 instructions: 14000003 cycles: 6021477 heartbeat IPC: 2.602 cumulative IPC: 2.32501 (Simulation time: 0 hr 8 min 1 sec) 
Heartbeat CPU 0 instructions: 15000000 cycles: 6432299 heartbeat IPC: 2.43414 cumulative IPC: 2.33198 (Simulation time: 0 hr 8 min 28 sec) 
Heartbeat CPU 0 instructions: 16000000 cycles: 6963031 heartbeat IPC: 1.88419 cumulative IPC: 2.29785 (Simulation time: 0 hr 9 min 4 sec) 
Heartbeat CPU 0 instructions: 17000001 cycles: 7519695 heartbeat IPC: 1.79642 cumulative IPC: 2.26073 (Simulation time: 0 hr 9 min 50 sec) 
Heartbeat CPU 0 instructions: 18000000 cycles: 8031802 heartbeat IPC: 1.95271 cumulative IPC: 2.24109 (Simulation time: 0 hr 10 min 26 sec) 
Heartbeat CPU 0 instructions: 19000002 cycles: 8707022 heartbeat IPC: 1.481 cumulative IPC: 2.18215 (Simulation time: 0 hr 11 min 11 sec) 
Heartbeat CPU 0 instructions: 20000000 cycles: 9463111 heartbeat IPC: 1.32259 cumulative IPC: 2.11347 (Simulation time: 0 hr 11 min 47 sec) 
Heartbeat CPU 0 instructions: 21000001 cycles: 9909426 heartbeat IPC: 2.24057 cumulative IPC: 2.11919 (Simulation time: 0 hr 12 min 23 sec) 
Heartbeat CPU 0 instructions: 22000000 cycles: 10354837 heartbeat IPC: 2.24512 cumulative IPC: 2.12461 (Simulation time: 0 hr 13 min 4 sec) 
Heartbeat CPU 0 instructions: 23000000 cycles: 10796524 heartbeat IPC: 2.26405 cumulative IPC: 2.13032 (Simulation time: 0 hr 13 min 46 sec) 
Heartbeat CPU 0 instructions: 24000000 cycles: 11297855 heartbeat IPC: 1.99469 cumulative IPC: 2.1243 (Simulation time: 0 hr 14 min 25 sec) 
Heartbeat CPU 0 instructions: 25000002 cycles: 11838885 heartbeat IPC: 1.84833 cumulative IPC: 2.11169 (Simulation time: 0 hr 15 min 6 sec) 
Heartbeat CPU 0 instructions: 26000002 cycles: 12478450 heartbeat IPC: 1.56356 cumulative IPC: 2.08359 (Simulation time: 0 hr 15 min 53 sec) 
Heartbeat CPU 0 instructions: 27000003 cycles: 13065332 heartbeat IPC: 1.70392 cumulative IPC: 2.06654 (Simulation time: 0 hr 16 min 31 sec) 
Heartbeat CPU 0 instructions: 28000000 cycles: 13835361 heartbeat IPC: 1.29865 cumulative IPC: 2.0238 (Simulation time: 0 hr 17 min 22 sec) 
Heartbeat CPU 0 instructions: 29000002 cycles: 14417261 heartbeat IPC: 1.71851 cumulative IPC: 2.01148 (Simulation time: 0 hr 17 min 55 sec) 
Heartbeat CPU 0 instructions: 30000003 cycles: 14837591 heartbeat IPC: 2.37909 cumulative IPC: 2.02189 (Simulation time: 0 hr 18 min 28 sec) 
Heartbeat CPU 0 instructions: 31000003 cycles: 15304186 heartbeat IPC: 2.14319 cumulative IPC: 2.02559 (Simulation time: 0 hr 19 min 0 sec) 
Heartbeat CPU 0 instructions: 32000000 cycles: 15811531 heartbeat IPC: 1.97104 cumulative IPC: 2.02384 (Simulation time: 0 hr 19 min 42 sec) 
Heartbeat CPU 0 instructions: 33000000 cycles: 16344883 heartbeat IPC: 1.87493 cumulative IPC: 2.01898 (Simulation time: 0 hr 20 min 23 sec) 
Heartbeat CPU 0 instructions: 34000003 cycles: 16844254 heartbeat IPC: 2.00253 cumulative IPC: 2.01849 (Simulation time: 0 hr 20 min 55 sec) 
Heartbeat CPU 0 instructions: 35000003 cycles: 17212143 heartbeat IPC: 2.71821 cumulative IPC: 2.03345 (Simulation time: 0 hr 21 min 26 sec) 
Heartbeat CPU 0 instructions: 36000000 cycles: 17653647 heartbeat IPC: 2.26498 cumulative IPC: 2.03924 (Simulation time: 0 hr 21 min 59 sec) 
Heartbeat CPU 0 instructions: 37000000 cycles: 18074814 heartbeat IPC: 2.37436 cumulative IPC: 2.04705 (Simulation time: 0 hr 22 min 34 sec) 
Heartbeat CPU 0 instructions: 38000003 cycles: 18458845 heartbeat IPC: 2.60396 cumulative IPC: 2.05863 (Simulation time: 0 hr 23 min 2 sec) 
Heartbeat CPU 0 instructions: 39000003 cycles: 18849608 heartbeat IPC: 2.5591 cumulative IPC: 2.06901 (Simulation time: 0 hr 23 min 32 sec) 
Heartbeat CPU 0 instructions: 40000000 cycles: 19372464 heartbeat IPC: 1.91257 cumulative IPC: 2.06479 (Simulation time: 0 hr 24 min 7 sec) 
Heartbeat CPU 0 instructions: 41000000 cycles: 19768067 heartbeat IPC: 2.52779 cumulative IPC: 2.07405 (Simulation time: 0 hr 24 min 41 sec) 
Heartbeat CPU 0 instructions: 42000001 cycles: 20186456 heartbeat IPC: 2.39012 cumulative IPC: 2.0806 (Simulation time: 0 hr 25 min 13 sec) 
Heartbeat CPU 0 instructions: 43000001 cycles: 20611073 heartbeat IPC: 2.35506 cumulative IPC: 2.08626 (Simulation time: 0 hr 25 min 50 sec) 
Heartbeat CPU 0 instructions: 44000000 cycles: 21010256 heartbeat IPC: 2.50511 cumulative IPC: 2.09422 (Simulation time: 0 hr 26 min 21 sec) 
Heartbeat CPU 0 instructions: 45000001 cycles: 21394956 heartbeat IPC: 2.59943 cumulative IPC: 2.1033 (Simulation time: 0 hr 26 min 49 sec) 
Heartbeat CPU 0 instructions: 46000000 cycles: 21880631 heartbeat IPC: 2.05899 cumulative IPC: 2.10232 (Simulation time: 0 hr 27 min 21 sec) 
Heartbeat CPU 0 instructions: 47000000 cycles: 22336092 heartbeat IPC: 2.19558 cumulative IPC: 2.10422 (Simulation time: 0 hr 27 min 57 sec) 
Heartbeat CPU 0 instructions: 48000000 cycles: 22777811 heartbeat IPC: 2.26388 cumulative IPC: 2.10731 (Simulation time: 0 hr 28 min 30 sec) 
Heartbeat CPU 0 instructions: 49000001 cycles: 23193397 heartbeat IPC: 2.40624 cumulative IPC: 2.11267 (Simulation time: 0 hr 29 min 1 sec) 
Heartbeat CPU 0 instructions: 50000003 cycles: 23614637 heartbeat IPC: 2.37395 cumulative IPC: 2.11733 (Simulation time: 0 hr 29 min 36 sec) 

Warmup complete CPU 0 instructions: 50000003 cycles: 23614637 (Simulation time: 0 hr 29 min 36 sec) 

Heartbeat CPU 0 instructions: 51000003 cycles: 25865238 heartbeat IPC: 0.444326 cumulative IPC: 0.444326 (Simulation time: 0 hr 30 min 15 sec) 
Heartbeat CPU 0 instructions: 52000000 cycles: 26980629 heartbeat IPC: 0.896544 cumulative IPC: 0.594178 (Simulation time: 0 hr 30 min 41 sec) 
Heartbeat CPU 0 instructions: 53000003 cycles: 29803807 heartbeat IPC: 0.354212 cumulative IPC: 0.484718 (Simulation time: 0 hr 31 min 24 sec) 
Heartbeat CPU 0 instructions: 54000001 cycles: 33166010 heartbeat IPC: 0.297423 cumulative IPC: 0.418788 (Simulation time: 0 hr 32 min 13 sec) 
Heartbeat CPU 0 instructions: 55000001 cycles: 36331838 heartbeat IPC: 0.315873 cumulative IPC: 0.393168 (Simulation time: 0 hr 32 min 57 sec) 
Heartbeat CPU 0 instructions: 56000000 cycles: 38114260 heartbeat IPC: 0.561034 cumulative IPC: 0.413804 (Simulation time: 0 hr 33 min 34 sec) 
Heartbeat CPU 0 instructions: 57000000 cycles: 41404589 heartbeat IPC: 0.303921 cumulative IPC: 0.39348 (Simulation time: 0 hr 34 min 22 sec) 
Heartbeat CPU 0 instructions: 58000000 cycles: 43534341 heartbeat IPC: 0.469538 cumulative IPC: 0.401612 (Simulation time: 0 hr 34 min 56 sec) 
Heartbeat CPU 0 instructions: 59000001 cycles: 44636634 heartbeat IPC: 0.907201 cumulative IPC: 0.428123 (Simulation time: 0 hr 35 min 27 sec) 
Heartbeat CPU 0 instructions: 60000000 cycles: 47493422 heartbeat IPC: 0.350043 cumulative IPC: 0.418782 (Simulation time: 0 hr 36 min 7 sec) 
Heartbeat CPU 0 instructions: 61000003 cycles: 50861486 heartbeat IPC: 0.296907 cumulative IPC: 0.403716 (Simulation time: 0 hr 36 min 53 sec) 
Heartbeat CPU 0 instructions: 62000002 cycles: 54248212 heartbeat IPC: 0.29527 cumulative IPC: 0.391727 (Simulation time: 0 hr 37 min 37 sec) 
Heartbeat CPU 0 instructions: 63000001 cycles: 55805924 heartbeat IPC: 0.641967 cumulative IPC: 0.403836 (Simulation time: 0 hr 38 min 17 sec) 
Heartbeat CPU 0 instructions: 64000000 cycles: 59481391 heartbeat IPC: 0.272074 cumulative IPC: 0.390334 (Simulation time: 0 hr 39 min 11 sec) 
Heartbeat CPU 0 instructions: 65000001 cycles: 61252412 heartbeat IPC: 0.564647 cumulative IPC: 0.398536 (Simulation time: 0 hr 39 min 42 sec) 
Heartbeat CPU 0 instructions: 66000000 cycles: 62346996 heartbeat IPC: 0.913588 cumulative IPC: 0.413091 (Simulation time: 0 hr 40 min 7 sec) 
Heartbeat CPU 0 instructions: 67000003 cycles: 65332100 heartbeat IPC: 0.334998 cumulative IPC: 0.407503 (Simulation time: 0 hr 40 min 47 sec) 
Heartbeat CPU 0 instructions: 68000000 cycles: 68749198 heartbeat IPC: 0.292645 cumulative IPC: 0.398807 (Simulation time: 0 hr 41 min 33 sec) 
Heartbeat CPU 0 instructions: 69000001 cycles: 71618575 heartbeat IPC: 0.348508 cumulative IPC: 0.395801 (Simulation time: 0 hr 42 min 19 sec) 
Heartbeat CPU 0 instructions: 70000000 cycles: 73412035 heartbeat IPC: 0.557581 cumulative IPC: 0.401627 (Simulation time: 0 hr 42 min 56 sec) 
Heartbeat CPU 0 instructions: 71000001 cycles: 76734408 heartbeat IPC: 0.30099 cumulative IPC: 0.395333 (Simulation time: 0 hr 43 min 44 sec) 
Heartbeat CPU 0 instructions: 72000000 cycles: 78851905 heartbeat IPC: 0.472255 cumulative IPC: 0.398282 (Simulation time: 0 hr 44 min 14 sec) 
Heartbeat CPU 0 instructions: 73000000 cycles: 79955899 heartbeat IPC: 0.905802 cumulative IPC: 0.408227 (Simulation time: 0 hr 44 min 41 sec) 
Heartbeat CPU 0 instructions: 74000001 cycles: 82811160 heartbeat IPC: 0.350231 cumulative IPC: 0.405429 (Simulation time: 0 hr 45 min 20 sec) 
Heartbeat CPU 0 instructions: 75000003 cycles: 86161761 heartbeat IPC: 0.298455 cumulative IPC: 0.399699 (Simulation time: 0 hr 46 min 4 sec) 
Heartbeat CPU 0 instructions: 76000000 cycles: 89548670 heartbeat IPC: 0.295254 cumulative IPC: 0.394333 (Simulation time: 0 hr 46 min 49 sec) 
Heartbeat CPU 0 instructions: 77000000 cycles: 91071728 heartbeat IPC: 0.656574 cumulative IPC: 0.400254 (Simulation time: 0 hr 47 min 22 sec) 
Heartbeat CPU 0 instructions: 78000000 cycles: 94842514 heartbeat IPC: 0.265197 cumulative IPC: 0.393104 (Simulation time: 0 hr 48 min 11 sec) 
Heartbeat CPU 0 instructions: 79000002 cycles: 96531532 heartbeat IPC: 0.592061 cumulative IPC: 0.397713 (Simulation time: 0 hr 48 min 40 sec) 
Heartbeat CPU 0 instructions: 80000000 cycles: 97620152 heartbeat IPC: 0.918592 cumulative IPC: 0.405375 (Simulation time: 0 hr 49 min 5 sec) 
Heartbeat CPU 0 instructions: 81000000 cycles: 100602603 heartbeat IPC: 0.335295 cumulative IPC: 0.40266 (Simulation time: 0 hr 49 min 43 sec) 
Heartbeat CPU 0 instructions: 82000000 cycles: 104019824 heartbeat IPC: 0.292635 cumulative IPC: 0.397984 (Simulation time: 0 hr 50 min 29 sec) 
Heartbeat CPU 0 instructions: 83000000 cycles: 107360817 heartbeat IPC: 0.299312 cumulative IPC: 0.394048 (Simulation time: 0 hr 51 min 15 sec) 
Heartbeat CPU 0 instructions: 84000000 cycles: 108988229 heartbeat IPC: 0.614473 cumulative IPC: 0.39825 (Simulation time: 0 hr 51 min 55 sec) 
Heartbeat CPU 0 instructions: 85000000 cycles: 112797451 heartbeat IPC: 0.262521 cumulative IPC: 0.392452 (Simulation time: 0 hr 52 min 47 sec) 
Heartbeat CPU 0 instructions: 86000002 cycles: 114135434 heartbeat IPC: 0.747395 cumulative IPC: 0.397699 (Simulation time: 0 hr 53 min 13 sec) 
Heartbeat CPU 0 instructions: 87000002 cycles: 115221334 heartbeat IPC: 0.920895 cumulative IPC: 0.403901 (Simulation time: 0 hr 53 min 44 sec) 
Heartbeat CPU 0 instructions: 88000000 cycles: 118238121 heartbeat IPC: 0.331478 cumulative IPC: 0.401592 (Simulation time: 0 hr 54 min 24 sec) 
Heartbeat CPU 0 instructions: 89000003 cycles: 122012383 heartbeat IPC: 0.264953 cumulative IPC: 0.396351 (Simulation time: 0 hr 55 min 14 sec) 
Heartbeat CPU 0 instructions: 90000001 cycles: 125172613 heartbeat IPC: 0.316432 cumulative IPC: 0.393864 (Simulation time: 0 hr 55 min 53 sec) 
Heartbeat CPU 0 instructions: 91000003 cycles: 126975494 heartbeat IPC: 0.554669 cumulative IPC: 0.396669 (Simulation time: 0 hr 56 min 35 sec) 
Heartbeat CPU 0 instructions: 92000000 cycles: 130600518 heartbeat IPC: 0.275859 cumulative IPC: 0.392575 (Simulation time: 0 hr 57 min 18 sec) 
Heartbeat CPU 0 instructions: 93000000 cycles: 131786615 heartbeat IPC: 0.843101 cumulative IPC: 0.397515 (Simulation time: 0 hr 57 min 44 sec) 
Heartbeat CPU 0 instructions: 94000000 cycles: 133060156 heartbeat IPC: 0.785212 cumulative IPC: 0.402026 (Simulation time: 0 hr 58 min 11 sec) 
Heartbeat CPU 0 instructions: 95000002 cycles: 136168325 heartbeat IPC: 0.321733 cumulative IPC: 0.399809 (Simulation time: 0 hr 58 min 50 sec) 
Heartbeat CPU 0 instructions: 96000000 cycles: 139260523 heartbeat IPC: 0.323394 cumulative IPC: 0.397766 (Simulation time: 0 hr 59 min 38 sec) 
Heartbeat CPU 0 instructions: 97000003 cycles: 142045946 heartbeat IPC: 0.359013 cumulative IPC: 0.396855 (Simulation time: 1 hr 0 min 19 sec) 
Heartbeat CPU 0 instructions: 98000003 cycles: 144285733 heartbeat IPC: 0.446471 cumulative IPC: 0.397775 (Simulation time: 1 hr 1 min 5 sec) 
Heartbeat CPU 0 instructions: 99000000 cycles: 147522365 heartbeat IPC: 0.308962 cumulative IPC: 0.395456 (Simulation time: 1 hr 1 min 48 sec) 
Heartbeat CPU 0 instructions: 100000000 cycles: 148690529 heartbeat IPC: 0.856044 cumulative IPC: 0.399757 (Simulation time: 1 hr 2 min 14 sec) 
Heartbeat CPU 0 instructions: 101000003 cycles: 150528913 heartbeat IPC: 0.543958 cumulative IPC: 0.401846 (Simulation time: 1 hr 2 min 47 sec) 
Heartbeat CPU 0 instructions: 102000002 cycles: 153805807 heartbeat IPC: 0.305167 cumulative IPC: 0.399413 (Simulation time: 1 hr 3 min 33 sec) 
Heartbeat CPU 0 instructions: 103000000 cycles: 155924802 heartbeat IPC: 0.471921 cumulative IPC: 0.400574 (Simulation time: 1 hr 4 min 16 sec) 
Heartbeat CPU 0 instructions: 104000000 cycles: 164699214 heartbeat IPC: 0.113968 cumulative IPC: 0.382749 (Simulation time: 1 hr 5 min 16 sec) 
Heartbeat CPU 0 instructions: 105000000 cycles: 166731726 heartbeat IPC: 0.492002 cumulative IPC: 0.384301 (Simulation time: 1 hr 6 min 6 sec) 
Heartbeat CPU 0 instructions: 106000002 cycles: 170859274 heartbeat IPC: 0.242275 cumulative IPC: 0.380319 (Simulation time: 1 hr 7 min 2 sec) 
Heartbeat CPU 0 instructions: 107000003 cycles: 175173360 heartbeat IPC: 0.231799 cumulative IPC: 0.376092 (Simulation time: 1 hr 7 min 51 sec) 
Heartbeat CPU 0 instructions: 108000000 cycles: 178455653 heartbeat IPC: 0.304664 cumulative IPC: 0.374578 (Simulation time: 1 hr 8 min 43 sec) 
Heartbeat CPU 0 instructions: 109000000 cycles: 181897825 heartbeat IPC: 0.290514 cumulative IPC: 0.37275 (Simulation time: 1 hr 9 min 26 sec) 
Heartbeat CPU 0 instructions: 110000003 cycles: 185643455 heartbeat IPC: 0.266979 cumulative IPC: 0.370304 (Simulation time: 1 hr 10 min 3 sec) 
Heartbeat CPU 0 instructions: 111000002 cycles: 189219664 heartbeat IPC: 0.279625 cumulative IPC: 0.368346 (Simulation time: 1 hr 10 min 47 sec) 
Heartbeat CPU 0 instructions: 112000000 cycles: 191850805 heartbeat IPC: 0.380062 cumulative IPC: 0.36853 (Simulation time: 1 hr 11 min 19 sec) 
Heartbeat CPU 0 instructions: 113000001 cycles: 195192796 heartbeat IPC: 0.299223 cumulative IPC: 0.36718 (Simulation time: 1 hr 11 min 55 sec) 
Heartbeat CPU 0 instructions: 114000000 cycles: 197154856 heartbeat IPC: 0.509668 cumulative IPC: 0.368791 (Simulation time: 1 hr 12 min 24 sec) 
Heartbeat CPU 0 instructions: 115000002 cycles: 198443605 heartbeat IPC: 0.775948 cumulative IPC: 0.371792 (Simulation time: 1 hr 12 min 51 sec) 
Heartbeat CPU 0 instructions: 116000000 cycles: 199808510 heartbeat IPC: 0.73265 cumulative IPC: 0.374587 (Simulation time: 1 hr 13 min 17 sec) 
Heartbeat CPU 0 instructions: 117000001 cycles: 202446661 heartbeat IPC: 0.379054 cumulative IPC: 0.374653 (Simulation time: 1 hr 13 min 50 sec) 
Heartbeat CPU 0 instructions: 118000002 cycles: 205351768 heartbeat IPC: 0.344222 cumulative IPC: 0.374167 (Simulation time: 1 hr 14 min 25 sec) 
Heartbeat CPU 0 instructions: 119000001 cycles: 207299645 heartbeat IPC: 0.513379 cumulative IPC: 0.375643 (Simulation time: 1 hr 14 min 56 sec) 
Heartbeat CPU 0 instructions: 120000000 cycles: 209985876 heartbeat IPC: 0.372268 cumulative IPC: 0.375594 (Simulation time: 1 hr 15 min 23 sec) 
Heartbeat CPU 0 instructions: 121000000 cycles: 211705282 heartbeat IPC: 0.581596 cumulative IPC: 0.377478 (Simulation time: 1 hr 15 min 53 sec) 
Heartbeat CPU 0 instructions: 122000000 cycles: 215606982 heartbeat IPC: 0.256299 cumulative IPC: 0.375015 (Simulation time: 1 hr 16 min 34 sec) 
Heartbeat CPU 0 instructions: 123000001 cycles: 216825161 heartbeat IPC: 0.820898 cumulative IPC: 0.377826 (Simulation time: 1 hr 16 min 49 sec) 
Heartbeat CPU 0 instructions: 124000000 cycles: 217978403 heartbeat IPC: 0.86712 cumulative IPC: 0.380729 (Simulation time: 1 hr 17 min 8 sec) 
Heartbeat CPU 0 instructions: 125000001 cycles: 220983124 heartbeat IPC: 0.33281 cumulative IPC: 0.38 (Simulation time: 1 hr 17 min 36 sec) 
Heartbeat CPU 0 instructions: 126000000 cycles: 225087244 heartbeat IPC: 0.243657 cumulative IPC: 0.377222 (Simulation time: 1 hr 18 min 9 sec) 
Heartbeat CPU 0 instructions: 127000003 cycles: 227535261 heartbeat IPC: 0.408495 cumulative IPC: 0.377598 (Simulation time: 1 hr 18 min 32 sec) 
Heartbeat CPU 0 instructions: 128000000 cycles: 230345982 heartbeat IPC: 0.35578 cumulative IPC: 0.377301 (Simulation time: 1 hr 18 min 59 sec) 
Heartbeat CPU 0 instructions: 129000000 cycles: 233010015 heartbeat IPC: 0.375371 cumulative IPC: 0.377277 (Simulation time: 1 hr 19 min 22 sec) 
Heartbeat CPU 0 instructions: 130000003 cycles: 234148862 heartbeat IPC: 0.878084 cumulative IPC: 0.379986 (Simulation time: 1 hr 19 min 38 sec) 
Heartbeat CPU 0 instructions: 131000001 cycles: 236663034 heartbeat IPC: 0.397744 cumulative IPC: 0.380195 (Simulation time: 1 hr 19 min 59 sec) 
Heartbeat CPU 0 instructions: 132000000 cycles: 239864459 heartbeat IPC: 0.312361 cumulative IPC: 0.379191 (Simulation time: 1 hr 20 min 26 sec) 
Heartbeat CPU 0 instructions: 133000000 cycles: 242723440 heartbeat IPC: 0.349775 cumulative IPC: 0.378807 (Simulation time: 1 hr 20 min 50 sec) 
Heartbeat CPU 0 instructions: 134000002 cycles: 244281854 heartbeat IPC: 0.641679 cumulative IPC: 0.380664 (Simulation time: 1 hr 21 min 11 sec) 
Heartbeat CPU 0 instructions: 135000002 cycles: 248072719 heartbeat IPC: 0.263792 cumulative IPC: 0.37869 (Simulation time: 1 hr 21 min 39 sec) 
Heartbeat CPU 0 instructions: 136000000 cycles: 249825766 heartbeat IPC: 0.570434 cumulative IPC: 0.380176 (Simulation time: 1 hr 21 min 54 sec) 
Heartbeat CPU 0 instructions: 137000000 cycles: 250922740 heartbeat IPC: 0.911599 cumulative IPC: 0.38274 (Simulation time: 1 hr 22 min 8 sec) 
Heartbeat CPU 0 instructions: 138000003 cycles: 253910452 heartbeat IPC: 0.334705 cumulative IPC: 0.382117 (Simulation time: 1 hr 22 min 28 sec) 
Heartbeat CPU 0 instructions: 139000000 cycles: 257114980 heartbeat IPC: 0.312057 cumulative IPC: 0.381156 (Simulation time: 1 hr 22 min 51 sec) 
Heartbeat CPU 0 instructions: 140000000 cycles: 259243060 heartbeat IPC: 0.469907 cumulative IPC: 0.381957 (Simulation time: 1 hr 23 min 7 sec) 
Heartbeat CPU 0 instructions: 141000002 cycles: 260944788 heartbeat IPC: 0.587639 cumulative IPC: 0.383432 (Simulation time: 1 hr 23 min 25 sec) 
Heartbeat CPU 0 instructions: 142000003 cycles: 264502834 heartbeat IPC: 0.281053 cumulative IPC: 0.38192 (Simulation time: 1 hr 23 min 45 sec) 
Heartbeat CPU 0 instructions: 143000003 cycles: 266492949 heartbeat IPC: 0.502484 cumulative IPC: 0.382908 (Simulation time: 1 hr 23 min 59 sec) 
Heartbeat CPU 0 instructions: 144000000 cycles: 267599036 heartbeat IPC: 0.904085 cumulative IPC: 0.385271 (Simulation time: 1 hr 24 min 10 sec) 
Heartbeat CPU 0 instructions: 145000000 cycles: 270530637 heartbeat IPC: 0.341111 cumulative IPC: 0.384746 (Simulation time: 1 hr 24 min 26 sec) 
Heartbeat CPU 0 instructions: 146000003 cycles: 273773308 heartbeat IPC: 0.308389 cumulative IPC: 0.383756 (Simulation time: 1 hr 24 min 46 sec) 
Heartbeat CPU 0 instructions: 147000000 cycles: 275802791 heartbeat IPC: 0.492735 cumulative IPC: 0.384633 (Simulation time: 1 hr 25 min 1 sec) 
Heartbeat CPU 0 instructions: 148000000 cycles: 277313513 heartbeat IPC: 0.661935 cumulative IPC: 0.386285 (Simulation time: 1 hr 25 min 17 sec) 
Heartbeat CPU 0 instructions: 149000001 cycles: 281203834 heartbeat IPC: 0.257048 cumulative IPC: 0.384333 (Simulation time: 1 hr 25 min 36 sec) 
Heartbeat CPU 0 instructions: 150000002 cycles: 282913882 heartbeat IPC: 0.58478 cumulative IPC: 0.385655 (Simulation time: 1 hr 25 min 46 sec) 
Finished CPU 0 instructions: 100000002 cycles: 259299247 cummulative IPC: 0.385655 (Simulation time: 1 hr 25 min 46 sec) 

ChampSim completed all CPUs

Region of Interest Statistics

CPU 0 cummulative IPC: 0.385655 instructions: 100000002 cycles: 259299247
LLC TOTAL     ACCESS:    8437837  HIT:    4577482  MISS:    3860355
LLC LOAD      ACCESS:    2158996  HIT:    1011990  MISS:    1147006
LLC RFO       ACCESS:     775970  HIT:     257117  MISS:     518853
LLC PREFETCH  ACCESS:    3417012  HIT:    1612166  MISS:    1804846
LLC WRITEBACK ACCESS:    2085859  HIT:    1696209  MISS:     389650
OPTgen accesses: 69946
OPTgen hits: 45419
OPTgen hit rate: 64.9344


