
*** ChampSim Multicore Out-of-Order Simulator ***

Warmup Instructions: 50000000
Simulation Instructions: 100000000
Configuration: 2
Number of CPUs: 1
LLC sets: 2048
LLC ways: 16
Off-chip DRAM Channels: 1 Width: 64-bit Data Rate: 1600 MT/s

CPU 0 runs /datasets/cs240c-wi22-a00-public/data/Assignment2-gz/mcf_46B.trace.gz
CPU 0 L1D next line prefetcher
CPU 0 L2C IP-based stride prefetcher
Initialize Hawkeye state
Heartbeat CPU 0 instructions: 1000002 cycles: 492247 heartbeat IPC: 2.0315 cumulative IPC: 2.0315 (Simulation time: 0 hr 0 min 43 sec) 
Heartbeat CPU 0 instructions: 2000002 cycles: 987649 heartbeat IPC: 2.01856 cumulative IPC: 2.02501 (Simulation time: 0 hr 1 min 20 sec) 
Heartbeat CPU 0 instructions: 3000003 cycles: 1514750 heartbeat IPC: 1.89717 cumulative IPC: 1.98053 (Simulation time: 0 hr 1 min 57 sec) 
Heartbeat CPU 0 instructions: 4000000 cycles: 2032813 heartbeat IPC: 1.93026 cumulative IPC: 1.96772 (Simulation time: 0 hr 2 min 38 sec) 
Heartbeat CPU 0 instructions: 5000000 cycles: 2526595 heartbeat IPC: 2.02519 cumulative IPC: 1.97895 (Simulation time: 0 hr 3 min 14 sec) 
Heartbeat CPU 0 instructions: 6000002 cycles: 3029713 heartbeat IPC: 1.98761 cumulative IPC: 1.98039 (Simulation time: 0 hr 3 min 48 sec) 
Heartbeat CPU 0 instructions: 7000001 cycles: 3570950 heartbeat IPC: 1.84762 cumulative IPC: 1.96026 (Simulation time: 0 hr 4 min 25 sec) 
Heartbeat CPU 0 instructions: 8000000 cycles: 4061577 heartbeat IPC: 2.03821 cumulative IPC: 1.96968 (Simulation time: 0 hr 5 min 2 sec) 
Heartbeat CPU 0 instructions: 9000001 cycles: 4545284 heartbeat IPC: 2.06737 cumulative IPC: 1.98007 (Simulation time: 0 hr 5 min 38 sec) 
Heartbeat CPU 0 instructions: 10000001 cycles: 5080695 heartbeat IPC: 1.86772 cumulative IPC: 1.96823 (Simulation time: 0 hr 6 min 16 sec) 
Heartbeat CPU 0 instructions: 11000002 cycles: 5627265 heartbeat IPC: 1.82959 cumulative IPC: 1.95477 (Simulation time: 0 hr 6 min 53 sec) 
Heartbeat CPU 0 instructions: 12000000 cycles: 6106061 heartbeat IPC: 2.08857 cumulative IPC: 1.96526 (Simulation time: 0 hr 7 min 29 sec) 
Heartbeat CPU 0 instructions: 13000000 cycles: 6601550 heartbeat IPC: 2.01821 cumulative IPC: 1.96923 (Simulation time: 0 hr 8 min 4 sec) 
Heartbeat CPU 0 instructions: 14000003 cycles: 7148686 heartbeat IPC: 1.8277 cumulative IPC: 1.9584 (Simulation time: 0 hr 8 min 41 sec) 
Heartbeat CPU 0 instructions: 15000000 cycles: 7625965 heartbeat IPC: 2.0952 cumulative IPC: 1.96696 (Simulation time: 0 hr 9 min 14 sec) 
Heartbeat CPU 0 instructions: 16000000 cycles: 8103224 heartbeat IPC: 2.0953 cumulative IPC: 1.97452 (Simulation time: 0 hr 9 min 51 sec) 
Heartbeat CPU 0 instructions: 17000002 cycles: 8647575 heartbeat IPC: 1.83705 cumulative IPC: 1.96587 (Simulation time: 0 hr 10 min 28 sec) 
Heartbeat CPU 0 instructions: 18000000 cycles: 9134930 heartbeat IPC: 2.05189 cumulative IPC: 1.97046 (Simulation time: 0 hr 11 min 7 sec) 
Heartbeat CPU 0 instructions: 19000002 cycles: 9623456 heartbeat IPC: 2.04698 cumulative IPC: 1.97434 (Simulation time: 0 hr 11 min 42 sec) 
Heartbeat CPU 0 instructions: 20000000 cycles: 10199712 heartbeat IPC: 1.73534 cumulative IPC: 1.96084 (Simulation time: 0 hr 12 min 20 sec) 
Heartbeat CPU 0 instructions: 21000001 cycles: 10744012 heartbeat IPC: 1.83722 cumulative IPC: 1.95458 (Simulation time: 0 hr 12 min 57 sec) 
Heartbeat CPU 0 instructions: 22000002 cycles: 11222702 heartbeat IPC: 2.08904 cumulative IPC: 1.96031 (Simulation time: 0 hr 13 min 33 sec) 
Heartbeat CPU 0 instructions: 23000000 cycles: 11702732 heartbeat IPC: 2.0832 cumulative IPC: 1.96535 (Simulation time: 0 hr 14 min 11 sec) 
Heartbeat CPU 0 instructions: 24000000 cycles: 12233717 heartbeat IPC: 1.88329 cumulative IPC: 1.96179 (Simulation time: 0 hr 14 min 43 sec) 
Heartbeat CPU 0 instructions: 25000002 cycles: 12733053 heartbeat IPC: 2.00266 cumulative IPC: 1.96339 (Simulation time: 0 hr 15 min 17 sec) 
Heartbeat CPU 0 instructions: 26000000 cycles: 13214033 heartbeat IPC: 2.07908 cumulative IPC: 1.96761 (Simulation time: 0 hr 15 min 52 sec) 
Heartbeat CPU 0 instructions: 27000002 cycles: 13726827 heartbeat IPC: 1.9501 cumulative IPC: 1.96695 (Simulation time: 0 hr 16 min 30 sec) 
Heartbeat CPU 0 instructions: 28000000 cycles: 14243733 heartbeat IPC: 1.93458 cumulative IPC: 1.96578 (Simulation time: 0 hr 17 min 5 sec) 
Heartbeat CPU 0 instructions: 29000001 cycles: 14722460 heartbeat IPC: 2.08888 cumulative IPC: 1.96978 (Simulation time: 0 hr 17 min 40 sec) 
Heartbeat CPU 0 instructions: 30000000 cycles: 15219446 heartbeat IPC: 2.01213 cumulative IPC: 1.97116 (Simulation time: 0 hr 18 min 15 sec) 
Heartbeat CPU 0 instructions: 31000002 cycles: 15751408 heartbeat IPC: 1.87984 cumulative IPC: 1.96808 (Simulation time: 0 hr 18 min 49 sec) 
Heartbeat CPU 0 instructions: 32000000 cycles: 16231057 heartbeat IPC: 2.08485 cumulative IPC: 1.97153 (Simulation time: 0 hr 19 min 23 sec) 
Heartbeat CPU 0 instructions: 33000000 cycles: 16736805 heartbeat IPC: 1.97727 cumulative IPC: 1.9717 (Simulation time: 0 hr 20 min 2 sec) 
Heartbeat CPU 0 instructions: 34000000 cycles: 17278214 heartbeat IPC: 1.84703 cumulative IPC: 1.9678 (Simulation time: 0 hr 20 min 37 sec) 
Heartbeat CPU 0 instructions: 35000001 cycles: 17767556 heartbeat IPC: 2.04356 cumulative IPC: 1.96988 (Simulation time: 0 hr 21 min 11 sec) 
Heartbeat CPU 0 instructions: 36000000 cycles: 18273410 heartbeat IPC: 1.97685 cumulative IPC: 1.97008 (Simulation time: 0 hr 21 min 46 sec) 
Heartbeat CPU 0 instructions: 37000002 cycles: 18789978 heartbeat IPC: 1.93586 cumulative IPC: 1.96913 (Simulation time: 0 hr 22 min 19 sec) 
Heartbeat CPU 0 instructions: 38000001 cycles: 19303765 heartbeat IPC: 1.94633 cumulative IPC: 1.96853 (Simulation time: 0 hr 22 min 54 sec) 
Heartbeat CPU 0 instructions: 39000000 cycles: 19781298 heartbeat IPC: 2.09409 cumulative IPC: 1.97156 (Simulation time: 0 hr 23 min 31 sec) 
Heartbeat CPU 0 instructions: 40000000 cycles: 20270503 heartbeat IPC: 2.04413 cumulative IPC: 1.97331 (Simulation time: 0 hr 24 min 4 sec) 
Heartbeat CPU 0 instructions: 41000000 cycles: 20809644 heartbeat IPC: 1.8548 cumulative IPC: 1.97024 (Simulation time: 0 hr 24 min 41 sec) 
Heartbeat CPU 0 instructions: 42000001 cycles: 21293432 heartbeat IPC: 2.06702 cumulative IPC: 1.97244 (Simulation time: 0 hr 25 min 15 sec) 
Heartbeat CPU 0 instructions: 43000000 cycles: 21771127 heartbeat IPC: 2.09338 cumulative IPC: 1.97509 (Simulation time: 0 hr 25 min 50 sec) 
Heartbeat CPU 0 instructions: 44000000 cycles: 22303636 heartbeat IPC: 1.8779 cumulative IPC: 1.97277 (Simulation time: 0 hr 26 min 28 sec) 
Heartbeat CPU 0 instructions: 45000001 cycles: 22797731 heartbeat IPC: 2.0239 cumulative IPC: 1.97388 (Simulation time: 0 hr 27 min 2 sec) 
Heartbeat CPU 0 instructions: 46000001 cycles: 23277911 heartbeat IPC: 2.08255 cumulative IPC: 1.97612 (Simulation time: 0 hr 27 min 36 sec) 
Heartbeat CPU 0 instructions: 47000002 cycles: 23790018 heartbeat IPC: 1.95272 cumulative IPC: 1.97562 (Simulation time: 0 hr 28 min 9 sec) 
Heartbeat CPU 0 instructions: 48000000 cycles: 24309429 heartbeat IPC: 1.92525 cumulative IPC: 1.97454 (Simulation time: 0 hr 28 min 42 sec) 
Heartbeat CPU 0 instructions: 49000000 cycles: 24792650 heartbeat IPC: 2.06945 cumulative IPC: 1.97639 (Simulation time: 0 hr 29 min 16 sec) 
Heartbeat CPU 0 instructions: 50000000 cycles: 25283975 heartbeat IPC: 2.03531 cumulative IPC: 1.97754 (Simulation time: 0 hr 29 min 49 sec) 

Warmup complete CPU 0 instructions: 50000004 cycles: 25283976 (Simulation time: 0 hr 29 min 49 sec) 

Heartbeat CPU 0 instructions: 51000001 cycles: 39580014 heartbeat IPC: 0.0699495 cumulative IPC: 0.0699492 (Simulation time: 0 hr 30 min 55 sec) 
Heartbeat CPU 0 instructions: 52000000 cycles: 44443499 heartbeat IPC: 0.205614 cumulative IPC: 0.104387 (Simulation time: 0 hr 31 min 39 sec) 
Heartbeat CPU 0 instructions: 53000000 cycles: 48674116 heartbeat IPC: 0.236372 cumulative IPC: 0.128259 (Simulation time: 0 hr 32 min 25 sec) 
Heartbeat CPU 0 instructions: 54000002 cycles: 64195196 heartbeat IPC: 0.0644286 cumulative IPC: 0.102798 (Simulation time: 0 hr 33 min 35 sec) 
Heartbeat CPU 0 instructions: 55000002 cycles: 69557755 heartbeat IPC: 0.186478 cumulative IPC: 0.112934 (Simulation time: 0 hr 34 min 21 sec) 
Heartbeat CPU 0 instructions: 56000000 cycles: 73918388 heartbeat IPC: 0.229324 cumulative IPC: 0.123369 (Simulation time: 0 hr 35 min 3 sec) 
Heartbeat CPU 0 instructions: 57000000 cycles: 87254171 heartbeat IPC: 0.0749862 cumulative IPC: 0.112957 (Simulation time: 0 hr 36 min 5 sec) 
Heartbeat CPU 0 instructions: 58000000 cycles: 94986621 heartbeat IPC: 0.129325 cumulative IPC: 0.114773 (Simulation time: 0 hr 36 min 58 sec) 
Heartbeat CPU 0 instructions: 59000002 cycles: 99268670 heartbeat IPC: 0.233534 cumulative IPC: 0.121647 (Simulation time: 0 hr 37 min 41 sec) 
Heartbeat CPU 0 instructions: 60000000 cycles: 111029177 heartbeat IPC: 0.0850302 cumulative IPC: 0.116625 (Simulation time: 0 hr 38 min 42 sec) 
Heartbeat CPU 0 instructions: 61000002 cycles: 120412095 heartbeat IPC: 0.106577 cumulative IPC: 0.115634 (Simulation time: 0 hr 39 min 38 sec) 
Heartbeat CPU 0 instructions: 62000001 cycles: 124673467 heartbeat IPC: 0.234666 cumulative IPC: 0.120737 (Simulation time: 0 hr 40 min 22 sec) 
Heartbeat CPU 0 instructions: 63000001 cycles: 134757661 heartbeat IPC: 0.0991651 cumulative IPC: 0.11875 (Simulation time: 0 hr 41 min 21 sec) 
Heartbeat CPU 0 instructions: 64000000 cycles: 146040496 heartbeat IPC: 0.0886301 cumulative IPC: 0.115936 (Simulation time: 0 hr 42 min 24 sec) 
Heartbeat CPU 0 instructions: 65000002 cycles: 151448358 heartbeat IPC: 0.184916 cumulative IPC: 0.118892 (Simulation time: 0 hr 43 min 10 sec) 
Heartbeat CPU 0 instructions: 66000000 cycles: 157973844 heartbeat IPC: 0.153245 cumulative IPC: 0.120582 (Simulation time: 0 hr 43 min 58 sec) 
Heartbeat CPU 0 instructions: 67000002 cycles: 173703866 heartbeat IPC: 0.0635728 cumulative IPC: 0.11454 (Simulation time: 0 hr 45 min 11 sec) 
Heartbeat CPU 0 instructions: 68000000 cycles: 178376746 heartbeat IPC: 0.214 cumulative IPC: 0.117576 (Simulation time: 0 hr 45 min 58 sec) 
Heartbeat CPU 0 instructions: 69000000 cycles: 182493790 heartbeat IPC: 0.242893 cumulative IPC: 0.120858 (Simulation time: 0 hr 46 min 41 sec) 
Heartbeat CPU 0 instructions: 70000001 cycles: 196560215 heartbeat IPC: 0.0710913 cumulative IPC: 0.11677 (Simulation time: 0 hr 47 min 46 sec) 
Heartbeat CPU 0 instructions: 71000002 cycles: 205342944 heartbeat IPC: 0.11386 cumulative IPC: 0.116628 (Simulation time: 0 hr 48 min 40 sec) 
Heartbeat CPU 0 instructions: 72000000 cycles: 210239525 heartbeat IPC: 0.204224 cumulative IPC: 0.118947 (Simulation time: 0 hr 49 min 25 sec) 
Heartbeat CPU 0 instructions: 73000002 cycles: 219366529 heartbeat IPC: 0.109565 cumulative IPC: 0.118506 (Simulation time: 0 hr 50 min 23 sec) 
Heartbeat CPU 0 instructions: 74000001 cycles: 231220019 heartbeat IPC: 0.0843633 cumulative IPC: 0.116541 (Simulation time: 0 hr 51 min 25 sec) 
Heartbeat CPU 0 instructions: 75000002 cycles: 235883060 heartbeat IPC: 0.214453 cumulative IPC: 0.118709 (Simulation time: 0 hr 52 min 14 sec) 
Heartbeat CPU 0 instructions: 76000000 cycles: 241953347 heartbeat IPC: 0.164737 cumulative IPC: 0.119998 (Simulation time: 0 hr 53 min 0 sec) 
Heartbeat CPU 0 instructions: 77000001 cycles: 258002800 heartbeat IPC: 0.0623075 cumulative IPC: 0.11602 (Simulation time: 0 hr 54 min 15 sec) 
Heartbeat CPU 0 instructions: 78000002 cycles: 263187377 heartbeat IPC: 0.19288 cumulative IPC: 0.117695 (Simulation time: 0 hr 55 min 5 sec) 
Heartbeat CPU 0 instructions: 79000001 cycles: 267612553 heartbeat IPC: 0.225979 cumulative IPC: 0.119672 (Simulation time: 0 hr 55 min 50 sec) 
Heartbeat CPU 0 instructions: 80000000 cycles: 280719558 heartbeat IPC: 0.076295 cumulative IPC: 0.117446 (Simulation time: 0 hr 56 min 57 sec) 
Heartbeat CPU 0 instructions: 81000000 cycles: 288190209 heartbeat IPC: 0.133857 cumulative IPC: 0.117913 (Simulation time: 0 hr 57 min 49 sec) 
Heartbeat CPU 0 instructions: 82000000 cycles: 293095084 heartbeat IPC: 0.203879 cumulative IPC: 0.119487 (Simulation time: 0 hr 58 min 32 sec) 
Heartbeat CPU 0 instructions: 83000001 cycles: 302892444 heartbeat IPC: 0.102068 cumulative IPC: 0.118872 (Simulation time: 0 hr 59 min 30 sec) 
Heartbeat CPU 0 instructions: 84000000 cycles: 314065301 heartbeat IPC: 0.0895025 cumulative IPC: 0.117736 (Simulation time: 1 hr 0 min 34 sec) 
Heartbeat CPU 0 instructions: 85000001 cycles: 318403266 heartbeat IPC: 0.230523 cumulative IPC: 0.119405 (Simulation time: 1 hr 1 min 15 sec) 
Heartbeat CPU 0 instructions: 86000000 cycles: 326541596 heartbeat IPC: 0.122875 cumulative IPC: 0.119499 (Simulation time: 1 hr 2 min 7 sec) 
Heartbeat CPU 0 instructions: 87000000 cycles: 340909041 heartbeat IPC: 0.0696018 cumulative IPC: 0.117228 (Simulation time: 1 hr 3 min 16 sec) 
Heartbeat CPU 0 instructions: 88000000 cycles: 347200264 heartbeat IPC: 0.158952 cumulative IPC: 0.118043 (Simulation time: 1 hr 4 min 8 sec) 
Heartbeat CPU 0 instructions: 89000000 cycles: 351433749 heartbeat IPC: 0.236212 cumulative IPC: 0.119577 (Simulation time: 1 hr 4 min 52 sec) 
Heartbeat CPU 0 instructions: 90000003 cycles: 363165774 heartbeat IPC: 0.085237 cumulative IPC: 0.118385 (Simulation time: 1 hr 5 min 50 sec) 
Heartbeat CPU 0 instructions: 91000000 cycles: 371919231 heartbeat IPC: 0.11424 cumulative IPC: 0.11828 (Simulation time: 1 hr 6 min 44 sec) 
Heartbeat CPU 0 instructions: 92000000 cycles: 376231336 heartbeat IPC: 0.231905 cumulative IPC: 0.119676 (Simulation time: 1 hr 7 min 31 sec) 
Heartbeat CPU 0 instructions: 93000002 cycles: 385267095 heartbeat IPC: 0.110672 cumulative IPC: 0.11945 (Simulation time: 1 hr 8 min 28 sec) 
Heartbeat CPU 0 instructions: 94000002 cycles: 396807116 heartbeat IPC: 0.086655 cumulative IPC: 0.118431 (Simulation time: 1 hr 9 min 30 sec) 
Heartbeat CPU 0 instructions: 95000000 cycles: 402796399 heartbeat IPC: 0.166965 cumulative IPC: 0.119201 (Simulation time: 1 hr 10 min 18 sec) 
Heartbeat CPU 0 instructions: 96000000 cycles: 408416341 heartbeat IPC: 0.177938 cumulative IPC: 0.120063 (Simulation time: 1 hr 11 min 3 sec) 
Heartbeat CPU 0 instructions: 97000000 cycles: 423537964 heartbeat IPC: 0.0661305 cumulative IPC: 0.118015 (Simulation time: 1 hr 12 min 3 sec) 
Heartbeat CPU 0 instructions: 98000002 cycles: 428385354 heartbeat IPC: 0.206297 cumulative IPC: 0.119077 (Simulation time: 1 hr 12 min 43 sec) 
Heartbeat CPU 0 instructions: 99000002 cycles: 433260370 heartbeat IPC: 0.205128 cumulative IPC: 0.120105 (Simulation time: 1 hr 13 min 24 sec) 
Heartbeat CPU 0 instructions: 100000000 cycles: 447173415 heartbeat IPC: 0.0718748 cumulative IPC: 0.118514 (Simulation time: 1 hr 14 min 17 sec) 
Heartbeat CPU 0 instructions: 101000000 cycles: 454010203 heartbeat IPC: 0.146268 cumulative IPC: 0.118957 (Simulation time: 1 hr 14 min 57 sec) 
Heartbeat CPU 0 instructions: 102000003 cycles: 458287125 heartbeat IPC: 0.233814 cumulative IPC: 0.120092 (Simulation time: 1 hr 15 min 35 sec) 
Heartbeat CPU 0 instructions: 103000003 cycles: 470271808 heartbeat IPC: 0.0834398 cumulative IPC: 0.119104 (Simulation time: 1 hr 16 min 25 sec) 
Heartbeat CPU 0 instructions: 104000000 cycles: 481759687 heartbeat IPC: 0.087048 cumulative IPC: 0.118298 (Simulation time: 1 hr 17 min 14 sec) 
Heartbeat CPU 0 instructions: 105000000 cycles: 486558033 heartbeat IPC: 0.208405 cumulative IPC: 0.119235 (Simulation time: 1 hr 17 min 49 sec) 
Heartbeat CPU 0 instructions: 106000000 cycles: 490766433 heartbeat IPC: 0.23762 cumulative IPC: 0.120305 (Simulation time: 1 hr 18 min 18 sec) 
Heartbeat CPU 0 instructions: 107000002 cycles: 506011981 heartbeat IPC: 0.065593 cumulative IPC: 0.11857 (Simulation time: 1 hr 19 min 5 sec) 
Heartbeat CPU 0 instructions: 108000000 cycles: 511574233 heartbeat IPC: 0.179783 cumulative IPC: 0.11927 (Simulation time: 1 hr 19 min 36 sec) 
Heartbeat CPU 0 instructions: 109000001 cycles: 515974244 heartbeat IPC: 0.227272 cumulative IPC: 0.120239 (Simulation time: 1 hr 20 min 5 sec) 
Heartbeat CPU 0 instructions: 110000002 cycles: 525810853 heartbeat IPC: 0.101661 cumulative IPC: 0.119874 (Simulation time: 1 hr 20 min 42 sec) 
Heartbeat CPU 0 instructions: 111000003 cycles: 536629645 heartbeat IPC: 0.0924319 cumulative IPC: 0.119293 (Simulation time: 1 hr 21 min 19 sec) 
Heartbeat CPU 0 instructions: 112000000 cycles: 540730639 heartbeat IPC: 0.243843 cumulative IPC: 0.120284 (Simulation time: 1 hr 21 min 47 sec) 
Heartbeat CPU 0 instructions: 113000000 cycles: 548272265 heartbeat IPC: 0.132597 cumulative IPC: 0.120462 (Simulation time: 1 hr 22 min 17 sec) 
Heartbeat CPU 0 instructions: 114000000 cycles: 561956452 heartbeat IPC: 0.073077 cumulative IPC: 0.119253 (Simulation time: 1 hr 22 min 53 sec) 
Heartbeat CPU 0 instructions: 115000001 cycles: 569611685 heartbeat IPC: 0.13063 cumulative IPC: 0.119413 (Simulation time: 1 hr 23 min 22 sec) 
Heartbeat CPU 0 instructions: 116000000 cycles: 573720788 heartbeat IPC: 0.243362 cumulative IPC: 0.120342 (Simulation time: 1 hr 23 min 43 sec) 
Heartbeat CPU 0 instructions: 117000000 cycles: 584097692 heartbeat IPC: 0.0963679 cumulative IPC: 0.119897 (Simulation time: 1 hr 24 min 11 sec) 
Heartbeat CPU 0 instructions: 118000000 cycles: 594322547 heartbeat IPC: 0.0978009 cumulative IPC: 0.1195 (Simulation time: 1 hr 24 min 43 sec) 
Heartbeat CPU 0 instructions: 119000000 cycles: 598608047 heartbeat IPC: 0.233345 cumulative IPC: 0.120351 (Simulation time: 1 hr 25 min 5 sec) 
Heartbeat CPU 0 instructions: 120000000 cycles: 605218295 heartbeat IPC: 0.15128 cumulative IPC: 0.120703 (Simulation time: 1 hr 25 min 28 sec) 
Heartbeat CPU 0 instructions: 121000000 cycles: 618936213 heartbeat IPC: 0.0728974 cumulative IPC: 0.119599 (Simulation time: 1 hr 25 min 57 sec) 
Heartbeat CPU 0 instructions: 122000001 cycles: 623161731 heartbeat IPC: 0.236658 cumulative IPC: 0.120426 (Simulation time: 1 hr 26 min 13 sec) 
Heartbeat CPU 0 instructions: 123000000 cycles: 627422120 heartbeat IPC: 0.23472 cumulative IPC: 0.121235 (Simulation time: 1 hr 26 min 29 sec) 
Heartbeat CPU 0 instructions: 124000000 cycles: 642196280 heartbeat IPC: 0.0676857 cumulative IPC: 0.119952 (Simulation time: 1 hr 26 min 55 sec) 
Heartbeat CPU 0 instructions: 125000000 cycles: 648098862 heartbeat IPC: 0.169417 cumulative IPC: 0.120421 (Simulation time: 1 hr 27 min 11 sec) 
Heartbeat CPU 0 instructions: 126000000 cycles: 652256882 heartbeat IPC: 0.240499 cumulative IPC: 0.121217 (Simulation time: 1 hr 27 min 25 sec) 
Heartbeat CPU 0 instructions: 127000002 cycles: 664444735 heartbeat IPC: 0.0820491 cumulative IPC: 0.12047 (Simulation time: 1 hr 27 min 45 sec) 
Heartbeat CPU 0 instructions: 128000000 cycles: 672951987 heartbeat IPC: 0.117547 cumulative IPC: 0.120432 (Simulation time: 1 hr 28 min 4 sec) 
Heartbeat CPU 0 instructions: 129000000 cycles: 677089500 heartbeat IPC: 0.241691 cumulative IPC: 0.121202 (Simulation time: 1 hr 28 min 17 sec) 
Heartbeat CPU 0 instructions: 130000000 cycles: 685838357 heartbeat IPC: 0.114301 cumulative IPC: 0.12111 (Simulation time: 1 hr 28 min 32 sec) 
Heartbeat CPU 0 instructions: 131000000 cycles: 698317251 heartbeat IPC: 0.0801353 cumulative IPC: 0.120351 (Simulation time: 1 hr 28 min 44 sec) 
Heartbeat CPU 0 instructions: 132000000 cycles: 703234719 heartbeat IPC: 0.203357 cumulative IPC: 0.120953 (Simulation time: 1 hr 28 min 52 sec) 
Heartbeat CPU 0 instructions: 133000002 cycles: 707952975 heartbeat IPC: 0.211943 cumulative IPC: 0.121582 (Simulation time: 1 hr 29 min 0 sec) 
Heartbeat CPU 0 instructions: 134000001 cycles: 723364322 heartbeat IPC: 0.0648872 cumulative IPC: 0.12033 (Simulation time: 1 hr 29 min 13 sec) 
Heartbeat CPU 0 instructions: 135000001 cycles: 728083965 heartbeat IPC: 0.21188 cumulative IPC: 0.120945 (Simulation time: 1 hr 29 min 20 sec) 
Heartbeat CPU 0 instructions: 136000000 cycles: 736359304 heartbeat IPC: 0.120841 cumulative IPC: 0.120944 (Simulation time: 1 hr 29 min 29 sec) 
Heartbeat CPU 0 instructions: 137000000 cycles: 746541088 heartbeat IPC: 0.0982146 cumulative IPC: 0.120623 (Simulation time: 1 hr 29 min 39 sec) 
Heartbeat CPU 0 instructions: 138000001 cycles: 757159158 heartbeat IPC: 0.0941792 cumulative IPC: 0.120239 (Simulation time: 1 hr 29 min 48 sec) 
Heartbeat CPU 0 instructions: 139000002 cycles: 761442244 heartbeat IPC: 0.233477 cumulative IPC: 0.120898 (Simulation time: 1 hr 29 min 55 sec) 
Heartbeat CPU 0 instructions: 140000000 cycles: 767682571 heartbeat IPC: 0.160248 cumulative IPC: 0.121229 (Simulation time: 1 hr 30 min 2 sec) 
Heartbeat CPU 0 instructions: 141000002 cycles: 781600092 heartbeat IPC: 0.071852 cumulative IPC: 0.12032 (Simulation time: 1 hr 30 min 13 sec) 
Heartbeat CPU 0 instructions: 142000002 cycles: 785775328 heartbeat IPC: 0.239507 cumulative IPC: 0.120974 (Simulation time: 1 hr 30 min 20 sec) 
Heartbeat CPU 0 instructions: 143000002 cycles: 789680510 heartbeat IPC: 0.25607 cumulative IPC: 0.121665 (Simulation time: 1 hr 30 min 26 sec) 
Heartbeat CPU 0 instructions: 144000000 cycles: 804702077 heartbeat IPC: 0.0665708 cumulative IPC: 0.120603 (Simulation time: 1 hr 30 min 37 sec) 
Heartbeat CPU 0 instructions: 145000001 cycles: 810143977 heartbeat IPC: 0.18376 cumulative IPC: 0.121041 (Simulation time: 1 hr 30 min 43 sec) 
Heartbeat CPU 0 instructions: 146000001 cycles: 814204800 heartbeat IPC: 0.246256 cumulative IPC: 0.121685 (Simulation time: 1 hr 30 min 49 sec) 
Heartbeat CPU 0 instructions: 147000000 cycles: 827241233 heartbeat IPC: 0.076708 cumulative IPC: 0.120954 (Simulation time: 1 hr 30 min 58 sec) 
Heartbeat CPU 0 instructions: 148000000 cycles: 834548934 heartbeat IPC: 0.136842 cumulative IPC: 0.121098 (Simulation time: 1 hr 31 min 5 sec) 
Heartbeat CPU 0 instructions: 149000000 cycles: 838743603 heartbeat IPC: 0.238398 cumulative IPC: 0.121702 (Simulation time: 1 hr 31 min 11 sec) 
Heartbeat CPU 0 instructions: 150000000 cycles: 849690916 heartbeat IPC: 0.0913466 cumulative IPC: 0.121299 (Simulation time: 1 hr 31 min 20 sec) 
Finished CPU 0 instructions: 100000000 cycles: 824407120 cummulative IPC: 0.121299 (Simulation time: 1 hr 31 min 20 sec) 

ChampSim completed all CPUs

Region of Interest Statistics

CPU 0 cummulative IPC: 0.121299 instructions: 100000000 cycles: 824407120
LLC TOTAL     ACCESS:   18838336  HIT:    8021316  MISS:   10817020
LLC LOAD      ACCESS:    8518518  HIT:    4299340  MISS:    4219178
LLC RFO       ACCESS:     210584  HIT:      75980  MISS:     134604
LLC PREFETCH  ACCESS:    8013808  HIT:    2536862  MISS:    5476946
LLC WRITEBACK ACCESS:    2095426  HIT:    1109134  MISS:     986292
OPTgen accesses: 201779
OPTgen hits: 129471
OPTgen hit rate: 64.1648


