
*** ChampSim Multicore Out-of-Order Simulator ***

Warmup Instructions: 50000000
Simulation Instructions: 100000000
Configuration: 2
Number of CPUs: 1
LLC sets: 2048
LLC ways: 16
Off-chip DRAM Channels: 1 Width: 64-bit Data Rate: 1600 MT/s

CPU 0 runs /datasets/cs240c-wi22-a00-public/data/Assignment2-gz/zeusmp_300B.trace.gz
CPU 0 L1D next line prefetcher
CPU 0 L2C IP-based stride prefetcher
Initialize Hawkeye state
Heartbeat CPU 0 instructions: 1000003 cycles: 509580 heartbeat IPC: 1.96241 cumulative IPC: 1.96241 (Simulation time: 0 hr 0 min 28 sec) 
Heartbeat CPU 0 instructions: 2000003 cycles: 1062148 heartbeat IPC: 1.80973 cumulative IPC: 1.88298 (Simulation time: 0 hr 0 min 56 sec) 
Heartbeat CPU 0 instructions: 3000002 cycles: 1606419 heartbeat IPC: 1.83732 cumulative IPC: 1.86751 (Simulation time: 0 hr 1 min 23 sec) 
Heartbeat CPU 0 instructions: 4000000 cycles: 2093208 heartbeat IPC: 2.05427 cumulative IPC: 1.91094 (Simulation time: 0 hr 1 min 53 sec) 
Heartbeat CPU 0 instructions: 5000001 cycles: 2575890 heartbeat IPC: 2.07176 cumulative IPC: 1.94108 (Simulation time: 0 hr 2 min 22 sec) 
Heartbeat CPU 0 instructions: 6000000 cycles: 3062578 heartbeat IPC: 2.0547 cumulative IPC: 1.95913 (Simulation time: 0 hr 2 min 49 sec) 
Heartbeat CPU 0 instructions: 7000001 cycles: 3590722 heartbeat IPC: 1.89342 cumulative IPC: 1.94947 (Simulation time: 0 hr 3 min 17 sec) 
Heartbeat CPU 0 instructions: 8000000 cycles: 4144748 heartbeat IPC: 1.80497 cumulative IPC: 1.93015 (Simulation time: 0 hr 3 min 45 sec) 
Heartbeat CPU 0 instructions: 9000000 cycles: 4672634 heartbeat IPC: 1.89435 cumulative IPC: 1.92611 (Simulation time: 0 hr 4 min 13 sec) 
Heartbeat CPU 0 instructions: 10000002 cycles: 5158923 heartbeat IPC: 2.05639 cumulative IPC: 1.93839 (Simulation time: 0 hr 4 min 41 sec) 
Heartbeat CPU 0 instructions: 11000003 cycles: 5643379 heartbeat IPC: 2.06417 cumulative IPC: 1.94919 (Simulation time: 0 hr 5 min 9 sec) 
Heartbeat CPU 0 instructions: 12000000 cycles: 6129754 heartbeat IPC: 2.05602 cumulative IPC: 1.95766 (Simulation time: 0 hr 5 min 36 sec) 
Heartbeat CPU 0 instructions: 13000001 cycles: 6673163 heartbeat IPC: 1.84024 cumulative IPC: 1.9481 (Simulation time: 0 hr 6 min 5 sec) 
Heartbeat CPU 0 instructions: 14000002 cycles: 7229005 heartbeat IPC: 1.79907 cumulative IPC: 1.93664 (Simulation time: 0 hr 6 min 35 sec) 
Heartbeat CPU 0 instructions: 15000002 cycles: 7738485 heartbeat IPC: 1.96279 cumulative IPC: 1.93836 (Simulation time: 0 hr 7 min 5 sec) 
Heartbeat CPU 0 instructions: 16000000 cycles: 8224654 heartbeat IPC: 2.05689 cumulative IPC: 1.94537 (Simulation time: 0 hr 7 min 32 sec) 
Heartbeat CPU 0 instructions: 17000003 cycles: 8709906 heartbeat IPC: 2.06079 cumulative IPC: 1.9518 (Simulation time: 0 hr 8 min 1 sec) 
Heartbeat CPU 0 instructions: 18000003 cycles: 9197014 heartbeat IPC: 2.05293 cumulative IPC: 1.95716 (Simulation time: 0 hr 8 min 27 sec) 
Heartbeat CPU 0 instructions: 19000003 cycles: 9756254 heartbeat IPC: 1.78814 cumulative IPC: 1.94747 (Simulation time: 0 hr 8 min 52 sec) 
Heartbeat CPU 0 instructions: 20000000 cycles: 10314647 heartbeat IPC: 1.79085 cumulative IPC: 1.93899 (Simulation time: 0 hr 9 min 20 sec) 
Heartbeat CPU 0 instructions: 21000003 cycles: 10806445 heartbeat IPC: 2.03336 cumulative IPC: 1.94329 (Simulation time: 0 hr 9 min 50 sec) 
Heartbeat CPU 0 instructions: 22000002 cycles: 11292583 heartbeat IPC: 2.05703 cumulative IPC: 1.94818 (Simulation time: 0 hr 10 min 16 sec) 
Heartbeat CPU 0 instructions: 23000001 cycles: 11778511 heartbeat IPC: 2.05792 cumulative IPC: 1.95271 (Simulation time: 0 hr 10 min 42 sec) 
Heartbeat CPU 0 instructions: 24000000 cycles: 12282984 heartbeat IPC: 1.98226 cumulative IPC: 1.95392 (Simulation time: 0 hr 11 min 8 sec) 
Heartbeat CPU 0 instructions: 25000000 cycles: 12841461 heartbeat IPC: 1.79058 cumulative IPC: 1.94682 (Simulation time: 0 hr 11 min 35 sec) 
Heartbeat CPU 0 instructions: 26000000 cycles: 13389586 heartbeat IPC: 1.8244 cumulative IPC: 1.94181 (Simulation time: 0 hr 12 min 4 sec) 
Heartbeat CPU 0 instructions: 27000002 cycles: 13876419 heartbeat IPC: 2.0541 cumulative IPC: 1.94575 (Simulation time: 0 hr 12 min 31 sec) 
Heartbeat CPU 0 instructions: 28000000 cycles: 14362434 heartbeat IPC: 2.05755 cumulative IPC: 1.94953 (Simulation time: 0 hr 12 min 59 sec) 
Heartbeat CPU 0 instructions: 29000003 cycles: 14849297 heartbeat IPC: 2.05397 cumulative IPC: 1.95295 (Simulation time: 0 hr 13 min 27 sec) 
Heartbeat CPU 0 instructions: 30000001 cycles: 15371477 heartbeat IPC: 1.91504 cumulative IPC: 1.95167 (Simulation time: 0 hr 13 min 54 sec) 
Heartbeat CPU 0 instructions: 31000000 cycles: 15930977 heartbeat IPC: 1.78731 cumulative IPC: 1.94589 (Simulation time: 0 hr 14 min 19 sec) 
Heartbeat CPU 0 instructions: 32000000 cycles: 16464215 heartbeat IPC: 1.87534 cumulative IPC: 1.94361 (Simulation time: 0 hr 14 min 46 sec) 
Heartbeat CPU 0 instructions: 33000000 cycles: 16950386 heartbeat IPC: 2.05689 cumulative IPC: 1.94686 (Simulation time: 0 hr 15 min 14 sec) 
Heartbeat CPU 0 instructions: 34000000 cycles: 17436962 heartbeat IPC: 2.05518 cumulative IPC: 1.94988 (Simulation time: 0 hr 15 min 41 sec) 
Heartbeat CPU 0 instructions: 35000000 cycles: 17923444 heartbeat IPC: 2.05557 cumulative IPC: 1.95275 (Simulation time: 0 hr 16 min 8 sec) 
Heartbeat CPU 0 instructions: 36000000 cycles: 18462460 heartbeat IPC: 1.85523 cumulative IPC: 1.9499 (Simulation time: 0 hr 16 min 33 sec) 
Heartbeat CPU 0 instructions: 37000003 cycles: 19022905 heartbeat IPC: 1.7843 cumulative IPC: 1.94502 (Simulation time: 0 hr 17 min 0 sec) 
Heartbeat CPU 0 instructions: 38000000 cycles: 19539013 heartbeat IPC: 1.93757 cumulative IPC: 1.94483 (Simulation time: 0 hr 17 min 27 sec) 
Heartbeat CPU 0 instructions: 39000003 cycles: 20025888 heartbeat IPC: 2.05392 cumulative IPC: 1.94748 (Simulation time: 0 hr 17 min 55 sec) 
Heartbeat CPU 0 instructions: 40000000 cycles: 20512484 heartbeat IPC: 2.05509 cumulative IPC: 1.95003 (Simulation time: 0 hr 18 min 22 sec) 
Heartbeat CPU 0 instructions: 41000000 cycles: 20998729 heartbeat IPC: 2.05658 cumulative IPC: 1.9525 (Simulation time: 0 hr 18 min 50 sec) 
Heartbeat CPU 0 instructions: 42000002 cycles: 21555819 heartbeat IPC: 1.79505 cumulative IPC: 1.94843 (Simulation time: 0 hr 19 min 18 sec) 
Heartbeat CPU 0 instructions: 43000002 cycles: 22116847 heartbeat IPC: 1.78244 cumulative IPC: 1.94422 (Simulation time: 0 hr 19 min 45 sec) 
Heartbeat CPU 0 instructions: 44000000 cycles: 22615131 heartbeat IPC: 2.00688 cumulative IPC: 1.9456 (Simulation time: 0 hr 20 min 11 sec) 
Heartbeat CPU 0 instructions: 45000003 cycles: 23101734 heartbeat IPC: 2.05507 cumulative IPC: 1.94791 (Simulation time: 0 hr 20 min 36 sec) 
Heartbeat CPU 0 instructions: 46000001 cycles: 23588143 heartbeat IPC: 2.05588 cumulative IPC: 1.95013 (Simulation time: 0 hr 21 min 1 sec) 
Heartbeat CPU 0 instructions: 47000000 cycles: 24086520 heartbeat IPC: 2.00651 cumulative IPC: 1.9513 (Simulation time: 0 hr 21 min 27 sec) 
Heartbeat CPU 0 instructions: 48000000 cycles: 24649786 heartbeat IPC: 1.77536 cumulative IPC: 1.94728 (Simulation time: 0 hr 21 min 52 sec) 
Heartbeat CPU 0 instructions: 49000002 cycles: 25206043 heartbeat IPC: 1.79773 cumulative IPC: 1.94398 (Simulation time: 0 hr 22 min 18 sec) 
Heartbeat CPU 0 instructions: 50000000 cycles: 25692607 heartbeat IPC: 2.05522 cumulative IPC: 1.94609 (Simulation time: 0 hr 22 min 50 sec) 

Warmup complete CPU 0 instructions: 50000004 cycles: 25692608 (Simulation time: 0 hr 22 min 50 sec) 

Heartbeat CPU 0 instructions: 51000002 cycles: 26375900 heartbeat IPC: 1.4635 cumulative IPC: 1.4635 (Simulation time: 0 hr 23 min 24 sec) 
Heartbeat CPU 0 instructions: 52000000 cycles: 27063919 heartbeat IPC: 1.45345 cumulative IPC: 1.45846 (Simulation time: 0 hr 23 min 59 sec) 
Heartbeat CPU 0 instructions: 53000000 cycles: 27814706 heartbeat IPC: 1.33194 cumulative IPC: 1.41369 (Simulation time: 0 hr 24 min 29 sec) 
Heartbeat CPU 0 instructions: 54000002 cycles: 28626883 heartbeat IPC: 1.23126 cumulative IPC: 1.3632 (Simulation time: 0 hr 24 min 59 sec) 
Heartbeat CPU 0 instructions: 55000001 cycles: 29403245 heartbeat IPC: 1.28806 cumulative IPC: 1.34748 (Simulation time: 0 hr 25 min 28 sec) 
Heartbeat CPU 0 instructions: 56000000 cycles: 30085722 heartbeat IPC: 1.46525 cumulative IPC: 1.36577 (Simulation time: 0 hr 25 min 57 sec) 
Heartbeat CPU 0 instructions: 57000000 cycles: 30769381 heartbeat IPC: 1.46272 cumulative IPC: 1.37883 (Simulation time: 0 hr 26 min 29 sec) 
Heartbeat CPU 0 instructions: 58000000 cycles: 31456580 heartbeat IPC: 1.45518 cumulative IPC: 1.38793 (Simulation time: 0 hr 27 min 1 sec) 
Heartbeat CPU 0 instructions: 59000003 cycles: 32234928 heartbeat IPC: 1.28478 cumulative IPC: 1.37566 (Simulation time: 0 hr 27 min 33 sec) 
Heartbeat CPU 0 instructions: 60000000 cycles: 33048533 heartbeat IPC: 1.22909 cumulative IPC: 1.35945 (Simulation time: 0 hr 28 min 7 sec) 
Heartbeat CPU 0 instructions: 61000000 cycles: 33796229 heartbeat IPC: 1.33744 cumulative IPC: 1.35742 (Simulation time: 0 hr 28 min 36 sec) 
Heartbeat CPU 0 instructions: 62000002 cycles: 34478157 heartbeat IPC: 1.46643 cumulative IPC: 1.36588 (Simulation time: 0 hr 29 min 5 sec) 
Heartbeat CPU 0 instructions: 63000003 cycles: 35165076 heartbeat IPC: 1.45578 cumulative IPC: 1.3724 (Simulation time: 0 hr 29 min 37 sec) 
Heartbeat CPU 0 instructions: 64000000 cycles: 35848879 heartbeat IPC: 1.46241 cumulative IPC: 1.37846 (Simulation time: 0 hr 30 min 11 sec) 
Heartbeat CPU 0 instructions: 65000003 cycles: 36658855 heartbeat IPC: 1.23461 cumulative IPC: 1.36783 (Simulation time: 0 hr 30 min 40 sec) 
Heartbeat CPU 0 instructions: 66000003 cycles: 37470800 heartbeat IPC: 1.23161 cumulative IPC: 1.35844 (Simulation time: 0 hr 31 min 10 sec) 
Heartbeat CPU 0 instructions: 67000002 cycles: 38187143 heartbeat IPC: 1.39598 cumulative IPC: 1.36059 (Simulation time: 0 hr 31 min 37 sec) 
Heartbeat CPU 0 instructions: 68000000 cycles: 38867136 heartbeat IPC: 1.4706 cumulative IPC: 1.36627 (Simulation time: 0 hr 32 min 5 sec) 
Heartbeat CPU 0 instructions: 69000000 cycles: 39549389 heartbeat IPC: 1.46573 cumulative IPC: 1.37117 (Simulation time: 0 hr 32 min 35 sec) 
Heartbeat CPU 0 instructions: 70000001 cycles: 40255623 heartbeat IPC: 1.41596 cumulative IPC: 1.37334 (Simulation time: 0 hr 33 min 4 sec) 
Heartbeat CPU 0 instructions: 71000001 cycles: 41064138 heartbeat IPC: 1.23684 cumulative IPC: 1.36616 (Simulation time: 0 hr 33 min 33 sec) 
Heartbeat CPU 0 instructions: 72000000 cycles: 41875293 heartbeat IPC: 1.23281 cumulative IPC: 1.35948 (Simulation time: 0 hr 34 min 2 sec) 
Heartbeat CPU 0 instructions: 73000003 cycles: 42563121 heartbeat IPC: 1.45386 cumulative IPC: 1.36333 (Simulation time: 0 hr 34 min 31 sec) 
Heartbeat CPU 0 instructions: 74000001 cycles: 43245315 heartbeat IPC: 1.46586 cumulative IPC: 1.36731 (Simulation time: 0 hr 35 min 0 sec) 
Heartbeat CPU 0 instructions: 75000003 cycles: 43927627 heartbeat IPC: 1.46561 cumulative IPC: 1.37099 (Simulation time: 0 hr 35 min 28 sec) 
Heartbeat CPU 0 instructions: 76000000 cycles: 44666600 heartbeat IPC: 1.35323 cumulative IPC: 1.3703 (Simulation time: 0 hr 35 min 56 sec) 
Heartbeat CPU 0 instructions: 77000001 cycles: 45478089 heartbeat IPC: 1.2323 cumulative IPC: 1.36464 (Simulation time: 0 hr 36 min 28 sec) 
Heartbeat CPU 0 instructions: 78000003 cycles: 46262745 heartbeat IPC: 1.27445 cumulative IPC: 1.3612 (Simulation time: 0 hr 36 min 59 sec) 
Heartbeat CPU 0 instructions: 79000001 cycles: 46941676 heartbeat IPC: 1.4729 cumulative IPC: 1.36477 (Simulation time: 0 hr 37 min 35 sec) 
Heartbeat CPU 0 instructions: 80000000 cycles: 47623507 heartbeat IPC: 1.46664 cumulative IPC: 1.36793 (Simulation time: 0 hr 38 min 5 sec) 
Heartbeat CPU 0 instructions: 81000000 cycles: 48306330 heartbeat IPC: 1.46451 cumulative IPC: 1.37085 (Simulation time: 0 hr 38 min 35 sec) 
Heartbeat CPU 0 instructions: 82000002 cycles: 49072223 heartbeat IPC: 1.30567 cumulative IPC: 1.36871 (Simulation time: 0 hr 39 min 2 sec) 
Heartbeat CPU 0 instructions: 83000001 cycles: 49883067 heartbeat IPC: 1.23328 cumulative IPC: 1.36417 (Simulation time: 0 hr 39 min 32 sec) 
Heartbeat CPU 0 instructions: 84000000 cycles: 50637976 heartbeat IPC: 1.32466 cumulative IPC: 1.36298 (Simulation time: 0 hr 40 min 1 sec) 
Heartbeat CPU 0 instructions: 85000001 cycles: 51319868 heartbeat IPC: 1.46651 cumulative IPC: 1.36573 (Simulation time: 0 hr 40 min 32 sec) 
Heartbeat CPU 0 instructions: 86000002 cycles: 52004228 heartbeat IPC: 1.46122 cumulative IPC: 1.36822 (Simulation time: 0 hr 41 min 1 sec) 
Heartbeat CPU 0 instructions: 87000000 cycles: 52684867 heartbeat IPC: 1.4692 cumulative IPC: 1.37076 (Simulation time: 0 hr 41 min 28 sec) 
Heartbeat CPU 0 instructions: 88000000 cycles: 53481130 heartbeat IPC: 1.25587 cumulative IPC: 1.36747 (Simulation time: 0 hr 42 min 2 sec) 
Heartbeat CPU 0 instructions: 89000000 cycles: 54294640 heartbeat IPC: 1.22924 cumulative IPC: 1.36354 (Simulation time: 0 hr 42 min 31 sec) 
Heartbeat CPU 0 instructions: 90000002 cycles: 55021233 heartbeat IPC: 1.37629 cumulative IPC: 1.36386 (Simulation time: 0 hr 43 min 3 sec) 
Heartbeat CPU 0 instructions: 91000002 cycles: 55700868 heartbeat IPC: 1.47138 cumulative IPC: 1.36629 (Simulation time: 0 hr 43 min 34 sec) 
Heartbeat CPU 0 instructions: 92000000 cycles: 56385366 heartbeat IPC: 1.46092 cumulative IPC: 1.3684 (Simulation time: 0 hr 44 min 3 sec) 
Heartbeat CPU 0 instructions: 93000001 cycles: 57066136 heartbeat IPC: 1.46893 cumulative IPC: 1.37058 (Simulation time: 0 hr 44 min 32 sec) 
Heartbeat CPU 0 instructions: 94000000 cycles: 57891711 heartbeat IPC: 1.21128 cumulative IPC: 1.3665 (Simulation time: 0 hr 45 min 3 sec) 
Heartbeat CPU 0 instructions: 95000003 cycles: 58704370 heartbeat IPC: 1.23053 cumulative IPC: 1.36315 (Simulation time: 0 hr 45 min 34 sec) 
Heartbeat CPU 0 instructions: 96000000 cycles: 59401997 heartbeat IPC: 1.43343 cumulative IPC: 1.3646 (Simulation time: 0 hr 46 min 2 sec) 
Heartbeat CPU 0 instructions: 97000001 cycles: 60083041 heartbeat IPC: 1.46834 cumulative IPC: 1.36666 (Simulation time: 0 hr 46 min 31 sec) 
Heartbeat CPU 0 instructions: 98000000 cycles: 60770344 heartbeat IPC: 1.45496 cumulative IPC: 1.36839 (Simulation time: 0 hr 46 min 58 sec) 
Heartbeat CPU 0 instructions: 99000001 cycles: 61496463 heartbeat IPC: 1.37719 cumulative IPC: 1.36857 (Simulation time: 0 hr 47 min 33 sec) 
Heartbeat CPU 0 instructions: 100000000 cycles: 62308617 heartbeat IPC: 1.23129 cumulative IPC: 1.36552 (Simulation time: 0 hr 48 min 4 sec) 
Heartbeat CPU 0 instructions: 101000001 cycles: 63110966 heartbeat IPC: 1.24634 cumulative IPC: 1.36297 (Simulation time: 0 hr 48 min 34 sec) 
Heartbeat CPU 0 instructions: 102000003 cycles: 63790609 heartbeat IPC: 1.47136 cumulative IPC: 1.3649 (Simulation time: 0 hr 49 min 5 sec) 
Heartbeat CPU 0 instructions: 103000003 cycles: 64473374 heartbeat IPC: 1.46463 cumulative IPC: 1.36666 (Simulation time: 0 hr 49 min 34 sec) 
Heartbeat CPU 0 instructions: 104000000 cycles: 65155433 heartbeat IPC: 1.46614 cumulative IPC: 1.36838 (Simulation time: 0 hr 50 min 2 sec) 
Heartbeat CPU 0 instructions: 105000001 cycles: 65916156 heartbeat IPC: 1.31454 cumulative IPC: 1.36736 (Simulation time: 0 hr 50 min 33 sec) 
Heartbeat CPU 0 instructions: 106000002 cycles: 66724144 heartbeat IPC: 1.23764 cumulative IPC: 1.3648 (Simulation time: 0 hr 51 min 2 sec) 
Heartbeat CPU 0 instructions: 107000003 cycles: 67493074 heartbeat IPC: 1.30051 cumulative IPC: 1.36362 (Simulation time: 0 hr 51 min 35 sec) 
Heartbeat CPU 0 instructions: 108000000 cycles: 68172631 heartbeat IPC: 1.47154 cumulative IPC: 1.36535 (Simulation time: 0 hr 52 min 5 sec) 
Heartbeat CPU 0 instructions: 109000001 cycles: 68856679 heartbeat IPC: 1.46189 cumulative IPC: 1.36688 (Simulation time: 0 hr 52 min 35 sec) 
Heartbeat CPU 0 instructions: 110000000 cycles: 69539390 heartbeat IPC: 1.46475 cumulative IPC: 1.3684 (Simulation time: 0 hr 53 min 5 sec) 
Heartbeat CPU 0 instructions: 111000002 cycles: 70329552 heartbeat IPC: 1.26557 cumulative IPC: 1.36658 (Simulation time: 0 hr 53 min 35 sec) 
Heartbeat CPU 0 instructions: 112000000 cycles: 71142299 heartbeat IPC: 1.23039 cumulative IPC: 1.36415 (Simulation time: 0 hr 54 min 3 sec) 
Heartbeat CPU 0 instructions: 113000001 cycles: 71880226 heartbeat IPC: 1.35515 cumulative IPC: 1.364 (Simulation time: 0 hr 54 min 32 sec) 
Heartbeat CPU 0 instructions: 114000002 cycles: 72563320 heartbeat IPC: 1.46393 cumulative IPC: 1.36546 (Simulation time: 0 hr 54 min 59 sec) 
Heartbeat CPU 0 instructions: 115000003 cycles: 73246725 heartbeat IPC: 1.46326 cumulative IPC: 1.36686 (Simulation time: 0 hr 55 min 27 sec) 
Heartbeat CPU 0 instructions: 116000000 cycles: 73932933 heartbeat IPC: 1.45728 cumulative IPC: 1.36815 (Simulation time: 0 hr 55 min 54 sec) 
Heartbeat CPU 0 instructions: 117000000 cycles: 74751611 heartbeat IPC: 1.22148 cumulative IPC: 1.3657 (Simulation time: 0 hr 56 min 22 sec) 
Heartbeat CPU 0 instructions: 118000002 cycles: 75565286 heartbeat IPC: 1.22899 cumulative IPC: 1.36347 (Simulation time: 0 hr 56 min 51 sec) 
Heartbeat CPU 0 instructions: 119000000 cycles: 76274523 heartbeat IPC: 1.40996 cumulative IPC: 1.36412 (Simulation time: 0 hr 57 min 20 sec) 
Heartbeat CPU 0 instructions: 120000000 cycles: 76956913 heartbeat IPC: 1.46544 cumulative IPC: 1.36547 (Simulation time: 0 hr 57 min 48 sec) 
Heartbeat CPU 0 instructions: 121000000 cycles: 77641195 heartbeat IPC: 1.46139 cumulative IPC: 1.36674 (Simulation time: 0 hr 58 min 16 sec) 
Heartbeat CPU 0 instructions: 122000003 cycles: 78360891 heartbeat IPC: 1.38948 cumulative IPC: 1.36705 (Simulation time: 0 hr 58 min 44 sec) 
Heartbeat CPU 0 instructions: 123000000 cycles: 79173510 heartbeat IPC: 1.23059 cumulative IPC: 1.36497 (Simulation time: 0 hr 59 min 12 sec) 
Heartbeat CPU 0 instructions: 124000000 cycles: 79983103 heartbeat IPC: 1.23519 cumulative IPC: 1.36304 (Simulation time: 0 hr 59 min 39 sec) 
Heartbeat CPU 0 instructions: 125000001 cycles: 80665822 heartbeat IPC: 1.46473 cumulative IPC: 1.3643 (Simulation time: 1 hr 0 min 9 sec) 
Heartbeat CPU 0 instructions: 126000000 cycles: 81347042 heartbeat IPC: 1.46795 cumulative IPC: 1.36557 (Simulation time: 1 hr 0 min 35 sec) 
Heartbeat CPU 0 instructions: 127000003 cycles: 82031981 heartbeat IPC: 1.45999 cumulative IPC: 1.36672 (Simulation time: 1 hr 1 min 2 sec) 
Heartbeat CPU 0 instructions: 128000000 cycles: 82775073 heartbeat IPC: 1.34572 cumulative IPC: 1.36644 (Simulation time: 1 hr 1 min 31 sec) 
Heartbeat CPU 0 instructions: 129000002 cycles: 83588428 heartbeat IPC: 1.22948 cumulative IPC: 1.36452 (Simulation time: 1 hr 2 min 0 sec) 
Heartbeat CPU 0 instructions: 130000002 cycles: 84368730 heartbeat IPC: 1.28156 cumulative IPC: 1.36342 (Simulation time: 1 hr 2 min 31 sec) 
Heartbeat CPU 0 instructions: 131000003 cycles: 85050504 heartbeat IPC: 1.46676 cumulative IPC: 1.3646 (Simulation time: 1 hr 3 min 1 sec) 
Heartbeat CPU 0 instructions: 132000000 cycles: 85736879 heartbeat IPC: 1.45693 cumulative IPC: 1.36566 (Simulation time: 1 hr 3 min 29 sec) 
Heartbeat CPU 0 instructions: 133000003 cycles: 86420596 heartbeat IPC: 1.4626 cumulative IPC: 1.36675 (Simulation time: 1 hr 3 min 57 sec) 
Heartbeat CPU 0 instructions: 134000001 cycles: 87194686 heartbeat IPC: 1.29184 cumulative IPC: 1.36581 (Simulation time: 1 hr 4 min 25 sec) 
Heartbeat CPU 0 instructions: 135000001 cycles: 88007434 heartbeat IPC: 1.23039 cumulative IPC: 1.36404 (Simulation time: 1 hr 4 min 55 sec) 
Heartbeat CPU 0 instructions: 136000000 cycles: 88759261 heartbeat IPC: 1.33009 cumulative IPC: 1.36364 (Simulation time: 1 hr 5 min 31 sec) 
Heartbeat CPU 0 instructions: 137000003 cycles: 89442219 heartbeat IPC: 1.46422 cumulative IPC: 1.36471 (Simulation time: 1 hr 5 min 58 sec) 
Heartbeat CPU 0 instructions: 138000000 cycles: 90125389 heartbeat IPC: 1.46376 cumulative IPC: 1.36576 (Simulation time: 1 hr 6 min 25 sec) 
Heartbeat CPU 0 instructions: 139000002 cycles: 90811841 heartbeat IPC: 1.45677 cumulative IPC: 1.36672 (Simulation time: 1 hr 6 min 55 sec) 
Heartbeat CPU 0 instructions: 140000000 cycles: 91615191 heartbeat IPC: 1.24478 cumulative IPC: 1.36524 (Simulation time: 1 hr 7 min 29 sec) 
Heartbeat CPU 0 instructions: 141000003 cycles: 92422695 heartbeat IPC: 1.23839 cumulative IPC: 1.3637 (Simulation time: 1 hr 8 min 0 sec) 
Heartbeat CPU 0 instructions: 142000000 cycles: 93146553 heartbeat IPC: 1.38148 cumulative IPC: 1.36389 (Simulation time: 1 hr 8 min 28 sec) 
Heartbeat CPU 0 instructions: 143000001 cycles: 93828969 heartbeat IPC: 1.46538 cumulative IPC: 1.36491 (Simulation time: 1 hr 8 min 54 sec) 
Heartbeat CPU 0 instructions: 144000000 cycles: 94512053 heartbeat IPC: 1.46395 cumulative IPC: 1.36589 (Simulation time: 1 hr 9 min 20 sec) 
Heartbeat CPU 0 instructions: 145000001 cycles: 95218963 heartbeat IPC: 1.41461 cumulative IPC: 1.36639 (Simulation time: 1 hr 9 min 46 sec) 
Heartbeat CPU 0 instructions: 146000003 cycles: 96031190 heartbeat IPC: 1.23119 cumulative IPC: 1.36483 (Simulation time: 1 hr 10 min 17 sec) 
Heartbeat CPU 0 instructions: 147000001 cycles: 96841959 heartbeat IPC: 1.23339 cumulative IPC: 1.36333 (Simulation time: 1 hr 10 min 42 sec) 
Heartbeat CPU 0 instructions: 148000000 cycles: 97533675 heartbeat IPC: 1.44568 cumulative IPC: 1.36412 (Simulation time: 1 hr 11 min 5 sec) 
Heartbeat CPU 0 instructions: 149000002 cycles: 98216776 heartbeat IPC: 1.46392 cumulative IPC: 1.36506 (Simulation time: 1 hr 11 min 30 sec) 
Heartbeat CPU 0 instructions: 150000002 cycles: 98901517 heartbeat IPC: 1.46041 cumulative IPC: 1.36595 (Simulation time: 1 hr 11 min 54 sec) 
Finished CPU 0 instructions: 100000002 cycles: 73208910 cummulative IPC: 1.36595 (Simulation time: 1 hr 11 min 54 sec) 

ChampSim completed all CPUs

Region of Interest Statistics

CPU 0 cummulative IPC: 1.36595 instructions: 100000002 cycles: 73208910
LLC TOTAL     ACCESS:     631205  HIT:     301451  MISS:     329754
LLC LOAD      ACCESS:      36770  HIT:      24951  MISS:      11819
LLC RFO       ACCESS:     152051  HIT:      75848  MISS:      76203
LLC PREFETCH  ACCESS:     286685  HIT:      98833  MISS:     187852
LLC WRITEBACK ACCESS:     155699  HIT:     101819  MISS:      53880
OPTgen accesses: 4419
OPTgen hits: 3017
OPTgen hit rate: 68.2734


