
*** ChampSim Multicore Out-of-Order Simulator ***

Warmup Instructions: 50000000
Simulation Instructions: 100000000
Configuration: 2
Number of CPUs: 1
LLC sets: 2048
LLC ways: 16
Off-chip DRAM Channels: 1 Width: 64-bit Data Rate: 1600 MT/s

CPU 0 runs /datasets/cs240c-wi22-a00-public/data/Assignment2-gz/milc_409B.trace.gz
CPU 0 L1D next line prefetcher
CPU 0 L2C IP-based stride prefetcher
Initialize Hawkeye state
Heartbeat CPU 0 instructions: 1000002 cycles: 407040 heartbeat IPC: 2.45677 cumulative IPC: 2.45677 (Simulation time: 0 hr 0 min 29 sec) 
Heartbeat CPU 0 instructions: 2000002 cycles: 889868 heartbeat IPC: 2.07113 cumulative IPC: 2.24753 (Simulation time: 0 hr 1 min 2 sec) 
Heartbeat CPU 0 instructions: 3000003 cycles: 1672035 heartbeat IPC: 1.2785 cumulative IPC: 1.79422 (Simulation time: 0 hr 1 min 43 sec) 
Heartbeat CPU 0 instructions: 4000000 cycles: 2454292 heartbeat IPC: 1.27835 cumulative IPC: 1.6298 (Simulation time: 0 hr 2 min 23 sec) 
Heartbeat CPU 0 instructions: 5000000 cycles: 3135412 heartbeat IPC: 1.46817 cumulative IPC: 1.59469 (Simulation time: 0 hr 3 min 1 sec) 
Heartbeat CPU 0 instructions: 6000003 cycles: 3679804 heartbeat IPC: 1.83692 cumulative IPC: 1.63052 (Simulation time: 0 hr 3 min 36 sec) 
Heartbeat CPU 0 instructions: 7000002 cycles: 4224110 heartbeat IPC: 1.8372 cumulative IPC: 1.65715 (Simulation time: 0 hr 4 min 7 sec) 
Heartbeat CPU 0 instructions: 8000000 cycles: 4768518 heartbeat IPC: 1.83685 cumulative IPC: 1.67767 (Simulation time: 0 hr 4 min 40 sec) 
Heartbeat CPU 0 instructions: 9000003 cycles: 5312844 heartbeat IPC: 1.83714 cumulative IPC: 1.69401 (Simulation time: 0 hr 5 min 12 sec) 
Heartbeat CPU 0 instructions: 10000000 cycles: 5857232 heartbeat IPC: 1.83692 cumulative IPC: 1.70729 (Simulation time: 0 hr 5 min 42 sec) 
Heartbeat CPU 0 instructions: 11000002 cycles: 6401582 heartbeat IPC: 1.83706 cumulative IPC: 1.71833 (Simulation time: 0 hr 6 min 12 sec) 
Heartbeat CPU 0 instructions: 12000000 cycles: 6945917 heartbeat IPC: 1.8371 cumulative IPC: 1.72763 (Simulation time: 0 hr 6 min 46 sec) 
Heartbeat CPU 0 instructions: 13000000 cycles: 7490305 heartbeat IPC: 1.83693 cumulative IPC: 1.73558 (Simulation time: 0 hr 7 min 18 sec) 
Heartbeat CPU 0 instructions: 14000002 cycles: 8034670 heartbeat IPC: 1.83701 cumulative IPC: 1.74245 (Simulation time: 0 hr 7 min 49 sec) 
Heartbeat CPU 0 instructions: 15000001 cycles: 8578997 heartbeat IPC: 1.83713 cumulative IPC: 1.74846 (Simulation time: 0 hr 8 min 20 sec) 
Heartbeat CPU 0 instructions: 16000000 cycles: 9123371 heartbeat IPC: 1.83697 cumulative IPC: 1.75374 (Simulation time: 0 hr 8 min 51 sec) 
Heartbeat CPU 0 instructions: 17000002 cycles: 9667737 heartbeat IPC: 1.837 cumulative IPC: 1.75843 (Simulation time: 0 hr 9 min 23 sec) 
Heartbeat CPU 0 instructions: 18000000 cycles: 10212107 heartbeat IPC: 1.83698 cumulative IPC: 1.76261 (Simulation time: 0 hr 9 min 55 sec) 
Heartbeat CPU 0 instructions: 19000003 cycles: 10756427 heartbeat IPC: 1.83716 cumulative IPC: 1.76639 (Simulation time: 0 hr 10 min 27 sec) 
Heartbeat CPU 0 instructions: 20000000 cycles: 11300831 heartbeat IPC: 1.83687 cumulative IPC: 1.76978 (Simulation time: 0 hr 11 min 0 sec) 
Heartbeat CPU 0 instructions: 21000001 cycles: 11845161 heartbeat IPC: 1.83712 cumulative IPC: 1.77288 (Simulation time: 0 hr 11 min 32 sec) 
Heartbeat CPU 0 instructions: 22000003 cycles: 12389528 heartbeat IPC: 1.837 cumulative IPC: 1.77569 (Simulation time: 0 hr 12 min 5 sec) 
Heartbeat CPU 0 instructions: 23000002 cycles: 12933913 heartbeat IPC: 1.83693 cumulative IPC: 1.77827 (Simulation time: 0 hr 12 min 37 sec) 
Heartbeat CPU 0 instructions: 24000000 cycles: 13478220 heartbeat IPC: 1.83719 cumulative IPC: 1.78065 (Simulation time: 0 hr 13 min 14 sec) 
Heartbeat CPU 0 instructions: 25000000 cycles: 14022616 heartbeat IPC: 1.8369 cumulative IPC: 1.78283 (Simulation time: 0 hr 13 min 46 sec) 
Heartbeat CPU 0 instructions: 26000000 cycles: 14566990 heartbeat IPC: 1.83697 cumulative IPC: 1.78486 (Simulation time: 0 hr 14 min 18 sec) 
Heartbeat CPU 0 instructions: 27000002 cycles: 15111312 heartbeat IPC: 1.83715 cumulative IPC: 1.78674 (Simulation time: 0 hr 14 min 52 sec) 
Heartbeat CPU 0 instructions: 28000000 cycles: 15655447 heartbeat IPC: 1.83778 cumulative IPC: 1.78851 (Simulation time: 0 hr 15 min 28 sec) 
Heartbeat CPU 0 instructions: 29000000 cycles: 16196637 heartbeat IPC: 1.84778 cumulative IPC: 1.7905 (Simulation time: 0 hr 16 min 2 sec) 
Heartbeat CPU 0 instructions: 30000000 cycles: 16737802 heartbeat IPC: 1.84787 cumulative IPC: 1.79235 (Simulation time: 0 hr 16 min 37 sec) 
Heartbeat CPU 0 instructions: 31000003 cycles: 17278973 heartbeat IPC: 1.84785 cumulative IPC: 1.79409 (Simulation time: 0 hr 17 min 9 sec) 
Heartbeat CPU 0 instructions: 32000000 cycles: 17820133 heartbeat IPC: 1.84788 cumulative IPC: 1.79572 (Simulation time: 0 hr 17 min 42 sec) 
Heartbeat CPU 0 instructions: 33000000 cycles: 18361311 heartbeat IPC: 1.84782 cumulative IPC: 1.79726 (Simulation time: 0 hr 18 min 14 sec) 
Heartbeat CPU 0 instructions: 34000000 cycles: 18902453 heartbeat IPC: 1.84794 cumulative IPC: 1.79871 (Simulation time: 0 hr 18 min 49 sec) 
Heartbeat CPU 0 instructions: 35000000 cycles: 19443596 heartbeat IPC: 1.84794 cumulative IPC: 1.80008 (Simulation time: 0 hr 19 min 21 sec) 
Heartbeat CPU 0 instructions: 36000000 cycles: 19984730 heartbeat IPC: 1.84797 cumulative IPC: 1.80138 (Simulation time: 0 hr 19 min 55 sec) 
Heartbeat CPU 0 instructions: 37000000 cycles: 20525942 heartbeat IPC: 1.8477 cumulative IPC: 1.8026 (Simulation time: 0 hr 20 min 28 sec) 
Heartbeat CPU 0 instructions: 38000001 cycles: 21067089 heartbeat IPC: 1.84793 cumulative IPC: 1.80376 (Simulation time: 0 hr 21 min 1 sec) 
Heartbeat CPU 0 instructions: 39000001 cycles: 21608245 heartbeat IPC: 1.8479 cumulative IPC: 1.80487 (Simulation time: 0 hr 21 min 32 sec) 
Heartbeat CPU 0 instructions: 40000000 cycles: 22149433 heartbeat IPC: 1.84778 cumulative IPC: 1.80592 (Simulation time: 0 hr 22 min 6 sec) 
Heartbeat CPU 0 instructions: 41000002 cycles: 22690598 heartbeat IPC: 1.84787 cumulative IPC: 1.80692 (Simulation time: 0 hr 22 min 39 sec) 
Heartbeat CPU 0 instructions: 42000001 cycles: 23231759 heartbeat IPC: 1.84788 cumulative IPC: 1.80787 (Simulation time: 0 hr 23 min 12 sec) 
Heartbeat CPU 0 instructions: 43000000 cycles: 23772902 heartbeat IPC: 1.84794 cumulative IPC: 1.80878 (Simulation time: 0 hr 23 min 46 sec) 
Heartbeat CPU 0 instructions: 44000000 cycles: 24314028 heartbeat IPC: 1.848 cumulative IPC: 1.80965 (Simulation time: 0 hr 24 min 18 sec) 
Heartbeat CPU 0 instructions: 45000001 cycles: 24855217 heartbeat IPC: 1.84779 cumulative IPC: 1.81049 (Simulation time: 0 hr 24 min 51 sec) 
Heartbeat CPU 0 instructions: 46000000 cycles: 25396380 heartbeat IPC: 1.84787 cumulative IPC: 1.81128 (Simulation time: 0 hr 25 min 24 sec) 
Heartbeat CPU 0 instructions: 47000002 cycles: 25937547 heartbeat IPC: 1.84786 cumulative IPC: 1.81204 (Simulation time: 0 hr 26 min 0 sec) 
Heartbeat CPU 0 instructions: 48000000 cycles: 26478711 heartbeat IPC: 1.84786 cumulative IPC: 1.81278 (Simulation time: 0 hr 26 min 34 sec) 
Heartbeat CPU 0 instructions: 49000002 cycles: 27019890 heartbeat IPC: 1.84782 cumulative IPC: 1.81348 (Simulation time: 0 hr 27 min 7 sec) 
Heartbeat CPU 0 instructions: 50000001 cycles: 27561033 heartbeat IPC: 1.84794 cumulative IPC: 1.81416 (Simulation time: 0 hr 27 min 39 sec) 

Warmup complete CPU 0 instructions: 50000001 cycles: 27561033 (Simulation time: 0 hr 27 min 39 sec) 

Heartbeat CPU 0 instructions: 51000002 cycles: 29218629 heartbeat IPC: 0.603284 cumulative IPC: 0.603284 (Simulation time: 0 hr 28 min 15 sec) 
Heartbeat CPU 0 instructions: 52000000 cycles: 31141887 heartbeat IPC: 0.51995 cumulative IPC: 0.558526 (Simulation time: 0 hr 28 min 53 sec) 
Heartbeat CPU 0 instructions: 53000001 cycles: 33164376 heartbeat IPC: 0.494441 cumulative IPC: 0.535395 (Simulation time: 0 hr 29 min 33 sec) 
Heartbeat CPU 0 instructions: 54000001 cycles: 35263773 heartbeat IPC: 0.476327 cumulative IPC: 0.519296 (Simulation time: 0 hr 30 min 13 sec) 
Heartbeat CPU 0 instructions: 55000002 cycles: 37562590 heartbeat IPC: 0.435007 cumulative IPC: 0.499922 (Simulation time: 0 hr 30 min 54 sec) 
Heartbeat CPU 0 instructions: 56000000 cycles: 39892210 heartbeat IPC: 0.429254 cumulative IPC: 0.486571 (Simulation time: 0 hr 31 min 35 sec) 
Heartbeat CPU 0 instructions: 57000000 cycles: 42245113 heartbeat IPC: 0.425007 cumulative IPC: 0.476707 (Simulation time: 0 hr 32 min 20 sec) 
Heartbeat CPU 0 instructions: 58000001 cycles: 44533330 heartbeat IPC: 0.437022 cumulative IPC: 0.471356 (Simulation time: 0 hr 33 min 1 sec) 
Heartbeat CPU 0 instructions: 59000001 cycles: 46335516 heartbeat IPC: 0.554882 cumulative IPC: 0.479374 (Simulation time: 0 hr 33 min 36 sec) 
Heartbeat CPU 0 instructions: 60000000 cycles: 48002363 heartbeat IPC: 0.599934 cumulative IPC: 0.489205 (Simulation time: 0 hr 34 min 13 sec) 
Heartbeat CPU 0 instructions: 61000000 cycles: 49665772 heartbeat IPC: 0.601175 cumulative IPC: 0.497631 (Simulation time: 0 hr 34 min 50 sec) 
Heartbeat CPU 0 instructions: 62000000 cycles: 51328827 heartbeat IPC: 0.601303 cumulative IPC: 0.504885 (Simulation time: 0 hr 35 min 27 sec) 
Heartbeat CPU 0 instructions: 63000003 cycles: 52995686 heartbeat IPC: 0.599933 cumulative IPC: 0.511114 (Simulation time: 0 hr 36 min 2 sec) 
Heartbeat CPU 0 instructions: 64000000 cycles: 54658288 heartbeat IPC: 0.601465 cumulative IPC: 0.516657 (Simulation time: 0 hr 36 min 37 sec) 
Heartbeat CPU 0 instructions: 65000002 cycles: 56330912 heartbeat IPC: 0.597864 cumulative IPC: 0.521379 (Simulation time: 0 hr 37 min 15 sec) 
Heartbeat CPU 0 instructions: 66000002 cycles: 57995313 heartbeat IPC: 0.600817 cumulative IPC: 0.525723 (Simulation time: 0 hr 37 min 53 sec) 
Heartbeat CPU 0 instructions: 67000001 cycles: 59664755 heartbeat IPC: 0.599002 cumulative IPC: 0.529534 (Simulation time: 0 hr 38 min 32 sec) 
Heartbeat CPU 0 instructions: 68000000 cycles: 61332587 heartbeat IPC: 0.59958 cumulative IPC: 0.532993 (Simulation time: 0 hr 39 min 11 sec) 
Heartbeat CPU 0 instructions: 69000000 cycles: 62997702 heartbeat IPC: 0.600559 cumulative IPC: 0.536168 (Simulation time: 0 hr 39 min 46 sec) 
Heartbeat CPU 0 instructions: 70000000 cycles: 64668471 heartbeat IPC: 0.598527 cumulative IPC: 0.538975 (Simulation time: 0 hr 40 min 22 sec) 
Heartbeat CPU 0 instructions: 71000002 cycles: 66337316 heartbeat IPC: 0.599218 cumulative IPC: 0.541568 (Simulation time: 0 hr 40 min 58 sec) 
Heartbeat CPU 0 instructions: 72000000 cycles: 68003986 heartbeat IPC: 0.599998 cumulative IPC: 0.543976 (Simulation time: 0 hr 41 min 33 sec) 
Heartbeat CPU 0 instructions: 73000003 cycles: 69669145 heartbeat IPC: 0.600545 cumulative IPC: 0.546213 (Simulation time: 0 hr 42 min 10 sec) 
Heartbeat CPU 0 instructions: 74000002 cycles: 71338275 heartbeat IPC: 0.599114 cumulative IPC: 0.54823 (Simulation time: 0 hr 42 min 46 sec) 
Heartbeat CPU 0 instructions: 75000002 cycles: 73004298 heartbeat IPC: 0.600232 cumulative IPC: 0.550137 (Simulation time: 0 hr 43 min 20 sec) 
Heartbeat CPU 0 instructions: 76000000 cycles: 74671352 heartbeat IPC: 0.599859 cumulative IPC: 0.551896 (Simulation time: 0 hr 43 min 55 sec) 
Heartbeat CPU 0 instructions: 77000003 cycles: 76340832 heartbeat IPC: 0.598991 cumulative IPC: 0.553508 (Simulation time: 0 hr 44 min 30 sec) 
Heartbeat CPU 0 instructions: 78000000 cycles: 78004433 heartbeat IPC: 0.601104 cumulative IPC: 0.555078 (Simulation time: 0 hr 45 min 8 sec) 
Heartbeat CPU 0 instructions: 79000000 cycles: 79670235 heartbeat IPC: 0.600311 cumulative IPC: 0.556524 (Simulation time: 0 hr 45 min 44 sec) 
Heartbeat CPU 0 instructions: 80000000 cycles: 81333787 heartbeat IPC: 0.601123 cumulative IPC: 0.557903 (Simulation time: 0 hr 46 min 18 sec) 
Heartbeat CPU 0 instructions: 81000000 cycles: 82997578 heartbeat IPC: 0.601037 cumulative IPC: 0.559198 (Simulation time: 0 hr 46 min 53 sec) 
Heartbeat CPU 0 instructions: 82000002 cycles: 84661932 heartbeat IPC: 0.600835 cumulative IPC: 0.560412 (Simulation time: 0 hr 47 min 33 sec) 
Heartbeat CPU 0 instructions: 83000003 cycles: 86324570 heartbeat IPC: 0.601454 cumulative IPC: 0.561573 (Simulation time: 0 hr 48 min 9 sec) 
Heartbeat CPU 0 instructions: 84000000 cycles: 87982647 heartbeat IPC: 0.603106 cumulative IPC: 0.562713 (Simulation time: 0 hr 48 min 49 sec) 
Heartbeat CPU 0 instructions: 85000001 cycles: 89643475 heartbeat IPC: 0.60211 cumulative IPC: 0.563766 (Simulation time: 0 hr 49 min 30 sec) 
Heartbeat CPU 0 instructions: 86000002 cycles: 91302314 heartbeat IPC: 0.602832 cumulative IPC: 0.564783 (Simulation time: 0 hr 50 min 11 sec) 
Heartbeat CPU 0 instructions: 87000003 cycles: 92964840 heartbeat IPC: 0.601495 cumulative IPC: 0.565716 (Simulation time: 0 hr 50 min 48 sec) 
Heartbeat CPU 0 instructions: 88000000 cycles: 94623984 heartbeat IPC: 0.602719 cumulative IPC: 0.566632 (Simulation time: 0 hr 51 min 22 sec) 
Heartbeat CPU 0 instructions: 89000001 cycles: 96287229 heartbeat IPC: 0.601235 cumulative IPC: 0.567469 (Simulation time: 0 hr 52 min 0 sec) 
Heartbeat CPU 0 instructions: 90000002 cycles: 97947859 heartbeat IPC: 0.602182 cumulative IPC: 0.568288 (Simulation time: 0 hr 52 min 42 sec) 
Heartbeat CPU 0 instructions: 91000000 cycles: 99608619 heartbeat IPC: 0.602133 cumulative IPC: 0.569068 (Simulation time: 0 hr 53 min 18 sec) 
Heartbeat CPU 0 instructions: 92000000 cycles: 101265996 heartbeat IPC: 0.603363 cumulative IPC: 0.569839 (Simulation time: 0 hr 53 min 54 sec) 
Heartbeat CPU 0 instructions: 93000003 cycles: 102924344 heartbeat IPC: 0.603012 cumulative IPC: 0.570569 (Simulation time: 0 hr 54 min 30 sec) 
Heartbeat CPU 0 instructions: 94000002 cycles: 104579318 heartbeat IPC: 0.604239 cumulative IPC: 0.571293 (Simulation time: 0 hr 55 min 7 sec) 
Heartbeat CPU 0 instructions: 95000003 cycles: 106229860 heartbeat IPC: 0.605862 cumulative IPC: 0.572018 (Simulation time: 0 hr 55 min 45 sec) 
Heartbeat CPU 0 instructions: 96000000 cycles: 107882641 heartbeat IPC: 0.605039 cumulative IPC: 0.572698 (Simulation time: 0 hr 56 min 24 sec) 
Heartbeat CPU 0 instructions: 97000001 cycles: 109538990 heartbeat IPC: 0.603738 cumulative IPC: 0.573325 (Simulation time: 0 hr 56 min 58 sec) 
Heartbeat CPU 0 instructions: 98000002 cycles: 111190181 heartbeat IPC: 0.605624 cumulative IPC: 0.573963 (Simulation time: 0 hr 57 min 33 sec) 
Heartbeat CPU 0 instructions: 99000003 cycles: 112841567 heartbeat IPC: 0.605553 cumulative IPC: 0.574574 (Simulation time: 0 hr 58 min 10 sec) 
Heartbeat CPU 0 instructions: 100000000 cycles: 114495866 heartbeat IPC: 0.604484 cumulative IPC: 0.575143 (Simulation time: 0 hr 58 min 48 sec) 
Heartbeat CPU 0 instructions: 101000001 cycles: 116147148 heartbeat IPC: 0.605591 cumulative IPC: 0.575711 (Simulation time: 0 hr 59 min 23 sec) 
Heartbeat CPU 0 instructions: 102000002 cycles: 117796203 heartbeat IPC: 0.606409 cumulative IPC: 0.576272 (Simulation time: 1 hr 0 min 2 sec) 
Heartbeat CPU 0 instructions: 103000000 cycles: 119449907 heartbeat IPC: 0.604702 cumulative IPC: 0.576784 (Simulation time: 1 hr 0 min 39 sec) 
Heartbeat CPU 0 instructions: 104000000 cycles: 121104574 heartbeat IPC: 0.604351 cumulative IPC: 0.577271 (Simulation time: 1 hr 1 min 15 sec) 
Heartbeat CPU 0 instructions: 105000003 cycles: 123097310 heartbeat IPC: 0.501824 cumulative IPC: 0.575698 (Simulation time: 1 hr 1 min 57 sec) 
Heartbeat CPU 0 instructions: 106000003 cycles: 126952172 heartbeat IPC: 0.259413 cumulative IPC: 0.563431 (Simulation time: 1 hr 2 min 51 sec) 
Heartbeat CPU 0 instructions: 107000000 cycles: 128703765 heartbeat IPC: 0.570907 cumulative IPC: 0.56356 (Simulation time: 1 hr 3 min 21 sec) 
Heartbeat CPU 0 instructions: 108000000 cycles: 130433893 heartbeat IPC: 0.577992 cumulative IPC: 0.563803 (Simulation time: 1 hr 3 min 51 sec) 
Heartbeat CPU 0 instructions: 109000001 cycles: 132154981 heartbeat IPC: 0.581028 cumulative IPC: 0.564086 (Simulation time: 1 hr 4 min 22 sec) 
Heartbeat CPU 0 instructions: 110000001 cycles: 133874934 heartbeat IPC: 0.581411 cumulative IPC: 0.564366 (Simulation time: 1 hr 4 min 52 sec) 
Heartbeat CPU 0 instructions: 111000000 cycles: 135604995 heartbeat IPC: 0.578014 cumulative IPC: 0.564585 (Simulation time: 1 hr 5 min 22 sec) 
Heartbeat CPU 0 instructions: 112000000 cycles: 137368702 heartbeat IPC: 0.566988 cumulative IPC: 0.564624 (Simulation time: 1 hr 5 min 52 sec) 
Heartbeat CPU 0 instructions: 113000003 cycles: 139141950 heartbeat IPC: 0.563939 cumulative IPC: 0.564613 (Simulation time: 1 hr 6 min 22 sec) 
Heartbeat CPU 0 instructions: 114000003 cycles: 140915298 heartbeat IPC: 0.563905 cumulative IPC: 0.564602 (Simulation time: 1 hr 6 min 54 sec) 
Heartbeat CPU 0 instructions: 115000001 cycles: 142682651 heartbeat IPC: 0.565817 cumulative IPC: 0.56462 (Simulation time: 1 hr 7 min 22 sec) 
Heartbeat CPU 0 instructions: 116000000 cycles: 144458531 heartbeat IPC: 0.563101 cumulative IPC: 0.564597 (Simulation time: 1 hr 7 min 52 sec) 
Heartbeat CPU 0 instructions: 117000001 cycles: 146233903 heartbeat IPC: 0.563263 cumulative IPC: 0.564577 (Simulation time: 1 hr 8 min 23 sec) 
Heartbeat CPU 0 instructions: 118000003 cycles: 148009484 heartbeat IPC: 0.563197 cumulative IPC: 0.564557 (Simulation time: 1 hr 8 min 55 sec) 
Heartbeat CPU 0 instructions: 119000001 cycles: 149777917 heartbeat IPC: 0.565471 cumulative IPC: 0.56457 (Simulation time: 1 hr 9 min 23 sec) 
Heartbeat CPU 0 instructions: 120000000 cycles: 151545460 heartbeat IPC: 0.565757 cumulative IPC: 0.564587 (Simulation time: 1 hr 9 min 52 sec) 
Heartbeat CPU 0 instructions: 121000003 cycles: 153315710 heartbeat IPC: 0.564894 cumulative IPC: 0.564591 (Simulation time: 1 hr 10 min 20 sec) 
Heartbeat CPU 0 instructions: 122000001 cycles: 155089723 heartbeat IPC: 0.563693 cumulative IPC: 0.564579 (Simulation time: 1 hr 10 min 49 sec) 
Heartbeat CPU 0 instructions: 123000003 cycles: 156865313 heartbeat IPC: 0.563194 cumulative IPC: 0.56456 (Simulation time: 1 hr 11 min 16 sec) 
Heartbeat CPU 0 instructions: 124000000 cycles: 158634030 heartbeat IPC: 0.56538 cumulative IPC: 0.564571 (Simulation time: 1 hr 11 min 42 sec) 
Heartbeat CPU 0 instructions: 125000003 cycles: 160405640 heartbeat IPC: 0.56446 cumulative IPC: 0.564569 (Simulation time: 1 hr 12 min 7 sec) 
Heartbeat CPU 0 instructions: 126000000 cycles: 162177763 heartbeat IPC: 0.564293 cumulative IPC: 0.564566 (Simulation time: 1 hr 12 min 32 sec) 
Heartbeat CPU 0 instructions: 127000001 cycles: 163953099 heartbeat IPC: 0.563274 cumulative IPC: 0.564549 (Simulation time: 1 hr 12 min 58 sec) 
Heartbeat CPU 0 instructions: 128000000 cycles: 165726252 heartbeat IPC: 0.563967 cumulative IPC: 0.564542 (Simulation time: 1 hr 13 min 23 sec) 
Heartbeat CPU 0 instructions: 129000001 cycles: 167502867 heartbeat IPC: 0.562869 cumulative IPC: 0.56452 (Simulation time: 1 hr 13 min 49 sec) 
Heartbeat CPU 0 instructions: 130000000 cycles: 169281168 heartbeat IPC: 0.562334 cumulative IPC: 0.564493 (Simulation time: 1 hr 14 min 18 sec) 
Heartbeat CPU 0 instructions: 131000001 cycles: 171056043 heartbeat IPC: 0.563421 cumulative IPC: 0.56448 (Simulation time: 1 hr 14 min 42 sec) 
Heartbeat CPU 0 instructions: 132000000 cycles: 172829643 heartbeat IPC: 0.563824 cumulative IPC: 0.564472 (Simulation time: 1 hr 15 min 8 sec) 
Heartbeat CPU 0 instructions: 133000003 cycles: 174604832 heartbeat IPC: 0.563322 cumulative IPC: 0.564458 (Simulation time: 1 hr 15 min 35 sec) 
Heartbeat CPU 0 instructions: 134000001 cycles: 176375602 heartbeat IPC: 0.564725 cumulative IPC: 0.564461 (Simulation time: 1 hr 15 min 59 sec) 
Heartbeat CPU 0 instructions: 135000003 cycles: 178152665 heartbeat IPC: 0.562727 cumulative IPC: 0.56444 (Simulation time: 1 hr 16 min 25 sec) 
Heartbeat CPU 0 instructions: 136000000 cycles: 179918473 heartbeat IPC: 0.566311 cumulative IPC: 0.564462 (Simulation time: 1 hr 16 min 49 sec) 
Heartbeat CPU 0 instructions: 137000001 cycles: 181124491 heartbeat IPC: 0.829176 cumulative IPC: 0.566541 (Simulation time: 1 hr 17 min 16 sec) 
Heartbeat CPU 0 instructions: 138000000 cycles: 182811689 heartbeat IPC: 0.592698 cumulative IPC: 0.566825 (Simulation time: 1 hr 17 min 47 sec) 
Heartbeat CPU 0 instructions: 139000002 cycles: 186051116 heartbeat IPC: 0.308697 cumulative IPC: 0.561549 (Simulation time: 1 hr 18 min 25 sec) 
Heartbeat CPU 0 instructions: 140000000 cycles: 189225860 heartbeat IPC: 0.314985 cumulative IPC: 0.556707 (Simulation time: 1 hr 18 min 59 sec) 
Heartbeat CPU 0 instructions: 141000003 cycles: 192710903 heartbeat IPC: 0.286941 cumulative IPC: 0.551015 (Simulation time: 1 hr 19 min 36 sec) 
Heartbeat CPU 0 instructions: 142000003 cycles: 195228698 heartbeat IPC: 0.397173 cumulative IPC: 0.548705 (Simulation time: 1 hr 20 min 2 sec) 
Heartbeat CPU 0 instructions: 143000001 cycles: 197030767 heartbeat IPC: 0.554917 cumulative IPC: 0.548771 (Simulation time: 1 hr 20 min 23 sec) 
Heartbeat CPU 0 instructions: 144000000 cycles: 198831111 heartbeat IPC: 0.555449 cumulative IPC: 0.548841 (Simulation time: 1 hr 20 min 44 sec) 
Heartbeat CPU 0 instructions: 145000001 cycles: 200627269 heartbeat IPC: 0.556744 cumulative IPC: 0.548923 (Simulation time: 1 hr 21 min 3 sec) 
Heartbeat CPU 0 instructions: 146000003 cycles: 202418113 heartbeat IPC: 0.558397 cumulative IPC: 0.54902 (Simulation time: 1 hr 21 min 23 sec) 
Heartbeat CPU 0 instructions: 147000003 cycles: 204211121 heartbeat IPC: 0.557722 cumulative IPC: 0.549108 (Simulation time: 1 hr 21 min 41 sec) 
Heartbeat CPU 0 instructions: 148000000 cycles: 206009676 heartbeat IPC: 0.556 cumulative IPC: 0.549178 (Simulation time: 1 hr 21 min 59 sec) 
Heartbeat CPU 0 instructions: 149000003 cycles: 207807395 heartbeat IPC: 0.556262 cumulative IPC: 0.549248 (Simulation time: 1 hr 22 min 17 sec) 
Heartbeat CPU 0 instructions: 150000003 cycles: 209606567 heartbeat IPC: 0.555811 cumulative IPC: 0.549313 (Simulation time: 1 hr 22 min 34 sec) 
Finished CPU 0 instructions: 100000002 cycles: 182045534 cummulative IPC: 0.549313 (Simulation time: 1 hr 22 min 34 sec) 

ChampSim completed all CPUs

Region of Interest Statistics

CPU 0 cummulative IPC: 0.549313 instructions: 100000002 cycles: 182045534
LLC TOTAL     ACCESS:    3966271  HIT:     310296  MISS:    3655975
LLC LOAD      ACCESS:    1062200  HIT:       8509  MISS:    1053691
LLC RFO       ACCESS:     534380  HIT:      54595  MISS:     479785
LLC PREFETCH  ACCESS:    1386950  HIT:      36925  MISS:    1350025
LLC WRITEBACK ACCESS:     982741  HIT:     210267  MISS:     772474
OPTgen accesses: 32586
OPTgen hits: 900
OPTgen hit rate: 2.76192


