
*** ChampSim Multicore Out-of-Order Simulator ***

Warmup Instructions: 50000000
Simulation Instructions: 100000000
Configuration: 2
Number of CPUs: 1
LLC sets: 2048
LLC ways: 16
Off-chip DRAM Channels: 1 Width: 64-bit Data Rate: 1600 MT/s

CPU 0 runs /datasets/cs240c-wi22-a00-public/data/Assignment2-gz/astar_163B.trace.gz
CPU 0 L1D next line prefetcher
CPU 0 L2C IP-based stride prefetcher
Initialize Hawkeye state
Heartbeat CPU 0 instructions: 1000002 cycles: 531212 heartbeat IPC: 1.88249 cumulative IPC: 1.88249 (Simulation time: 0 hr 0 min 33 sec) 
Heartbeat CPU 0 instructions: 2000003 cycles: 1060827 heartbeat IPC: 1.88817 cumulative IPC: 1.88532 (Simulation time: 0 hr 1 min 7 sec) 
Heartbeat CPU 0 instructions: 3000003 cycles: 1590862 heartbeat IPC: 1.88667 cumulative IPC: 1.88577 (Simulation time: 0 hr 1 min 39 sec) 
Heartbeat CPU 0 instructions: 4000000 cycles: 2120964 heartbeat IPC: 1.88642 cumulative IPC: 1.88593 (Simulation time: 0 hr 2 min 14 sec) 
Heartbeat CPU 0 instructions: 5000000 cycles: 2652877 heartbeat IPC: 1.88001 cumulative IPC: 1.88475 (Simulation time: 0 hr 2 min 49 sec) 
Heartbeat CPU 0 instructions: 6000002 cycles: 3181392 heartbeat IPC: 1.8921 cumulative IPC: 1.88597 (Simulation time: 0 hr 3 min 20 sec) 
Heartbeat CPU 0 instructions: 7000003 cycles: 3710906 heartbeat IPC: 1.88853 cumulative IPC: 1.88633 (Simulation time: 0 hr 3 min 51 sec) 
Heartbeat CPU 0 instructions: 8000000 cycles: 4240188 heartbeat IPC: 1.88935 cumulative IPC: 1.88671 (Simulation time: 0 hr 4 min 23 sec) 
Heartbeat CPU 0 instructions: 9000000 cycles: 4771195 heartbeat IPC: 1.88321 cumulative IPC: 1.88632 (Simulation time: 0 hr 4 min 55 sec) 
Heartbeat CPU 0 instructions: 10000001 cycles: 5301295 heartbeat IPC: 1.88644 cumulative IPC: 1.88633 (Simulation time: 0 hr 5 min 25 sec) 
Heartbeat CPU 0 instructions: 11000003 cycles: 5830347 heartbeat IPC: 1.89018 cumulative IPC: 1.88668 (Simulation time: 0 hr 5 min 57 sec) 
Heartbeat CPU 0 instructions: 12000000 cycles: 6359091 heartbeat IPC: 1.89127 cumulative IPC: 1.88706 (Simulation time: 0 hr 6 min 30 sec) 
Heartbeat CPU 0 instructions: 13000002 cycles: 6888934 heartbeat IPC: 1.88736 cumulative IPC: 1.88708 (Simulation time: 0 hr 7 min 5 sec) 
Heartbeat CPU 0 instructions: 14000000 cycles: 7419063 heartbeat IPC: 1.88633 cumulative IPC: 1.88703 (Simulation time: 0 hr 7 min 38 sec) 
Heartbeat CPU 0 instructions: 15000000 cycles: 7949447 heartbeat IPC: 1.88543 cumulative IPC: 1.88692 (Simulation time: 0 hr 8 min 13 sec) 
Heartbeat CPU 0 instructions: 16000000 cycles: 8480306 heartbeat IPC: 1.88374 cumulative IPC: 1.88672 (Simulation time: 0 hr 8 min 45 sec) 
Heartbeat CPU 0 instructions: 17000002 cycles: 9009903 heartbeat IPC: 1.88823 cumulative IPC: 1.88681 (Simulation time: 0 hr 9 min 17 sec) 
Heartbeat CPU 0 instructions: 18000003 cycles: 9539330 heartbeat IPC: 1.88884 cumulative IPC: 1.88693 (Simulation time: 0 hr 9 min 50 sec) 
Heartbeat CPU 0 instructions: 19000003 cycles: 10069871 heartbeat IPC: 1.88487 cumulative IPC: 1.88682 (Simulation time: 0 hr 10 min 22 sec) 
Heartbeat CPU 0 instructions: 20000000 cycles: 10600177 heartbeat IPC: 1.8857 cumulative IPC: 1.88676 (Simulation time: 0 hr 10 min 54 sec) 
Heartbeat CPU 0 instructions: 21000003 cycles: 11130288 heartbeat IPC: 1.8864 cumulative IPC: 1.88674 (Simulation time: 0 hr 11 min 24 sec) 
Heartbeat CPU 0 instructions: 22000001 cycles: 11661879 heartbeat IPC: 1.88114 cumulative IPC: 1.88649 (Simulation time: 0 hr 11 min 56 sec) 
Heartbeat CPU 0 instructions: 23000001 cycles: 12192029 heartbeat IPC: 1.88626 cumulative IPC: 1.88648 (Simulation time: 0 hr 12 min 28 sec) 
Heartbeat CPU 0 instructions: 24000000 cycles: 12722892 heartbeat IPC: 1.88372 cumulative IPC: 1.88636 (Simulation time: 0 hr 13 min 0 sec) 
Heartbeat CPU 0 instructions: 25000003 cycles: 13223702 heartbeat IPC: 1.99677 cumulative IPC: 1.89054 (Simulation time: 0 hr 13 min 31 sec) 
Heartbeat CPU 0 instructions: 26000002 cycles: 13727991 heartbeat IPC: 1.98299 cumulative IPC: 1.89394 (Simulation time: 0 hr 14 min 5 sec) 
Heartbeat CPU 0 instructions: 27000000 cycles: 14239986 heartbeat IPC: 1.95314 cumulative IPC: 1.89607 (Simulation time: 0 hr 14 min 37 sec) 
Heartbeat CPU 0 instructions: 28000000 cycles: 14763498 heartbeat IPC: 1.91018 cumulative IPC: 1.89657 (Simulation time: 0 hr 15 min 10 sec) 
Heartbeat CPU 0 instructions: 29000003 cycles: 15291396 heartbeat IPC: 1.89431 cumulative IPC: 1.89649 (Simulation time: 0 hr 15 min 42 sec) 
Heartbeat CPU 0 instructions: 30000000 cycles: 15814769 heartbeat IPC: 1.91068 cumulative IPC: 1.89696 (Simulation time: 0 hr 16 min 14 sec) 
Heartbeat CPU 0 instructions: 31000001 cycles: 16335411 heartbeat IPC: 1.92071 cumulative IPC: 1.89772 (Simulation time: 0 hr 16 min 45 sec) 
Heartbeat CPU 0 instructions: 32000000 cycles: 16862694 heartbeat IPC: 1.89651 cumulative IPC: 1.89768 (Simulation time: 0 hr 17 min 16 sec) 
Heartbeat CPU 0 instructions: 33000001 cycles: 17383147 heartbeat IPC: 1.9214 cumulative IPC: 1.89839 (Simulation time: 0 hr 17 min 48 sec) 
Heartbeat CPU 0 instructions: 34000001 cycles: 17905997 heartbeat IPC: 1.91259 cumulative IPC: 1.89881 (Simulation time: 0 hr 18 min 21 sec) 
Heartbeat CPU 0 instructions: 35000000 cycles: 18431465 heartbeat IPC: 1.90306 cumulative IPC: 1.89893 (Simulation time: 0 hr 18 min 54 sec) 
Heartbeat CPU 0 instructions: 36000000 cycles: 18958386 heartbeat IPC: 1.89782 cumulative IPC: 1.8989 (Simulation time: 0 hr 19 min 27 sec) 
Heartbeat CPU 0 instructions: 37000002 cycles: 19475832 heartbeat IPC: 1.93257 cumulative IPC: 1.89979 (Simulation time: 0 hr 20 min 1 sec) 
Heartbeat CPU 0 instructions: 38000002 cycles: 19995778 heartbeat IPC: 1.92328 cumulative IPC: 1.9004 (Simulation time: 0 hr 20 min 33 sec) 
Heartbeat CPU 0 instructions: 39000001 cycles: 20516130 heartbeat IPC: 1.92177 cumulative IPC: 1.90094 (Simulation time: 0 hr 21 min 8 sec) 
Heartbeat CPU 0 instructions: 40000000 cycles: 21035026 heartbeat IPC: 1.92717 cumulative IPC: 1.90159 (Simulation time: 0 hr 21 min 45 sec) 
Heartbeat CPU 0 instructions: 41000001 cycles: 21556377 heartbeat IPC: 1.9181 cumulative IPC: 1.90199 (Simulation time: 0 hr 22 min 21 sec) 
Heartbeat CPU 0 instructions: 42000002 cycles: 22070299 heartbeat IPC: 1.94582 cumulative IPC: 1.90301 (Simulation time: 0 hr 22 min 55 sec) 
Heartbeat CPU 0 instructions: 43000001 cycles: 22583849 heartbeat IPC: 1.94723 cumulative IPC: 1.90402 (Simulation time: 0 hr 23 min 30 sec) 
Heartbeat CPU 0 instructions: 44000000 cycles: 23103843 heartbeat IPC: 1.9231 cumulative IPC: 1.90445 (Simulation time: 0 hr 24 min 3 sec) 
Heartbeat CPU 0 instructions: 45000001 cycles: 23620130 heartbeat IPC: 1.93691 cumulative IPC: 1.90515 (Simulation time: 0 hr 24 min 40 sec) 
Heartbeat CPU 0 instructions: 46000003 cycles: 24144489 heartbeat IPC: 1.90709 cumulative IPC: 1.9052 (Simulation time: 0 hr 25 min 11 sec) 
Heartbeat CPU 0 instructions: 47000000 cycles: 24668101 heartbeat IPC: 1.90981 cumulative IPC: 1.90529 (Simulation time: 0 hr 25 min 43 sec) 
Heartbeat CPU 0 instructions: 48000000 cycles: 25188446 heartbeat IPC: 1.9218 cumulative IPC: 1.90564 (Simulation time: 0 hr 26 min 16 sec) 
Heartbeat CPU 0 instructions: 49000003 cycles: 25714348 heartbeat IPC: 1.9015 cumulative IPC: 1.90555 (Simulation time: 0 hr 26 min 52 sec) 
Heartbeat CPU 0 instructions: 50000001 cycles: 26240972 heartbeat IPC: 1.89888 cumulative IPC: 1.90542 (Simulation time: 0 hr 27 min 25 sec) 

Warmup complete CPU 0 instructions: 50000001 cycles: 26240972 (Simulation time: 0 hr 27 min 25 sec) 

Heartbeat CPU 0 instructions: 51000003 cycles: 28173008 heartbeat IPC: 0.51759 cumulative IPC: 0.51759 (Simulation time: 0 hr 28 min 2 sec) 
Heartbeat CPU 0 instructions: 52000000 cycles: 30188630 heartbeat IPC: 0.496123 cumulative IPC: 0.506629 (Simulation time: 0 hr 28 min 36 sec) 
Heartbeat CPU 0 instructions: 53000001 cycles: 32152403 heartbeat IPC: 0.509224 cumulative IPC: 0.507491 (Simulation time: 0 hr 29 min 13 sec) 
Heartbeat CPU 0 instructions: 54000003 cycles: 34050485 heartbeat IPC: 0.526849 cumulative IPC: 0.512196 (Simulation time: 0 hr 29 min 56 sec) 
Heartbeat CPU 0 instructions: 55000000 cycles: 35920288 heartbeat IPC: 0.534814 cumulative IPC: 0.516565 (Simulation time: 0 hr 30 min 41 sec) 
Heartbeat CPU 0 instructions: 56000000 cycles: 37806533 heartbeat IPC: 0.530154 cumulative IPC: 0.518781 (Simulation time: 0 hr 31 min 23 sec) 
Heartbeat CPU 0 instructions: 57000000 cycles: 39667143 heartbeat IPC: 0.537458 cumulative IPC: 0.52137 (Simulation time: 0 hr 32 min 4 sec) 
Heartbeat CPU 0 instructions: 58000001 cycles: 41582540 heartbeat IPC: 0.522085 cumulative IPC: 0.521459 (Simulation time: 0 hr 32 min 46 sec) 
Heartbeat CPU 0 instructions: 59000003 cycles: 43470107 heartbeat IPC: 0.529784 cumulative IPC: 0.522371 (Simulation time: 0 hr 33 min 24 sec) 
Heartbeat CPU 0 instructions: 60000000 cycles: 45355761 heartbeat IPC: 0.530318 cumulative IPC: 0.523155 (Simulation time: 0 hr 34 min 2 sec) 
Heartbeat CPU 0 instructions: 61000002 cycles: 47244445 heartbeat IPC: 0.52947 cumulative IPC: 0.523723 (Simulation time: 0 hr 34 min 40 sec) 
Heartbeat CPU 0 instructions: 62000001 cycles: 49143935 heartbeat IPC: 0.526457 cumulative IPC: 0.52395 (Simulation time: 0 hr 35 min 27 sec) 
Heartbeat CPU 0 instructions: 63000001 cycles: 51183228 heartbeat IPC: 0.490366 cumulative IPC: 0.521204 (Simulation time: 0 hr 36 min 4 sec) 
Heartbeat CPU 0 instructions: 64000000 cycles: 53133246 heartbeat IPC: 0.512815 cumulative IPC: 0.520596 (Simulation time: 0 hr 36 min 39 sec) 
Heartbeat CPU 0 instructions: 65000000 cycles: 55071542 heartbeat IPC: 0.515917 cumulative IPC: 0.520281 (Simulation time: 0 hr 37 min 21 sec) 
Heartbeat CPU 0 instructions: 66000000 cycles: 57020861 heartbeat IPC: 0.513 cumulative IPC: 0.51982 (Simulation time: 0 hr 37 min 58 sec) 
Heartbeat CPU 0 instructions: 67000003 cycles: 58957448 heartbeat IPC: 0.516374 cumulative IPC: 0.519616 (Simulation time: 0 hr 38 min 34 sec) 
Heartbeat CPU 0 instructions: 68000000 cycles: 60882795 heartbeat IPC: 0.519385 cumulative IPC: 0.519603 (Simulation time: 0 hr 39 min 9 sec) 
Heartbeat CPU 0 instructions: 69000000 cycles: 62815081 heartbeat IPC: 0.517522 cumulative IPC: 0.519493 (Simulation time: 0 hr 39 min 45 sec) 
Heartbeat CPU 0 instructions: 70000003 cycles: 64762465 heartbeat IPC: 0.513511 cumulative IPC: 0.519191 (Simulation time: 0 hr 40 min 20 sec) 
Heartbeat CPU 0 instructions: 71000001 cycles: 66712629 heartbeat IPC: 0.512776 cumulative IPC: 0.518882 (Simulation time: 0 hr 40 min 57 sec) 
Heartbeat CPU 0 instructions: 72000000 cycles: 68662493 heartbeat IPC: 0.512856 cumulative IPC: 0.518605 (Simulation time: 0 hr 41 min 32 sec) 
Heartbeat CPU 0 instructions: 73000000 cycles: 70612533 heartbeat IPC: 0.51281 cumulative IPC: 0.51835 (Simulation time: 0 hr 42 min 11 sec) 
Heartbeat CPU 0 instructions: 74000000 cycles: 72563172 heartbeat IPC: 0.512653 cumulative IPC: 0.51811 (Simulation time: 0 hr 42 min 50 sec) 
Heartbeat CPU 0 instructions: 75000001 cycles: 74476895 heartbeat IPC: 0.522542 cumulative IPC: 0.518286 (Simulation time: 0 hr 43 min 27 sec) 
Heartbeat CPU 0 instructions: 76000000 cycles: 76404951 heartbeat IPC: 0.518657 cumulative IPC: 0.5183 (Simulation time: 0 hr 44 min 4 sec) 
Heartbeat CPU 0 instructions: 77000001 cycles: 78431693 heartbeat IPC: 0.493403 cumulative IPC: 0.517333 (Simulation time: 0 hr 44 min 38 sec) 
Heartbeat CPU 0 instructions: 78000000 cycles: 80387296 heartbeat IPC: 0.511351 cumulative IPC: 0.517117 (Simulation time: 0 hr 45 min 14 sec) 
Heartbeat CPU 0 instructions: 79000003 cycles: 82420157 heartbeat IPC: 0.491919 cumulative IPC: 0.516205 (Simulation time: 0 hr 45 min 51 sec) 
Heartbeat CPU 0 instructions: 80000000 cycles: 84519354 heartbeat IPC: 0.476371 cumulative IPC: 0.514771 (Simulation time: 0 hr 46 min 24 sec) 
Heartbeat CPU 0 instructions: 81000003 cycles: 86618046 heartbeat IPC: 0.476489 cumulative IPC: 0.51344 (Simulation time: 0 hr 46 min 56 sec) 
Heartbeat CPU 0 instructions: 82000000 cycles: 88678837 heartbeat IPC: 0.485249 cumulative IPC: 0.51251 (Simulation time: 0 hr 47 min 33 sec) 
Heartbeat CPU 0 instructions: 83000000 cycles: 90661847 heartbeat IPC: 0.504284 cumulative IPC: 0.512256 (Simulation time: 0 hr 48 min 11 sec) 
Heartbeat CPU 0 instructions: 84000000 cycles: 92638661 heartbeat IPC: 0.505865 cumulative IPC: 0.512066 (Simulation time: 0 hr 48 min 49 sec) 
Heartbeat CPU 0 instructions: 85000001 cycles: 94603708 heartbeat IPC: 0.508894 cumulative IPC: 0.511975 (Simulation time: 0 hr 49 min 25 sec) 
Heartbeat CPU 0 instructions: 86000002 cycles: 96563018 heartbeat IPC: 0.510384 cumulative IPC: 0.511931 (Simulation time: 0 hr 50 min 1 sec) 
Heartbeat CPU 0 instructions: 87000000 cycles: 98545843 heartbeat IPC: 0.50433 cumulative IPC: 0.511722 (Simulation time: 0 hr 50 min 40 sec) 
Heartbeat CPU 0 instructions: 88000000 cycles: 100583668 heartbeat IPC: 0.490719 cumulative IPC: 0.511146 (Simulation time: 0 hr 51 min 15 sec) 
Heartbeat CPU 0 instructions: 89000003 cycles: 102565533 heartbeat IPC: 0.504577 cumulative IPC: 0.510976 (Simulation time: 0 hr 51 min 57 sec) 
Heartbeat CPU 0 instructions: 90000000 cycles: 104533732 heartbeat IPC: 0.508077 cumulative IPC: 0.510903 (Simulation time: 0 hr 52 min 34 sec) 
Heartbeat CPU 0 instructions: 91000000 cycles: 106514689 heartbeat IPC: 0.504807 cumulative IPC: 0.510752 (Simulation time: 0 hr 53 min 15 sec) 
Heartbeat CPU 0 instructions: 92000000 cycles: 108504042 heartbeat IPC: 0.502676 cumulative IPC: 0.510557 (Simulation time: 0 hr 53 min 55 sec) 
Heartbeat CPU 0 instructions: 93000003 cycles: 110456748 heartbeat IPC: 0.512111 cumulative IPC: 0.510593 (Simulation time: 0 hr 54 min 31 sec) 
Heartbeat CPU 0 instructions: 94000000 cycles: 112394160 heartbeat IPC: 0.516151 cumulative IPC: 0.510718 (Simulation time: 0 hr 55 min 8 sec) 
Heartbeat CPU 0 instructions: 95000000 cycles: 114368432 heartbeat IPC: 0.506516 cumulative IPC: 0.510624 (Simulation time: 0 hr 55 min 46 sec) 
Heartbeat CPU 0 instructions: 96000000 cycles: 116378227 heartbeat IPC: 0.497563 cumulative IPC: 0.510333 (Simulation time: 0 hr 56 min 23 sec) 
Heartbeat CPU 0 instructions: 97000000 cycles: 118390391 heartbeat IPC: 0.496977 cumulative IPC: 0.510041 (Simulation time: 0 hr 56 min 59 sec) 
Heartbeat CPU 0 instructions: 98000000 cycles: 120384907 heartbeat IPC: 0.501375 cumulative IPC: 0.509858 (Simulation time: 0 hr 57 min 36 sec) 
Heartbeat CPU 0 instructions: 99000000 cycles: 122471087 heartbeat IPC: 0.479345 cumulative IPC: 0.509196 (Simulation time: 0 hr 58 min 14 sec) 
Heartbeat CPU 0 instructions: 100000000 cycles: 124479135 heartbeat IPC: 0.497996 cumulative IPC: 0.508967 (Simulation time: 0 hr 58 min 51 sec) 
Heartbeat CPU 0 instructions: 101000000 cycles: 126508066 heartbeat IPC: 0.49287 cumulative IPC: 0.508641 (Simulation time: 0 hr 59 min 28 sec) 
Heartbeat CPU 0 instructions: 102000003 cycles: 128510907 heartbeat IPC: 0.499292 cumulative IPC: 0.508458 (Simulation time: 1 hr 0 min 5 sec) 
Heartbeat CPU 0 instructions: 103000000 cycles: 130457294 heartbeat IPC: 0.513771 cumulative IPC: 0.508558 (Simulation time: 1 hr 0 min 44 sec) 
Heartbeat CPU 0 instructions: 104000000 cycles: 132392326 heartbeat IPC: 0.516787 cumulative IPC: 0.508708 (Simulation time: 1 hr 1 min 19 sec) 
Heartbeat CPU 0 instructions: 105000002 cycles: 134335560 heartbeat IPC: 0.514607 cumulative IPC: 0.508814 (Simulation time: 1 hr 1 min 55 sec) 
Heartbeat CPU 0 instructions: 106000003 cycles: 136259663 heartbeat IPC: 0.519723 cumulative IPC: 0.509004 (Simulation time: 1 hr 2 min 34 sec) 
Heartbeat CPU 0 instructions: 107000000 cycles: 138206534 heartbeat IPC: 0.513643 cumulative IPC: 0.509085 (Simulation time: 1 hr 3 min 11 sec) 
Heartbeat CPU 0 instructions: 108000000 cycles: 140282507 heartbeat IPC: 0.481702 cumulative IPC: 0.508587 (Simulation time: 1 hr 3 min 44 sec) 
Heartbeat CPU 0 instructions: 109000003 cycles: 142323859 heartbeat IPC: 0.489873 cumulative IPC: 0.508258 (Simulation time: 1 hr 4 min 18 sec) 
Heartbeat CPU 0 instructions: 110000002 cycles: 144314909 heartbeat IPC: 0.502247 cumulative IPC: 0.508156 (Simulation time: 1 hr 4 min 53 sec) 
Heartbeat CPU 0 instructions: 111000002 cycles: 146298489 heartbeat IPC: 0.504139 cumulative IPC: 0.50809 (Simulation time: 1 hr 5 min 33 sec) 
Heartbeat CPU 0 instructions: 112000000 cycles: 148289562 heartbeat IPC: 0.502241 cumulative IPC: 0.507994 (Simulation time: 1 hr 6 min 8 sec) 
Heartbeat CPU 0 instructions: 113000000 cycles: 150276369 heartbeat IPC: 0.50332 cumulative IPC: 0.507919 (Simulation time: 1 hr 6 min 45 sec) 
Heartbeat CPU 0 instructions: 114000001 cycles: 152268608 heartbeat IPC: 0.501948 cumulative IPC: 0.507825 (Simulation time: 1 hr 7 min 22 sec) 
Heartbeat CPU 0 instructions: 115000000 cycles: 154272419 heartbeat IPC: 0.499049 cumulative IPC: 0.507688 (Simulation time: 1 hr 8 min 3 sec) 
Heartbeat CPU 0 instructions: 116000000 cycles: 156314419 heartbeat IPC: 0.489716 cumulative IPC: 0.507406 (Simulation time: 1 hr 8 min 42 sec) 
Heartbeat CPU 0 instructions: 117000000 cycles: 158393220 heartbeat IPC: 0.481047 cumulative IPC: 0.506991 (Simulation time: 1 hr 9 min 14 sec) 
Heartbeat CPU 0 instructions: 118000002 cycles: 160497967 heartbeat IPC: 0.475117 cumulative IPC: 0.506491 (Simulation time: 1 hr 9 min 52 sec) 
Heartbeat CPU 0 instructions: 119000001 cycles: 162566696 heartbeat IPC: 0.483388 cumulative IPC: 0.506141 (Simulation time: 1 hr 10 min 31 sec) 
Heartbeat CPU 0 instructions: 120000000 cycles: 164594518 heartbeat IPC: 0.493139 cumulative IPC: 0.50595 (Simulation time: 1 hr 11 min 2 sec) 
Heartbeat CPU 0 instructions: 121000000 cycles: 166668524 heartbeat IPC: 0.482159 cumulative IPC: 0.505599 (Simulation time: 1 hr 11 min 32 sec) 
Heartbeat CPU 0 instructions: 122000001 cycles: 168796309 heartbeat IPC: 0.469973 cumulative IPC: 0.505067 (Simulation time: 1 hr 12 min 0 sec) 
Heartbeat CPU 0 instructions: 123000000 cycles: 170853179 heartbeat IPC: 0.486175 cumulative IPC: 0.504798 (Simulation time: 1 hr 12 min 30 sec) 
Heartbeat CPU 0 instructions: 124000000 cycles: 172848272 heartbeat IPC: 0.50123 cumulative IPC: 0.50475 (Simulation time: 1 hr 12 min 56 sec) 
Heartbeat CPU 0 instructions: 125000001 cycles: 174829124 heartbeat IPC: 0.504834 cumulative IPC: 0.504751 (Simulation time: 1 hr 13 min 25 sec) 
Heartbeat CPU 0 instructions: 126000000 cycles: 176830057 heartbeat IPC: 0.499766 cumulative IPC: 0.504685 (Simulation time: 1 hr 13 min 55 sec) 
Heartbeat CPU 0 instructions: 127000001 cycles: 178818748 heartbeat IPC: 0.502844 cumulative IPC: 0.504661 (Simulation time: 1 hr 14 min 25 sec) 
Heartbeat CPU 0 instructions: 128000000 cycles: 180853359 heartbeat IPC: 0.491494 cumulative IPC: 0.504487 (Simulation time: 1 hr 14 min 54 sec) 
Heartbeat CPU 0 instructions: 129000000 cycles: 182900663 heartbeat IPC: 0.488447 cumulative IPC: 0.504278 (Simulation time: 1 hr 15 min 21 sec) 
Heartbeat CPU 0 instructions: 130000002 cycles: 184922268 heartbeat IPC: 0.494657 cumulative IPC: 0.504155 (Simulation time: 1 hr 15 min 48 sec) 
Heartbeat CPU 0 instructions: 131000001 cycles: 186914172 heartbeat IPC: 0.502032 cumulative IPC: 0.504129 (Simulation time: 1 hr 16 min 17 sec) 
Heartbeat CPU 0 instructions: 132000000 cycles: 188907066 heartbeat IPC: 0.501782 cumulative IPC: 0.5041 (Simulation time: 1 hr 16 min 44 sec) 
Heartbeat CPU 0 instructions: 133000001 cycles: 190901125 heartbeat IPC: 0.50149 cumulative IPC: 0.504068 (Simulation time: 1 hr 17 min 11 sec) 
Heartbeat CPU 0 instructions: 134000002 cycles: 192898396 heartbeat IPC: 0.500684 cumulative IPC: 0.504028 (Simulation time: 1 hr 17 min 37 sec) 
Heartbeat CPU 0 instructions: 135000003 cycles: 194909718 heartbeat IPC: 0.497186 cumulative IPC: 0.503946 (Simulation time: 1 hr 18 min 1 sec) 
Heartbeat CPU 0 instructions: 136000000 cycles: 196892872 heartbeat IPC: 0.504246 cumulative IPC: 0.50395 (Simulation time: 1 hr 18 min 22 sec) 
Heartbeat CPU 0 instructions: 137000000 cycles: 198876362 heartbeat IPC: 0.504162 cumulative IPC: 0.503952 (Simulation time: 1 hr 18 min 44 sec) 
Heartbeat CPU 0 instructions: 138000003 cycles: 200868744 heartbeat IPC: 0.501913 cumulative IPC: 0.503929 (Simulation time: 1 hr 19 min 6 sec) 
Heartbeat CPU 0 instructions: 139000000 cycles: 202893746 heartbeat IPC: 0.493825 cumulative IPC: 0.503813 (Simulation time: 1 hr 19 min 28 sec) 
Heartbeat CPU 0 instructions: 140000000 cycles: 204926998 heartbeat IPC: 0.491823 cumulative IPC: 0.503677 (Simulation time: 1 hr 19 min 51 sec) 
Heartbeat CPU 0 instructions: 141000002 cycles: 206924488 heartbeat IPC: 0.500629 cumulative IPC: 0.503643 (Simulation time: 1 hr 20 min 15 sec) 
Heartbeat CPU 0 instructions: 142000002 cycles: 208910479 heartbeat IPC: 0.503527 cumulative IPC: 0.503642 (Simulation time: 1 hr 20 min 37 sec) 
Heartbeat CPU 0 instructions: 143000002 cycles: 210911397 heartbeat IPC: 0.499771 cumulative IPC: 0.5036 (Simulation time: 1 hr 20 min 59 sec) 
Heartbeat CPU 0 instructions: 144000000 cycles: 212916682 heartbeat IPC: 0.498681 cumulative IPC: 0.503547 (Simulation time: 1 hr 21 min 21 sec) 
Heartbeat CPU 0 instructions: 145000001 cycles: 215009698 heartbeat IPC: 0.47778 cumulative IPC: 0.503261 (Simulation time: 1 hr 21 min 42 sec) 
Heartbeat CPU 0 instructions: 146000000 cycles: 217191607 heartbeat IPC: 0.458314 cumulative IPC: 0.502748 (Simulation time: 1 hr 22 min 1 sec) 
Heartbeat CPU 0 instructions: 147000000 cycles: 219310517 heartbeat IPC: 0.471941 cumulative IPC: 0.50241 (Simulation time: 1 hr 22 min 20 sec) 
Heartbeat CPU 0 instructions: 148000000 cycles: 221447619 heartbeat IPC: 0.467923 cumulative IPC: 0.502032 (Simulation time: 1 hr 22 min 39 sec) 
Heartbeat CPU 0 instructions: 149000000 cycles: 223552789 heartbeat IPC: 0.475021 cumulative IPC: 0.501744 (Simulation time: 1 hr 22 min 56 sec) 
Heartbeat CPU 0 instructions: 150000000 cycles: 225677515 heartbeat IPC: 0.470649 cumulative IPC: 0.501413 (Simulation time: 1 hr 23 min 14 sec) 
Finished CPU 0 instructions: 100000003 cycles: 199436544 cummulative IPC: 0.501413 (Simulation time: 1 hr 23 min 14 sec) 

ChampSim completed all CPUs

Region of Interest Statistics

CPU 0 cummulative IPC: 0.501413 instructions: 100000003 cycles: 199436544
LLC TOTAL     ACCESS:     477012  HIT:     316226  MISS:     160786
LLC LOAD      ACCESS:     104808  HIT:      65640  MISS:      39168
LLC RFO       ACCESS:      70517  HIT:      32600  MISS:      37917
LLC PREFETCH  ACCESS:     138030  HIT:      76665  MISS:      61365
LLC WRITEBACK ACCESS:     163657  HIT:     141321  MISS:      22336
OPTgen accesses: 4411
OPTgen hits: 3547
OPTgen hit rate: 80.4126


