
*** ChampSim Multicore Out-of-Order Simulator ***

Warmup Instructions: 50000000
Simulation Instructions: 100000000
Configuration: 2
Number of CPUs: 1
LLC sets: 2048
LLC ways: 16
Off-chip DRAM Channels: 1 Width: 64-bit Data Rate: 1600 MT/s

CPU 0 runs /datasets/cs240c-wi22-a00-public/data/Assignment2-gz/wrf_1650B.trace.gz
CPU 0 L1D next line prefetcher
CPU 0 L2C IP-based stride prefetcher
Initialize Hawkeye state
Heartbeat CPU 0 instructions: 1000000 cycles: 514299 heartbeat IPC: 1.94439 cumulative IPC: 1.94439 (Simulation time: 0 hr 0 min 33 sec) 
Heartbeat CPU 0 instructions: 2000000 cycles: 1028473 heartbeat IPC: 1.94487 cumulative IPC: 1.94463 (Simulation time: 0 hr 1 min 10 sec) 
Heartbeat CPU 0 instructions: 3000001 cycles: 1546184 heartbeat IPC: 1.93158 cumulative IPC: 1.94026 (Simulation time: 0 hr 1 min 43 sec) 
Heartbeat CPU 0 instructions: 4000000 cycles: 2063940 heartbeat IPC: 1.93141 cumulative IPC: 1.93804 (Simulation time: 0 hr 2 min 16 sec) 
Heartbeat CPU 0 instructions: 5000001 cycles: 2581687 heartbeat IPC: 1.93145 cumulative IPC: 1.93672 (Simulation time: 0 hr 2 min 54 sec) 
Heartbeat CPU 0 instructions: 6000003 cycles: 3099505 heartbeat IPC: 1.93118 cumulative IPC: 1.93579 (Simulation time: 0 hr 3 min 31 sec) 
Heartbeat CPU 0 instructions: 7000000 cycles: 3617214 heartbeat IPC: 1.93158 cumulative IPC: 1.93519 (Simulation time: 0 hr 4 min 4 sec) 
Heartbeat CPU 0 instructions: 8000000 cycles: 4135023 heartbeat IPC: 1.93121 cumulative IPC: 1.93469 (Simulation time: 0 hr 4 min 38 sec) 
Heartbeat CPU 0 instructions: 9000001 cycles: 4649336 heartbeat IPC: 1.94434 cumulative IPC: 1.93576 (Simulation time: 0 hr 5 min 12 sec) 
Heartbeat CPU 0 instructions: 10000001 cycles: 5163453 heartbeat IPC: 1.94508 cumulative IPC: 1.93669 (Simulation time: 0 hr 5 min 48 sec) 
Heartbeat CPU 0 instructions: 11000001 cycles: 5677587 heartbeat IPC: 1.94502 cumulative IPC: 1.93744 (Simulation time: 0 hr 6 min 25 sec) 
Heartbeat CPU 0 instructions: 12000000 cycles: 6193737 heartbeat IPC: 1.93742 cumulative IPC: 1.93744 (Simulation time: 0 hr 7 min 0 sec) 
Heartbeat CPU 0 instructions: 13000002 cycles: 6711432 heartbeat IPC: 1.93164 cumulative IPC: 1.93699 (Simulation time: 0 hr 7 min 38 sec) 
Heartbeat CPU 0 instructions: 14000002 cycles: 7229229 heartbeat IPC: 1.93126 cumulative IPC: 1.93658 (Simulation time: 0 hr 8 min 15 sec) 
Heartbeat CPU 0 instructions: 15000001 cycles: 7746913 heartbeat IPC: 1.93168 cumulative IPC: 1.93626 (Simulation time: 0 hr 8 min 53 sec) 
Heartbeat CPU 0 instructions: 16000000 cycles: 8264628 heartbeat IPC: 1.93156 cumulative IPC: 1.93596 (Simulation time: 0 hr 9 min 26 sec) 
Heartbeat CPU 0 instructions: 17000000 cycles: 8782346 heartbeat IPC: 1.93155 cumulative IPC: 1.9357 (Simulation time: 0 hr 10 min 2 sec) 
Heartbeat CPU 0 instructions: 18000001 cycles: 9298211 heartbeat IPC: 1.93849 cumulative IPC: 1.93586 (Simulation time: 0 hr 10 min 38 sec) 
Heartbeat CPU 0 instructions: 19000003 cycles: 9812269 heartbeat IPC: 1.94531 cumulative IPC: 1.93635 (Simulation time: 0 hr 11 min 14 sec) 
Heartbeat CPU 0 instructions: 20000000 cycles: 10326480 heartbeat IPC: 1.94472 cumulative IPC: 1.93677 (Simulation time: 0 hr 11 min 51 sec) 
Heartbeat CPU 0 instructions: 21000000 cycles: 10841175 heartbeat IPC: 1.9429 cumulative IPC: 1.93706 (Simulation time: 0 hr 12 min 28 sec) 
Heartbeat CPU 0 instructions: 22000000 cycles: 11358990 heartbeat IPC: 1.93119 cumulative IPC: 1.93679 (Simulation time: 0 hr 13 min 3 sec) 
Heartbeat CPU 0 instructions: 23000003 cycles: 11876757 heartbeat IPC: 1.93138 cumulative IPC: 1.93656 (Simulation time: 0 hr 13 min 39 sec) 
Heartbeat CPU 0 instructions: 24000000 cycles: 12394524 heartbeat IPC: 1.93136 cumulative IPC: 1.93634 (Simulation time: 0 hr 14 min 15 sec) 
Heartbeat CPU 0 instructions: 25000000 cycles: 12912214 heartbeat IPC: 1.93166 cumulative IPC: 1.93615 (Simulation time: 0 hr 14 min 52 sec) 
Heartbeat CPU 0 instructions: 26000001 cycles: 13429933 heartbeat IPC: 1.93155 cumulative IPC: 1.93597 (Simulation time: 0 hr 15 min 30 sec) 
Heartbeat CPU 0 instructions: 27000002 cycles: 13947348 heartbeat IPC: 1.93269 cumulative IPC: 1.93585 (Simulation time: 0 hr 16 min 3 sec) 
Heartbeat CPU 0 instructions: 28000000 cycles: 14461488 heartbeat IPC: 1.94499 cumulative IPC: 1.93618 (Simulation time: 0 hr 16 min 38 sec) 
Heartbeat CPU 0 instructions: 29000003 cycles: 14975725 heartbeat IPC: 1.94463 cumulative IPC: 1.93647 (Simulation time: 0 hr 17 min 13 sec) 
Heartbeat CPU 0 instructions: 30000002 cycles: 15489912 heartbeat IPC: 1.94482 cumulative IPC: 1.93674 (Simulation time: 0 hr 17 min 47 sec) 
Heartbeat CPU 0 instructions: 31000001 cycles: 16006549 heartbeat IPC: 1.93559 cumulative IPC: 1.93671 (Simulation time: 0 hr 18 min 21 sec) 
Heartbeat CPU 0 instructions: 32000000 cycles: 16524170 heartbeat IPC: 1.93191 cumulative IPC: 1.93656 (Simulation time: 0 hr 19 min 0 sec) 
Heartbeat CPU 0 instructions: 33000001 cycles: 17041842 heartbeat IPC: 1.93173 cumulative IPC: 1.93641 (Simulation time: 0 hr 19 min 36 sec) 
Heartbeat CPU 0 instructions: 34000002 cycles: 17559440 heartbeat IPC: 1.932 cumulative IPC: 1.93628 (Simulation time: 0 hr 20 min 8 sec) 
Heartbeat CPU 0 instructions: 35000001 cycles: 18077270 heartbeat IPC: 1.93113 cumulative IPC: 1.93613 (Simulation time: 0 hr 20 min 40 sec) 
Heartbeat CPU 0 instructions: 36000000 cycles: 18594991 heartbeat IPC: 1.93154 cumulative IPC: 1.93601 (Simulation time: 0 hr 21 min 12 sec) 
Heartbeat CPU 0 instructions: 37000003 cycles: 19110667 heartbeat IPC: 1.93921 cumulative IPC: 1.93609 (Simulation time: 0 hr 21 min 44 sec) 
Heartbeat CPU 0 instructions: 38000000 cycles: 19624818 heartbeat IPC: 1.94495 cumulative IPC: 1.93632 (Simulation time: 0 hr 22 min 19 sec) 
Heartbeat CPU 0 instructions: 39000001 cycles: 20138999 heartbeat IPC: 1.94484 cumulative IPC: 1.93654 (Simulation time: 0 hr 22 min 56 sec) 
Heartbeat CPU 0 instructions: 40000000 cycles: 20654040 heartbeat IPC: 1.94159 cumulative IPC: 1.93667 (Simulation time: 0 hr 23 min 31 sec) 
Heartbeat CPU 0 instructions: 41000000 cycles: 21171690 heartbeat IPC: 1.93181 cumulative IPC: 1.93655 (Simulation time: 0 hr 24 min 4 sec) 
Heartbeat CPU 0 instructions: 42000003 cycles: 21689691 heartbeat IPC: 1.9305 cumulative IPC: 1.9364 (Simulation time: 0 hr 24 min 38 sec) 
Heartbeat CPU 0 instructions: 43000001 cycles: 22207425 heartbeat IPC: 1.93149 cumulative IPC: 1.93629 (Simulation time: 0 hr 25 min 10 sec) 
Heartbeat CPU 0 instructions: 44000000 cycles: 22725175 heartbeat IPC: 1.93143 cumulative IPC: 1.93618 (Simulation time: 0 hr 25 min 45 sec) 
Heartbeat CPU 0 instructions: 45000000 cycles: 23242894 heartbeat IPC: 1.93155 cumulative IPC: 1.93608 (Simulation time: 0 hr 26 min 16 sec) 
Heartbeat CPU 0 instructions: 46000003 cycles: 23740902 heartbeat IPC: 2.00801 cumulative IPC: 1.93758 (Simulation time: 0 hr 26 min 52 sec) 
Heartbeat CPU 0 instructions: 47000002 cycles: 24391800 heartbeat IPC: 1.53634 cumulative IPC: 1.92688 (Simulation time: 0 hr 27 min 35 sec) 
Heartbeat CPU 0 instructions: 48000000 cycles: 25044140 heartbeat IPC: 1.53294 cumulative IPC: 1.91662 (Simulation time: 0 hr 28 min 15 sec) 
Heartbeat CPU 0 instructions: 49000001 cycles: 25692668 heartbeat IPC: 1.54195 cumulative IPC: 1.90716 (Simulation time: 0 hr 28 min 53 sec) 
Heartbeat CPU 0 instructions: 50000000 cycles: 26341304 heartbeat IPC: 1.5417 cumulative IPC: 1.89816 (Simulation time: 0 hr 29 min 33 sec) 

Warmup complete CPU 0 instructions: 50000001 cycles: 26341307 (Simulation time: 0 hr 29 min 33 sec) 

Heartbeat CPU 0 instructions: 51000000 cycles: 28273409 heartbeat IPC: 0.51757 cumulative IPC: 0.51757 (Simulation time: 0 hr 30 min 18 sec) 
Heartbeat CPU 0 instructions: 52000000 cycles: 30049403 heartbeat IPC: 0.563065 cumulative IPC: 0.53936 (Simulation time: 0 hr 31 min 4 sec) 
Heartbeat CPU 0 instructions: 53000002 cycles: 31096579 heartbeat IPC: 0.954951 cumulative IPC: 0.630879 (Simulation time: 0 hr 31 min 43 sec) 
Heartbeat CPU 0 instructions: 54000001 cycles: 32040627 heartbeat IPC: 1.05927 cumulative IPC: 0.701838 (Simulation time: 0 hr 32 min 19 sec) 
Heartbeat CPU 0 instructions: 55000000 cycles: 32951969 heartbeat IPC: 1.09728 cumulative IPC: 0.756354 (Simulation time: 0 hr 32 min 55 sec) 
Heartbeat CPU 0 instructions: 56000000 cycles: 33839972 heartbeat IPC: 1.12612 cumulative IPC: 0.800142 (Simulation time: 0 hr 33 min 27 sec) 
Heartbeat CPU 0 instructions: 57000001 cycles: 34720765 heartbeat IPC: 1.13534 cumulative IPC: 0.835376 (Simulation time: 0 hr 34 min 1 sec) 
Heartbeat CPU 0 instructions: 58000002 cycles: 35604416 heartbeat IPC: 1.13167 cumulative IPC: 0.863641 (Simulation time: 0 hr 34 min 35 sec) 
Heartbeat CPU 0 instructions: 59000002 cycles: 36493306 heartbeat IPC: 1.125 cumulative IPC: 0.886525 (Simulation time: 0 hr 35 min 16 sec) 
Heartbeat CPU 0 instructions: 60000000 cycles: 37376631 heartbeat IPC: 1.13208 cumulative IPC: 0.906181 (Simulation time: 0 hr 35 min 56 sec) 
Heartbeat CPU 0 instructions: 61000003 cycles: 38672310 heartbeat IPC: 0.771798 cumulative IPC: 0.892061 (Simulation time: 0 hr 36 min 33 sec) 
Heartbeat CPU 0 instructions: 62000002 cycles: 40160010 heartbeat IPC: 0.672178 cumulative IPC: 0.868388 (Simulation time: 0 hr 37 min 12 sec) 
Heartbeat CPU 0 instructions: 63000002 cycles: 41645783 heartbeat IPC: 0.67305 cumulative IPC: 0.849425 (Simulation time: 0 hr 37 min 50 sec) 
Heartbeat CPU 0 instructions: 64000000 cycles: 43131787 heartbeat IPC: 0.672944 cumulative IPC: 0.833806 (Simulation time: 0 hr 38 min 25 sec) 
Heartbeat CPU 0 instructions: 65000001 cycles: 44620066 heartbeat IPC: 0.671918 cumulative IPC: 0.820625 (Simulation time: 0 hr 39 min 0 sec) 
Heartbeat CPU 0 instructions: 66000000 cycles: 46105479 heartbeat IPC: 0.673213 cumulative IPC: 0.809546 (Simulation time: 0 hr 39 min 36 sec) 
Heartbeat CPU 0 instructions: 67000001 cycles: 47594313 heartbeat IPC: 0.671667 cumulative IPC: 0.799887 (Simulation time: 0 hr 40 min 19 sec) 
Heartbeat CPU 0 instructions: 68000000 cycles: 49080121 heartbeat IPC: 0.673034 cumulative IPC: 0.791598 (Simulation time: 0 hr 40 min 56 sec) 
Heartbeat CPU 0 instructions: 69000002 cycles: 50565795 heartbeat IPC: 0.673097 cumulative IPC: 0.78433 (Simulation time: 0 hr 41 min 30 sec) 
Heartbeat CPU 0 instructions: 70000000 cycles: 52052295 heartbeat IPC: 0.67272 cumulative IPC: 0.777878 (Simulation time: 0 hr 42 min 6 sec) 
Heartbeat CPU 0 instructions: 71000001 cycles: 53539393 heartbeat IPC: 0.672451 cumulative IPC: 0.772113 (Simulation time: 0 hr 42 min 42 sec) 
Heartbeat CPU 0 instructions: 72000000 cycles: 55027059 heartbeat IPC: 0.672193 cumulative IPC: 0.766931 (Simulation time: 0 hr 43 min 23 sec) 
Heartbeat CPU 0 instructions: 73000000 cycles: 56513221 heartbeat IPC: 0.672874 cumulative IPC: 0.762298 (Simulation time: 0 hr 43 min 57 sec) 
Heartbeat CPU 0 instructions: 74000003 cycles: 57998920 heartbeat IPC: 0.673086 cumulative IPC: 0.758112 (Simulation time: 0 hr 44 min 32 sec) 
Heartbeat CPU 0 instructions: 75000003 cycles: 59485420 heartbeat IPC: 0.672721 cumulative IPC: 0.754282 (Simulation time: 0 hr 45 min 6 sec) 
Heartbeat CPU 0 instructions: 76000000 cycles: 60971648 heartbeat IPC: 0.672842 cumulative IPC: 0.750787 (Simulation time: 0 hr 45 min 43 sec) 
Heartbeat CPU 0 instructions: 77000002 cycles: 62460058 heartbeat IPC: 0.671859 cumulative IPC: 0.747534 (Simulation time: 0 hr 46 min 19 sec) 
Heartbeat CPU 0 instructions: 78000001 cycles: 63947412 heartbeat IPC: 0.672334 cumulative IPC: 0.74456 (Simulation time: 0 hr 46 min 54 sec) 
Heartbeat CPU 0 instructions: 79000001 cycles: 65435407 heartbeat IPC: 0.672045 cumulative IPC: 0.7418 (Simulation time: 0 hr 47 min 34 sec) 
Heartbeat CPU 0 instructions: 80000000 cycles: 66920962 heartbeat IPC: 0.673148 cumulative IPC: 0.739287 (Simulation time: 0 hr 48 min 10 sec) 
Heartbeat CPU 0 instructions: 81000000 cycles: 68408709 heartbeat IPC: 0.672157 cumulative IPC: 0.736913 (Simulation time: 0 hr 48 min 45 sec) 
Heartbeat CPU 0 instructions: 82000003 cycles: 69894095 heartbeat IPC: 0.673228 cumulative IPC: 0.734741 (Simulation time: 0 hr 49 min 21 sec) 
Heartbeat CPU 0 instructions: 83000003 cycles: 71383718 heartbeat IPC: 0.671311 cumulative IPC: 0.732643 (Simulation time: 0 hr 50 min 2 sec) 
Heartbeat CPU 0 instructions: 84000000 cycles: 72869618 heartbeat IPC: 0.672991 cumulative IPC: 0.730738 (Simulation time: 0 hr 50 min 38 sec) 
Heartbeat CPU 0 instructions: 85000002 cycles: 74355871 heartbeat IPC: 0.672834 cumulative IPC: 0.728945 (Simulation time: 0 hr 51 min 16 sec) 
Heartbeat CPU 0 instructions: 86000001 cycles: 75841664 heartbeat IPC: 0.673041 cumulative IPC: 0.727268 (Simulation time: 0 hr 51 min 56 sec) 
Heartbeat CPU 0 instructions: 87000001 cycles: 77327673 heartbeat IPC: 0.672943 cumulative IPC: 0.725684 (Simulation time: 0 hr 52 min 31 sec) 
Heartbeat CPU 0 instructions: 88000000 cycles: 78825970 heartbeat IPC: 0.667424 cumulative IPC: 0.724021 (Simulation time: 0 hr 53 min 11 sec) 
Heartbeat CPU 0 instructions: 89000003 cycles: 80312412 heartbeat IPC: 0.672749 cumulative IPC: 0.722609 (Simulation time: 0 hr 53 min 49 sec) 
Heartbeat CPU 0 instructions: 90000003 cycles: 81810882 heartbeat IPC: 0.667347 cumulative IPC: 0.721116 (Simulation time: 0 hr 54 min 30 sec) 
Heartbeat CPU 0 instructions: 91000001 cycles: 83320760 heartbeat IPC: 0.662304 cumulative IPC: 0.719558 (Simulation time: 0 hr 55 min 9 sec) 
Heartbeat CPU 0 instructions: 92000000 cycles: 84829453 heartbeat IPC: 0.662825 cumulative IPC: 0.718094 (Simulation time: 0 hr 55 min 48 sec) 
Heartbeat CPU 0 instructions: 93000001 cycles: 86340369 heartbeat IPC: 0.661851 cumulative IPC: 0.716678 (Simulation time: 0 hr 56 min 29 sec) 
Heartbeat CPU 0 instructions: 94000001 cycles: 87852568 heartbeat IPC: 0.661289 cumulative IPC: 0.715316 (Simulation time: 0 hr 57 min 11 sec) 
Heartbeat CPU 0 instructions: 95000001 cycles: 89363045 heartbeat IPC: 0.662042 cumulative IPC: 0.714039 (Simulation time: 0 hr 57 min 51 sec) 
Heartbeat CPU 0 instructions: 96000000 cycles: 90877133 heartbeat IPC: 0.660463 cumulative IPC: 0.712782 (Simulation time: 0 hr 58 min 30 sec) 
Heartbeat CPU 0 instructions: 97000000 cycles: 92393123 heartbeat IPC: 0.659635 cumulative IPC: 0.711563 (Simulation time: 0 hr 59 min 8 sec) 
Heartbeat CPU 0 instructions: 98000000 cycles: 93907347 heartbeat IPC: 0.660404 cumulative IPC: 0.710416 (Simulation time: 0 hr 59 min 47 sec) 
Heartbeat CPU 0 instructions: 99000000 cycles: 95419278 heartbeat IPC: 0.661406 cumulative IPC: 0.709343 (Simulation time: 1 hr 0 min 25 sec) 
Heartbeat CPU 0 instructions: 100000000 cycles: 96934650 heartbeat IPC: 0.659904 cumulative IPC: 0.708282 (Simulation time: 1 hr 1 min 4 sec) 
Heartbeat CPU 0 instructions: 101000002 cycles: 98451936 heartbeat IPC: 0.659073 cumulative IPC: 0.707247 (Simulation time: 1 hr 1 min 45 sec) 
Heartbeat CPU 0 instructions: 102000002 cycles: 99965588 heartbeat IPC: 0.660654 cumulative IPC: 0.706289 (Simulation time: 1 hr 2 min 24 sec) 
Heartbeat CPU 0 instructions: 103000002 cycles: 101479709 heartbeat IPC: 0.660449 cumulative IPC: 0.705365 (Simulation time: 1 hr 3 min 8 sec) 
Heartbeat CPU 0 instructions: 104000000 cycles: 102995684 heartbeat IPC: 0.65964 cumulative IPC: 0.704461 (Simulation time: 1 hr 3 min 45 sec) 
Heartbeat CPU 0 instructions: 105000001 cycles: 104510413 heartbeat IPC: 0.660185 cumulative IPC: 0.703603 (Simulation time: 1 hr 4 min 24 sec) 
Heartbeat CPU 0 instructions: 106000001 cycles: 106026335 heartbeat IPC: 0.659665 cumulative IPC: 0.702767 (Simulation time: 1 hr 5 min 3 sec) 
Heartbeat CPU 0 instructions: 107000000 cycles: 107537382 heartbeat IPC: 0.661792 cumulative IPC: 0.702004 (Simulation time: 1 hr 5 min 42 sec) 
Heartbeat CPU 0 instructions: 108000000 cycles: 109051595 heartbeat IPC: 0.660409 cumulative IPC: 0.701243 (Simulation time: 1 hr 6 min 22 sec) 
Heartbeat CPU 0 instructions: 109000000 cycles: 110565633 heartbeat IPC: 0.660485 cumulative IPC: 0.70051 (Simulation time: 1 hr 7 min 2 sec) 
Heartbeat CPU 0 instructions: 110000001 cycles: 112076579 heartbeat IPC: 0.661838 cumulative IPC: 0.699829 (Simulation time: 1 hr 7 min 41 sec) 
Heartbeat CPU 0 instructions: 111000003 cycles: 113588160 heartbeat IPC: 0.66156 cumulative IPC: 0.699166 (Simulation time: 1 hr 8 min 21 sec) 
Heartbeat CPU 0 instructions: 112000000 cycles: 115097764 heartbeat IPC: 0.662423 cumulative IPC: 0.698541 (Simulation time: 1 hr 9 min 2 sec) 
Heartbeat CPU 0 instructions: 113000003 cycles: 116602481 heartbeat IPC: 0.664579 cumulative IPC: 0.697975 (Simulation time: 1 hr 9 min 40 sec) 
Heartbeat CPU 0 instructions: 114000002 cycles: 118113449 heartbeat IPC: 0.661827 cumulative IPC: 0.697379 (Simulation time: 1 hr 10 min 15 sec) 
Heartbeat CPU 0 instructions: 115000002 cycles: 119625651 heartbeat IPC: 0.661287 cumulative IPC: 0.696794 (Simulation time: 1 hr 10 min 51 sec) 
Heartbeat CPU 0 instructions: 116000000 cycles: 121140052 heartbeat IPC: 0.660326 cumulative IPC: 0.696212 (Simulation time: 1 hr 11 min 25 sec) 
Heartbeat CPU 0 instructions: 117000000 cycles: 122652776 heartbeat IPC: 0.661059 cumulative IPC: 0.69566 (Simulation time: 1 hr 11 min 55 sec) 
Heartbeat CPU 0 instructions: 118000003 cycles: 124166268 heartbeat IPC: 0.660726 cumulative IPC: 0.695119 (Simulation time: 1 hr 12 min 25 sec) 
Heartbeat CPU 0 instructions: 119000001 cycles: 125679052 heartbeat IPC: 0.661032 cumulative IPC: 0.6946 (Simulation time: 1 hr 12 min 57 sec) 
Heartbeat CPU 0 instructions: 120000000 cycles: 127195493 heartbeat IPC: 0.659438 cumulative IPC: 0.694071 (Simulation time: 1 hr 13 min 25 sec) 
Heartbeat CPU 0 instructions: 121000001 cycles: 128708829 heartbeat IPC: 0.660792 cumulative IPC: 0.693579 (Simulation time: 1 hr 13 min 54 sec) 
Heartbeat CPU 0 instructions: 122000000 cycles: 130223295 heartbeat IPC: 0.660298 cumulative IPC: 0.693094 (Simulation time: 1 hr 14 min 23 sec) 
Heartbeat CPU 0 instructions: 123000000 cycles: 131735681 heartbeat IPC: 0.661207 cumulative IPC: 0.692637 (Simulation time: 1 hr 14 min 53 sec) 
Heartbeat CPU 0 instructions: 124000000 cycles: 133249814 heartbeat IPC: 0.660444 cumulative IPC: 0.692181 (Simulation time: 1 hr 15 min 22 sec) 
Heartbeat CPU 0 instructions: 125000002 cycles: 134762220 heartbeat IPC: 0.661199 cumulative IPC: 0.691748 (Simulation time: 1 hr 15 min 51 sec) 
Heartbeat CPU 0 instructions: 126000003 cycles: 136277317 heartbeat IPC: 0.660024 cumulative IPC: 0.691311 (Simulation time: 1 hr 16 min 19 sec) 
Heartbeat CPU 0 instructions: 127000002 cycles: 137789978 heartbeat IPC: 0.661086 cumulative IPC: 0.690901 (Simulation time: 1 hr 16 min 47 sec) 
Heartbeat CPU 0 instructions: 128000000 cycles: 139570144 heartbeat IPC: 0.561744 cumulative IPC: 0.68887 (Simulation time: 1 hr 17 min 16 sec) 
Heartbeat CPU 0 instructions: 129000001 cycles: 141983065 heartbeat IPC: 0.414436 cumulative IPC: 0.683144 (Simulation time: 1 hr 17 min 46 sec) 
Heartbeat CPU 0 instructions: 130000002 cycles: 143697933 heartbeat IPC: 0.583136 cumulative IPC: 0.681683 (Simulation time: 1 hr 18 min 12 sec) 
Heartbeat CPU 0 instructions: 131000002 cycles: 145321498 heartbeat IPC: 0.615929 cumulative IPC: 0.680786 (Simulation time: 1 hr 18 min 37 sec) 
Heartbeat CPU 0 instructions: 132000000 cycles: 148412108 heartbeat IPC: 0.32356 cumulative IPC: 0.671741 (Simulation time: 1 hr 19 min 8 sec) 
Heartbeat CPU 0 instructions: 133000000 cycles: 151693494 heartbeat IPC: 0.304749 cumulative IPC: 0.662134 (Simulation time: 1 hr 19 min 42 sec) 
Heartbeat CPU 0 instructions: 134000000 cycles: 155111975 heartbeat IPC: 0.292528 cumulative IPC: 0.652322 (Simulation time: 1 hr 20 min 14 sec) 
Heartbeat CPU 0 instructions: 135000001 cycles: 158461075 heartbeat IPC: 0.298588 cumulative IPC: 0.643356 (Simulation time: 1 hr 20 min 47 sec) 
Heartbeat CPU 0 instructions: 136000000 cycles: 159550112 heartbeat IPC: 0.918242 cumulative IPC: 0.645603 (Simulation time: 1 hr 21 min 8 sec) 
Heartbeat CPU 0 instructions: 137000001 cycles: 160615283 heartbeat IPC: 0.938817 cumulative IPC: 0.647929 (Simulation time: 1 hr 21 min 28 sec) 
Heartbeat CPU 0 instructions: 138000000 cycles: 161640336 heartbeat IPC: 0.975558 cumulative IPC: 0.650411 (Simulation time: 1 hr 21 min 48 sec) 
Heartbeat CPU 0 instructions: 139000000 cycles: 162608272 heartbeat IPC: 1.03313 cumulative IPC: 0.65313 (Simulation time: 1 hr 22 min 6 sec) 
Heartbeat CPU 0 instructions: 140000000 cycles: 163540754 heartbeat IPC: 1.07241 cumulative IPC: 0.655979 (Simulation time: 1 hr 22 min 23 sec) 
Heartbeat CPU 0 instructions: 141000002 cycles: 164449766 heartbeat IPC: 1.1001 cumulative IPC: 0.658902 (Simulation time: 1 hr 22 min 40 sec) 
Heartbeat CPU 0 instructions: 142000000 cycles: 165355221 heartbeat IPC: 1.10441 cumulative IPC: 0.661804 (Simulation time: 1 hr 22 min 57 sec) 
Heartbeat CPU 0 instructions: 143000000 cycles: 166241211 heartbeat IPC: 1.12868 cumulative IPC: 0.664761 (Simulation time: 1 hr 23 min 14 sec) 
Heartbeat CPU 0 instructions: 144000000 cycles: 167161990 heartbeat IPC: 1.08604 cumulative IPC: 0.667516 (Simulation time: 1 hr 23 min 30 sec) 
Heartbeat CPU 0 instructions: 145000003 cycles: 168090361 heartbeat IPC: 1.07716 cumulative IPC: 0.670199 (Simulation time: 1 hr 23 min 44 sec) 
Heartbeat CPU 0 instructions: 146000000 cycles: 169047819 heartbeat IPC: 1.04443 cumulative IPC: 0.672709 (Simulation time: 1 hr 24 min 0 sec) 
Heartbeat CPU 0 instructions: 147000002 cycles: 170010039 heartbeat IPC: 1.03927 cumulative IPC: 0.675164 (Simulation time: 1 hr 24 min 15 sec) 
Heartbeat CPU 0 instructions: 148000000 cycles: 170907526 heartbeat IPC: 1.11422 cumulative IPC: 0.67789 (Simulation time: 1 hr 24 min 29 sec) 
Heartbeat CPU 0 instructions: 149000001 cycles: 171795531 heartbeat IPC: 1.12612 cumulative IPC: 0.680627 (Simulation time: 1 hr 24 min 43 sec) 
Heartbeat CPU 0 instructions: 150000001 cycles: 172678977 heartbeat IPC: 1.13193 cumulative IPC: 0.683351 (Simulation time: 1 hr 24 min 58 sec) 
Finished CPU 0 instructions: 100000000 cycles: 146337670 cummulative IPC: 0.683351 (Simulation time: 1 hr 24 min 58 sec) 

ChampSim completed all CPUs

Region of Interest Statistics

CPU 0 cummulative IPC: 0.683351 instructions: 100000000 cycles: 146337670
LLC TOTAL     ACCESS:    2157295  HIT:     271069  MISS:    1886226
LLC LOAD      ACCESS:     100822  HIT:      15862  MISS:      84960
LLC RFO       ACCESS:     516097  HIT:       2701  MISS:     513396
LLC PREFETCH  ACCESS:     928582  HIT:      69517  MISS:     859065
LLC WRITEBACK ACCESS:     611794  HIT:     182989  MISS:     428805
OPTgen accesses: 11655
OPTgen hits: 1569
OPTgen hit rate: 13.462


