
*** ChampSim Multicore Out-of-Order Simulator ***

Warmup Instructions: 50000000
Simulation Instructions: 100000000
Configuration: 2
Number of CPUs: 1
LLC sets: 2048
LLC ways: 16
Off-chip DRAM Channels: 1 Width: 64-bit Data Rate: 1600 MT/s

CPU 0 runs /datasets/cs240c-wi22-a00-public/data/Assignment2-gz/astar_23B.trace.gz
CPU 0 L1D next line prefetcher
CPU 0 L2C IP-based stride prefetcher
Initialize Hawkeye state
Heartbeat CPU 0 instructions: 1000000 cycles: 359869 heartbeat IPC: 2.77879 cumulative IPC: 2.77879 (Simulation time: 0 hr 0 min 33 sec) 
Heartbeat CPU 0 instructions: 2000001 cycles: 720498 heartbeat IPC: 2.77294 cumulative IPC: 2.77586 (Simulation time: 0 hr 1 min 5 sec) 
Heartbeat CPU 0 instructions: 3000000 cycles: 1079245 heartbeat IPC: 2.78748 cumulative IPC: 2.77972 (Simulation time: 0 hr 1 min 35 sec) 
Heartbeat CPU 0 instructions: 4000000 cycles: 1440499 heartbeat IPC: 2.76814 cumulative IPC: 2.77682 (Simulation time: 0 hr 2 min 5 sec) 
Heartbeat CPU 0 instructions: 5000000 cycles: 1802439 heartbeat IPC: 2.76289 cumulative IPC: 2.77402 (Simulation time: 0 hr 2 min 40 sec) 
Heartbeat CPU 0 instructions: 6000002 cycles: 2163910 heartbeat IPC: 2.76648 cumulative IPC: 2.77276 (Simulation time: 0 hr 3 min 10 sec) 
Heartbeat CPU 0 instructions: 7000002 cycles: 2525202 heartbeat IPC: 2.76784 cumulative IPC: 2.77206 (Simulation time: 0 hr 3 min 41 sec) 
Heartbeat CPU 0 instructions: 8000000 cycles: 2887899 heartbeat IPC: 2.75712 cumulative IPC: 2.77018 (Simulation time: 0 hr 4 min 11 sec) 
Heartbeat CPU 0 instructions: 9000000 cycles: 3250621 heartbeat IPC: 2.75693 cumulative IPC: 2.7687 (Simulation time: 0 hr 4 min 42 sec) 
Heartbeat CPU 0 instructions: 10000003 cycles: 3615245 heartbeat IPC: 2.74256 cumulative IPC: 2.76607 (Simulation time: 0 hr 5 min 13 sec) 
Heartbeat CPU 0 instructions: 11000000 cycles: 3979319 heartbeat IPC: 2.74669 cumulative IPC: 2.76429 (Simulation time: 0 hr 5 min 48 sec) 
Heartbeat CPU 0 instructions: 12000000 cycles: 4343809 heartbeat IPC: 2.74356 cumulative IPC: 2.76255 (Simulation time: 0 hr 6 min 18 sec) 
Heartbeat CPU 0 instructions: 13000001 cycles: 4706262 heartbeat IPC: 2.75898 cumulative IPC: 2.76228 (Simulation time: 0 hr 6 min 50 sec) 
Heartbeat CPU 0 instructions: 14000003 cycles: 5069096 heartbeat IPC: 2.75609 cumulative IPC: 2.76183 (Simulation time: 0 hr 7 min 24 sec) 
Heartbeat CPU 0 instructions: 15000003 cycles: 5431707 heartbeat IPC: 2.75778 cumulative IPC: 2.76156 (Simulation time: 0 hr 7 min 54 sec) 
Heartbeat CPU 0 instructions: 16000000 cycles: 5794049 heartbeat IPC: 2.75982 cumulative IPC: 2.76145 (Simulation time: 0 hr 8 min 29 sec) 
Heartbeat CPU 0 instructions: 17000000 cycles: 6155188 heartbeat IPC: 2.76902 cumulative IPC: 2.7619 (Simulation time: 0 hr 9 min 2 sec) 
Heartbeat CPU 0 instructions: 18000001 cycles: 6515371 heartbeat IPC: 2.77637 cumulative IPC: 2.7627 (Simulation time: 0 hr 9 min 33 sec) 
Heartbeat CPU 0 instructions: 19000002 cycles: 6876050 heartbeat IPC: 2.77255 cumulative IPC: 2.76321 (Simulation time: 0 hr 10 min 3 sec) 
Heartbeat CPU 0 instructions: 20000000 cycles: 7236049 heartbeat IPC: 2.77778 cumulative IPC: 2.76394 (Simulation time: 0 hr 10 min 34 sec) 
Heartbeat CPU 0 instructions: 21000001 cycles: 7596965 heartbeat IPC: 2.77073 cumulative IPC: 2.76426 (Simulation time: 0 hr 11 min 5 sec) 
Heartbeat CPU 0 instructions: 22000000 cycles: 7958985 heartbeat IPC: 2.76228 cumulative IPC: 2.76417 (Simulation time: 0 hr 11 min 33 sec) 
Heartbeat CPU 0 instructions: 23000000 cycles: 8320214 heartbeat IPC: 2.76833 cumulative IPC: 2.76435 (Simulation time: 0 hr 12 min 6 sec) 
Heartbeat CPU 0 instructions: 24000000 cycles: 8681015 heartbeat IPC: 2.77161 cumulative IPC: 2.76465 (Simulation time: 0 hr 12 min 39 sec) 
Heartbeat CPU 0 instructions: 25000001 cycles: 9041604 heartbeat IPC: 2.77324 cumulative IPC: 2.765 (Simulation time: 0 hr 13 min 13 sec) 
Heartbeat CPU 0 instructions: 26000002 cycles: 9402713 heartbeat IPC: 2.76925 cumulative IPC: 2.76516 (Simulation time: 0 hr 13 min 44 sec) 
Heartbeat CPU 0 instructions: 27000000 cycles: 9763215 heartbeat IPC: 2.7739 cumulative IPC: 2.76548 (Simulation time: 0 hr 14 min 18 sec) 
Heartbeat CPU 0 instructions: 28000000 cycles: 10124496 heartbeat IPC: 2.76793 cumulative IPC: 2.76557 (Simulation time: 0 hr 14 min 50 sec) 
Heartbeat CPU 0 instructions: 29000000 cycles: 10485988 heartbeat IPC: 2.76631 cumulative IPC: 2.7656 (Simulation time: 0 hr 15 min 21 sec) 
Heartbeat CPU 0 instructions: 30000000 cycles: 10848150 heartbeat IPC: 2.7612 cumulative IPC: 2.76545 (Simulation time: 0 hr 15 min 54 sec) 
Heartbeat CPU 0 instructions: 31000001 cycles: 11209319 heartbeat IPC: 2.76879 cumulative IPC: 2.76556 (Simulation time: 0 hr 16 min 25 sec) 
Heartbeat CPU 0 instructions: 32000000 cycles: 11570039 heartbeat IPC: 2.77223 cumulative IPC: 2.76576 (Simulation time: 0 hr 17 min 2 sec) 
Heartbeat CPU 0 instructions: 33000002 cycles: 11930963 heartbeat IPC: 2.77067 cumulative IPC: 2.76591 (Simulation time: 0 hr 17 min 35 sec) 
Heartbeat CPU 0 instructions: 34000001 cycles: 12292587 heartbeat IPC: 2.7653 cumulative IPC: 2.76589 (Simulation time: 0 hr 18 min 7 sec) 
Heartbeat CPU 0 instructions: 35000000 cycles: 12653294 heartbeat IPC: 2.77233 cumulative IPC: 2.76608 (Simulation time: 0 hr 18 min 41 sec) 
Heartbeat CPU 0 instructions: 36000000 cycles: 13013133 heartbeat IPC: 2.77902 cumulative IPC: 2.76644 (Simulation time: 0 hr 19 min 14 sec) 
Heartbeat CPU 0 instructions: 37000000 cycles: 13372958 heartbeat IPC: 2.77913 cumulative IPC: 2.76678 (Simulation time: 0 hr 19 min 49 sec) 
Heartbeat CPU 0 instructions: 38000003 cycles: 13733011 heartbeat IPC: 2.77738 cumulative IPC: 2.76706 (Simulation time: 0 hr 20 min 25 sec) 
Heartbeat CPU 0 instructions: 39000003 cycles: 14093626 heartbeat IPC: 2.77304 cumulative IPC: 2.76721 (Simulation time: 0 hr 20 min 57 sec) 
Heartbeat CPU 0 instructions: 40000000 cycles: 14453877 heartbeat IPC: 2.77583 cumulative IPC: 2.76742 (Simulation time: 0 hr 21 min 31 sec) 
Heartbeat CPU 0 instructions: 41000002 cycles: 14813998 heartbeat IPC: 2.77685 cumulative IPC: 2.76765 (Simulation time: 0 hr 22 min 10 sec) 
Heartbeat CPU 0 instructions: 42000003 cycles: 15175810 heartbeat IPC: 2.76387 cumulative IPC: 2.76756 (Simulation time: 0 hr 22 min 44 sec) 
Heartbeat CPU 0 instructions: 43000003 cycles: 15537000 heartbeat IPC: 2.76863 cumulative IPC: 2.76759 (Simulation time: 0 hr 23 min 19 sec) 
Heartbeat CPU 0 instructions: 44000000 cycles: 15899924 heartbeat IPC: 2.75539 cumulative IPC: 2.76731 (Simulation time: 0 hr 23 min 53 sec) 
Heartbeat CPU 0 instructions: 45000002 cycles: 16264041 heartbeat IPC: 2.74638 cumulative IPC: 2.76684 (Simulation time: 0 hr 24 min 26 sec) 
Heartbeat CPU 0 instructions: 46000001 cycles: 16628067 heartbeat IPC: 2.74705 cumulative IPC: 2.76641 (Simulation time: 0 hr 25 min 0 sec) 
Heartbeat CPU 0 instructions: 47000002 cycles: 16991880 heartbeat IPC: 2.74867 cumulative IPC: 2.76603 (Simulation time: 0 hr 25 min 34 sec) 
Heartbeat CPU 0 instructions: 48000000 cycles: 17354259 heartbeat IPC: 2.75954 cumulative IPC: 2.76589 (Simulation time: 0 hr 26 min 8 sec) 
Heartbeat CPU 0 instructions: 49000000 cycles: 17716466 heartbeat IPC: 2.76085 cumulative IPC: 2.76579 (Simulation time: 0 hr 26 min 39 sec) 
Heartbeat CPU 0 instructions: 50000000 cycles: 18078275 heartbeat IPC: 2.76389 cumulative IPC: 2.76575 (Simulation time: 0 hr 27 min 10 sec) 

Warmup complete CPU 0 instructions: 50000004 cycles: 18078276 (Simulation time: 0 hr 27 min 10 sec) 

Heartbeat CPU 0 instructions: 51000001 cycles: 21806694 heartbeat IPC: 0.26821 cumulative IPC: 0.268209 (Simulation time: 0 hr 27 min 43 sec) 
Heartbeat CPU 0 instructions: 52000000 cycles: 25780257 heartbeat IPC: 0.251663 cumulative IPC: 0.259673 (Simulation time: 0 hr 28 min 15 sec) 
Heartbeat CPU 0 instructions: 53000000 cycles: 28588838 heartbeat IPC: 0.356052 cumulative IPC: 0.285427 (Simulation time: 0 hr 28 min 46 sec) 
Heartbeat CPU 0 instructions: 54000002 cycles: 31446832 heartbeat IPC: 0.349896 cumulative IPC: 0.299209 (Simulation time: 0 hr 29 min 16 sec) 
Heartbeat CPU 0 instructions: 55000002 cycles: 34260505 heartbeat IPC: 0.355407 cumulative IPC: 0.308981 (Simulation time: 0 hr 29 min 47 sec) 
Heartbeat CPU 0 instructions: 56000000 cycles: 37021780 heartbeat IPC: 0.362151 cumulative IPC: 0.316731 (Simulation time: 0 hr 30 min 18 sec) 
Heartbeat CPU 0 instructions: 57000000 cycles: 39612492 heartbeat IPC: 0.385994 cumulative IPC: 0.325064 (Simulation time: 0 hr 30 min 53 sec) 
Heartbeat CPU 0 instructions: 58000001 cycles: 42180583 heartbeat IPC: 0.389395 cumulative IPC: 0.331918 (Simulation time: 0 hr 31 min 26 sec) 
Heartbeat CPU 0 instructions: 59000000 cycles: 44950348 heartbeat IPC: 0.361041 cumulative IPC: 0.33492 (Simulation time: 0 hr 31 min 55 sec) 
Heartbeat CPU 0 instructions: 60000000 cycles: 47524578 heartbeat IPC: 0.388466 cumulative IPC: 0.339601 (Simulation time: 0 hr 32 min 26 sec) 
Heartbeat CPU 0 instructions: 61000000 cycles: 50017358 heartbeat IPC: 0.401159 cumulative IPC: 0.344406 (Simulation time: 0 hr 32 min 57 sec) 
Heartbeat CPU 0 instructions: 62000003 cycles: 52487000 heartbeat IPC: 0.404918 cumulative IPC: 0.348749 (Simulation time: 0 hr 33 min 27 sec) 
Heartbeat CPU 0 instructions: 63000000 cycles: 55105426 heartbeat IPC: 0.381908 cumulative IPC: 0.351094 (Simulation time: 0 hr 33 min 57 sec) 
Heartbeat CPU 0 instructions: 64000000 cycles: 57630334 heartbeat IPC: 0.396054 cumulative IPC: 0.353964 (Simulation time: 0 hr 34 min 27 sec) 
Heartbeat CPU 0 instructions: 65000000 cycles: 60074797 heartbeat IPC: 0.409088 cumulative IPC: 0.357172 (Simulation time: 0 hr 34 min 57 sec) 
Heartbeat CPU 0 instructions: 66000000 cycles: 62539470 heartbeat IPC: 0.405733 cumulative IPC: 0.359864 (Simulation time: 0 hr 35 min 29 sec) 
Heartbeat CPU 0 instructions: 67000000 cycles: 65013137 heartbeat IPC: 0.404258 cumulative IPC: 0.362204 (Simulation time: 0 hr 36 min 9 sec) 
Heartbeat CPU 0 instructions: 68000000 cycles: 67404744 heartbeat IPC: 0.418129 cumulative IPC: 0.364916 (Simulation time: 0 hr 36 min 40 sec) 
Heartbeat CPU 0 instructions: 69000000 cycles: 69986705 heartbeat IPC: 0.387303 cumulative IPC: 0.366029 (Simulation time: 0 hr 37 min 13 sec) 
Heartbeat CPU 0 instructions: 70000000 cycles: 72523581 heartbeat IPC: 0.394186 cumulative IPC: 0.367341 (Simulation time: 0 hr 37 min 51 sec) 
Heartbeat CPU 0 instructions: 71000001 cycles: 75120481 heartbeat IPC: 0.385075 cumulative IPC: 0.368148 (Simulation time: 0 hr 38 min 21 sec) 
Heartbeat CPU 0 instructions: 72000000 cycles: 77745195 heartbeat IPC: 0.380994 cumulative IPC: 0.368713 (Simulation time: 0 hr 38 min 51 sec) 
Heartbeat CPU 0 instructions: 73000001 cycles: 80247694 heartbeat IPC: 0.399601 cumulative IPC: 0.369957 (Simulation time: 0 hr 39 min 21 sec) 
Heartbeat CPU 0 instructions: 74000002 cycles: 82495322 heartbeat IPC: 0.444914 cumulative IPC: 0.372572 (Simulation time: 0 hr 39 min 49 sec) 
Heartbeat CPU 0 instructions: 75000002 cycles: 84983334 heartbeat IPC: 0.401927 cumulative IPC: 0.373664 (Simulation time: 0 hr 40 min 22 sec) 
Heartbeat CPU 0 instructions: 76000000 cycles: 87476991 heartbeat IPC: 0.401017 cumulative IPC: 0.374647 (Simulation time: 0 hr 40 min 55 sec) 
Heartbeat CPU 0 instructions: 77000000 cycles: 90537044 heartbeat IPC: 0.326792 cumulative IPC: 0.372626 (Simulation time: 0 hr 41 min 24 sec) 
Heartbeat CPU 0 instructions: 78000003 cycles: 93553328 heartbeat IPC: 0.331535 cumulative IPC: 0.370984 (Simulation time: 0 hr 41 min 56 sec) 
Heartbeat CPU 0 instructions: 79000001 cycles: 96001851 heartbeat IPC: 0.408409 cumulative IPC: 0.372159 (Simulation time: 0 hr 42 min 28 sec) 
Heartbeat CPU 0 instructions: 80000000 cycles: 98572409 heartbeat IPC: 0.38902 cumulative IPC: 0.372698 (Simulation time: 0 hr 42 min 59 sec) 
Heartbeat CPU 0 instructions: 81000001 cycles: 101171671 heartbeat IPC: 0.384725 cumulative IPC: 0.373074 (Simulation time: 0 hr 43 min 33 sec) 
Heartbeat CPU 0 instructions: 82000002 cycles: 103714965 heartbeat IPC: 0.393191 cumulative IPC: 0.373672 (Simulation time: 0 hr 44 min 8 sec) 
Heartbeat CPU 0 instructions: 83000002 cycles: 106150630 heartbeat IPC: 0.410565 cumulative IPC: 0.374692 (Simulation time: 0 hr 44 min 41 sec) 
Heartbeat CPU 0 instructions: 84000000 cycles: 108626444 heartbeat IPC: 0.403907 cumulative IPC: 0.375491 (Simulation time: 0 hr 45 min 13 sec) 
Heartbeat CPU 0 instructions: 85000000 cycles: 111126048 heartbeat IPC: 0.400063 cumulative IPC: 0.376151 (Simulation time: 0 hr 45 min 43 sec) 
Heartbeat CPU 0 instructions: 86000001 cycles: 113531457 heartbeat IPC: 0.41573 cumulative IPC: 0.377148 (Simulation time: 0 hr 46 min 15 sec) 
Heartbeat CPU 0 instructions: 87000000 cycles: 115900406 heartbeat IPC: 0.422128 cumulative IPC: 0.378237 (Simulation time: 0 hr 46 min 51 sec) 
Heartbeat CPU 0 instructions: 88000000 cycles: 118419158 heartbeat IPC: 0.397022 cumulative IPC: 0.378709 (Simulation time: 0 hr 47 min 20 sec) 
Heartbeat CPU 0 instructions: 89000000 cycles: 120962821 heartbeat IPC: 0.393134 cumulative IPC: 0.379066 (Simulation time: 0 hr 47 min 51 sec) 
Heartbeat CPU 0 instructions: 90000001 cycles: 123444368 heartbeat IPC: 0.402975 cumulative IPC: 0.379629 (Simulation time: 0 hr 48 min 23 sec) 
Heartbeat CPU 0 instructions: 91000000 cycles: 125882940 heartbeat IPC: 0.410076 cumulative IPC: 0.380317 (Simulation time: 0 hr 48 min 57 sec) 
Heartbeat CPU 0 instructions: 92000000 cycles: 128819656 heartbeat IPC: 0.340516 cumulative IPC: 0.379262 (Simulation time: 0 hr 49 min 27 sec) 
Heartbeat CPU 0 instructions: 93000000 cycles: 131351132 heartbeat IPC: 0.395026 cumulative IPC: 0.379614 (Simulation time: 0 hr 49 min 58 sec) 
Heartbeat CPU 0 instructions: 94000003 cycles: 133889884 heartbeat IPC: 0.393896 cumulative IPC: 0.379927 (Simulation time: 0 hr 50 min 30 sec) 
Heartbeat CPU 0 instructions: 95000000 cycles: 136316204 heartbeat IPC: 0.412146 cumulative IPC: 0.380589 (Simulation time: 0 hr 50 min 57 sec) 
Heartbeat CPU 0 instructions: 96000000 cycles: 138830071 heartbeat IPC: 0.397794 cumulative IPC: 0.380947 (Simulation time: 0 hr 51 min 28 sec) 
Heartbeat CPU 0 instructions: 97000000 cycles: 141258441 heartbeat IPC: 0.411799 cumulative IPC: 0.381555 (Simulation time: 0 hr 51 min 59 sec) 
Heartbeat CPU 0 instructions: 98000000 cycles: 143778325 heartbeat IPC: 0.396844 cumulative IPC: 0.381861 (Simulation time: 0 hr 52 min 30 sec) 
Heartbeat CPU 0 instructions: 99000002 cycles: 146735711 heartbeat IPC: 0.338137 cumulative IPC: 0.380856 (Simulation time: 0 hr 53 min 2 sec) 
Heartbeat CPU 0 instructions: 100000000 cycles: 149486018 heartbeat IPC: 0.363595 cumulative IPC: 0.380495 (Simulation time: 0 hr 53 min 34 sec) 
Heartbeat CPU 0 instructions: 101000000 cycles: 152418028 heartbeat IPC: 0.341063 cumulative IPC: 0.379634 (Simulation time: 0 hr 54 min 5 sec) 
Heartbeat CPU 0 instructions: 102000001 cycles: 155882217 heartbeat IPC: 0.288668 cumulative IPC: 0.377348 (Simulation time: 0 hr 54 min 37 sec) 
Heartbeat CPU 0 instructions: 103000002 cycles: 159356881 heartbeat IPC: 0.287798 cumulative IPC: 0.375145 (Simulation time: 0 hr 55 min 10 sec) 
Heartbeat CPU 0 instructions: 104000000 cycles: 162460465 heartbeat IPC: 0.322207 cumulative IPC: 0.374007 (Simulation time: 0 hr 55 min 44 sec) 
Heartbeat CPU 0 instructions: 105000001 cycles: 165264181 heartbeat IPC: 0.35667 cumulative IPC: 0.373677 (Simulation time: 0 hr 56 min 15 sec) 
Heartbeat CPU 0 instructions: 106000001 cycles: 167875417 heartbeat IPC: 0.38296 cumulative IPC: 0.373839 (Simulation time: 0 hr 56 min 48 sec) 
Heartbeat CPU 0 instructions: 107000002 cycles: 170646988 heartbeat IPC: 0.360807 cumulative IPC: 0.373602 (Simulation time: 0 hr 57 min 20 sec) 
Heartbeat CPU 0 instructions: 108000000 cycles: 173568802 heartbeat IPC: 0.342252 cumulative IPC: 0.373013 (Simulation time: 0 hr 57 min 51 sec) 
Heartbeat CPU 0 instructions: 109000003 cycles: 176622707 heartbeat IPC: 0.327451 cumulative IPC: 0.372135 (Simulation time: 0 hr 58 min 19 sec) 
Heartbeat CPU 0 instructions: 110000003 cycles: 179614685 heartbeat IPC: 0.334227 cumulative IPC: 0.371433 (Simulation time: 0 hr 58 min 52 sec) 
Heartbeat CPU 0 instructions: 111000001 cycles: 182754163 heartbeat IPC: 0.318524 cumulative IPC: 0.370425 (Simulation time: 0 hr 59 min 25 sec) 
Heartbeat CPU 0 instructions: 112000000 cycles: 185939229 heartbeat IPC: 0.313965 cumulative IPC: 0.369353 (Simulation time: 0 hr 59 min 58 sec) 
Heartbeat CPU 0 instructions: 113000001 cycles: 188821575 heartbeat IPC: 0.34694 cumulative IPC: 0.368975 (Simulation time: 1 hr 0 min 29 sec) 
Heartbeat CPU 0 instructions: 114000000 cycles: 191557591 heartbeat IPC: 0.365495 cumulative IPC: 0.36892 (Simulation time: 1 hr 1 min 0 sec) 
Heartbeat CPU 0 instructions: 115000000 cycles: 194296434 heartbeat IPC: 0.365118 cumulative IPC: 0.368861 (Simulation time: 1 hr 1 min 32 sec) 
Heartbeat CPU 0 instructions: 116000000 cycles: 196997783 heartbeat IPC: 0.370185 cumulative IPC: 0.368881 (Simulation time: 1 hr 2 min 9 sec) 
Heartbeat CPU 0 instructions: 117000001 cycles: 199346900 heartbeat IPC: 0.425692 cumulative IPC: 0.369617 (Simulation time: 1 hr 2 min 42 sec) 
Heartbeat CPU 0 instructions: 118000002 cycles: 201632859 heartbeat IPC: 0.437454 cumulative IPC: 0.370462 (Simulation time: 1 hr 3 min 12 sec) 
Heartbeat CPU 0 instructions: 119000002 cycles: 204151708 heartbeat IPC: 0.397007 cumulative IPC: 0.370821 (Simulation time: 1 hr 3 min 42 sec) 
Heartbeat CPU 0 instructions: 120000000 cycles: 206905879 heartbeat IPC: 0.363085 cumulative IPC: 0.370708 (Simulation time: 1 hr 4 min 19 sec) 
Heartbeat CPU 0 instructions: 121000002 cycles: 209611403 heartbeat IPC: 0.369615 cumulative IPC: 0.370693 (Simulation time: 1 hr 4 min 50 sec) 
Heartbeat CPU 0 instructions: 122000001 cycles: 212549993 heartbeat IPC: 0.340299 cumulative IPC: 0.370234 (Simulation time: 1 hr 5 min 20 sec) 
Heartbeat CPU 0 instructions: 123000000 cycles: 215815962 heartbeat IPC: 0.306188 cumulative IPC: 0.369176 (Simulation time: 1 hr 5 min 53 sec) 
Heartbeat CPU 0 instructions: 124000000 cycles: 219357384 heartbeat IPC: 0.282372 cumulative IPC: 0.367649 (Simulation time: 1 hr 6 min 24 sec) 
Heartbeat CPU 0 instructions: 125000002 cycles: 222905568 heartbeat IPC: 0.281835 cumulative IPC: 0.366162 (Simulation time: 1 hr 6 min 56 sec) 
Heartbeat CPU 0 instructions: 126000000 cycles: 226828959 heartbeat IPC: 0.254881 cumulative IPC: 0.364071 (Simulation time: 1 hr 7 min 28 sec) 
Heartbeat CPU 0 instructions: 127000002 cycles: 231020145 heartbeat IPC: 0.238596 cumulative IPC: 0.361601 (Simulation time: 1 hr 8 min 3 sec) 
Heartbeat CPU 0 instructions: 128000000 cycles: 235152714 heartbeat IPC: 0.24198 cumulative IPC: 0.359324 (Simulation time: 1 hr 8 min 32 sec) 
Heartbeat CPU 0 instructions: 129000003 cycles: 239347309 heartbeat IPC: 0.238403 cumulative IPC: 0.357031 (Simulation time: 1 hr 9 min 2 sec) 
Heartbeat CPU 0 instructions: 130000003 cycles: 243471907 heartbeat IPC: 0.242448 cumulative IPC: 0.354935 (Simulation time: 1 hr 9 min 30 sec) 
Heartbeat CPU 0 instructions: 131000000 cycles: 247379782 heartbeat IPC: 0.255893 cumulative IPC: 0.353247 (Simulation time: 1 hr 10 min 0 sec) 
Heartbeat CPU 0 instructions: 132000000 cycles: 251475640 heartbeat IPC: 0.244149 cumulative IPC: 0.351332 (Simulation time: 1 hr 10 min 28 sec) 
Heartbeat CPU 0 instructions: 133000002 cycles: 255460987 heartbeat IPC: 0.25092 cumulative IPC: 0.349646 (Simulation time: 1 hr 10 min 54 sec) 
Heartbeat CPU 0 instructions: 134000000 cycles: 259457577 heartbeat IPC: 0.250213 cumulative IPC: 0.348 (Simulation time: 1 hr 11 min 22 sec) 
Heartbeat CPU 0 instructions: 135000001 cycles: 263657721 heartbeat IPC: 0.238087 cumulative IPC: 0.34612 (Simulation time: 1 hr 11 min 48 sec) 
Heartbeat CPU 0 instructions: 136000000 cycles: 268134758 heartbeat IPC: 0.223362 cumulative IPC: 0.343922 (Simulation time: 1 hr 12 min 16 sec) 
Heartbeat CPU 0 instructions: 137000000 cycles: 272762763 heartbeat IPC: 0.216076 cumulative IPC: 0.341599 (Simulation time: 1 hr 12 min 43 sec) 
Heartbeat CPU 0 instructions: 138000000 cycles: 276609373 heartbeat IPC: 0.259969 cumulative IPC: 0.340385 (Simulation time: 1 hr 13 min 8 sec) 
Heartbeat CPU 0 instructions: 139000001 cycles: 278893587 heartbeat IPC: 0.437788 cumulative IPC: 0.341238 (Simulation time: 1 hr 13 min 31 sec) 
Heartbeat CPU 0 instructions: 140000000 cycles: 281469504 heartbeat IPC: 0.388211 cumulative IPC: 0.341697 (Simulation time: 1 hr 13 min 56 sec) 
Heartbeat CPU 0 instructions: 141000000 cycles: 283618044 heartbeat IPC: 0.465432 cumulative IPC: 0.342698 (Simulation time: 1 hr 14 min 19 sec) 
Heartbeat CPU 0 instructions: 142000000 cycles: 285980308 heartbeat IPC: 0.423323 cumulative IPC: 0.343409 (Simulation time: 1 hr 14 min 42 sec) 
Heartbeat CPU 0 instructions: 143000000 cycles: 288545184 heartbeat IPC: 0.389882 cumulative IPC: 0.34385 (Simulation time: 1 hr 15 min 4 sec) 
Heartbeat CPU 0 instructions: 144000000 cycles: 291075786 heartbeat IPC: 0.395163 cumulative IPC: 0.344325 (Simulation time: 1 hr 15 min 27 sec) 
Heartbeat CPU 0 instructions: 145000000 cycles: 293486426 heartbeat IPC: 0.414828 cumulative IPC: 0.344943 (Simulation time: 1 hr 15 min 52 sec) 
Heartbeat CPU 0 instructions: 146000001 cycles: 296275316 heartbeat IPC: 0.358566 cumulative IPC: 0.345079 (Simulation time: 1 hr 16 min 19 sec) 
Heartbeat CPU 0 instructions: 147000001 cycles: 298937514 heartbeat IPC: 0.375629 cumulative IPC: 0.345369 (Simulation time: 1 hr 16 min 41 sec) 
Heartbeat CPU 0 instructions: 148000000 cycles: 301615992 heartbeat IPC: 0.373346 cumulative IPC: 0.345633 (Simulation time: 1 hr 17 min 3 sec) 
Heartbeat CPU 0 instructions: 149000002 cycles: 304200291 heartbeat IPC: 0.386953 cumulative IPC: 0.346006 (Simulation time: 1 hr 17 min 26 sec) 
Heartbeat CPU 0 instructions: 150000001 cycles: 307370445 heartbeat IPC: 0.315442 cumulative IPC: 0.345671 (Simulation time: 1 hr 17 min 49 sec) 
Finished CPU 0 instructions: 100000000 cycles: 289292187 cummulative IPC: 0.345671 (Simulation time: 1 hr 17 min 49 sec) 

ChampSim completed all CPUs

Region of Interest Statistics

CPU 0 cummulative IPC: 0.345671 instructions: 100000000 cycles: 289292187
LLC TOTAL     ACCESS:    5177841  HIT:    4881190  MISS:     296651
LLC LOAD      ACCESS:    2110912  HIT:    2001081  MISS:     109831
LLC RFO       ACCESS:      25552  HIT:      25053  MISS:        499
LLC PREFETCH  ACCESS:    2248619  HIT:    2064336  MISS:     184283
LLC WRITEBACK ACCESS:     792758  HIT:     790720  MISS:       2038
OPTgen accesses: 51963
OPTgen hits: 64469
OPTgen hit rate: 124.067


