
*** ChampSim Multicore Out-of-Order Simulator ***

Warmup Instructions: 50000000
Simulation Instructions: 100000000
Configuration: 2
Number of CPUs: 1
LLC sets: 2048
LLC ways: 16
Off-chip DRAM Channels: 1 Width: 64-bit Data Rate: 1600 MT/s

CPU 0 runs /datasets/cs240c-wi22-a00-public/data/Assignment2-gz/libquantum_1210B.trace.gz
CPU 0 L1D next line prefetcher
CPU 0 L2C IP-based stride prefetcher
Initialize Hawkeye state
Heartbeat CPU 0 instructions: 1000003 cycles: 314916 heartbeat IPC: 3.17546 cumulative IPC: 3.17546 (Simulation time: 0 hr 0 min 23 sec) 
Heartbeat CPU 0 instructions: 2000000 cycles: 630170 heartbeat IPC: 3.17204 cumulative IPC: 3.17375 (Simulation time: 0 hr 0 min 39 sec) 
Heartbeat CPU 0 instructions: 3000001 cycles: 945979 heartbeat IPC: 3.16647 cumulative IPC: 3.17132 (Simulation time: 0 hr 0 min 56 sec) 
Heartbeat CPU 0 instructions: 4000000 cycles: 1260333 heartbeat IPC: 3.18112 cumulative IPC: 3.17376 (Simulation time: 0 hr 1 min 14 sec) 
Heartbeat CPU 0 instructions: 5000001 cycles: 1576818 heartbeat IPC: 3.15971 cumulative IPC: 3.17094 (Simulation time: 0 hr 1 min 32 sec) 
Heartbeat CPU 0 instructions: 6000002 cycles: 1891318 heartbeat IPC: 3.17965 cumulative IPC: 3.17239 (Simulation time: 0 hr 1 min 52 sec) 
Heartbeat CPU 0 instructions: 7000001 cycles: 2206981 heartbeat IPC: 3.16793 cumulative IPC: 3.17175 (Simulation time: 0 hr 2 min 10 sec) 
Heartbeat CPU 0 instructions: 8000000 cycles: 2522385 heartbeat IPC: 3.17053 cumulative IPC: 3.1716 (Simulation time: 0 hr 2 min 28 sec) 
Heartbeat CPU 0 instructions: 9000002 cycles: 2837144 heartbeat IPC: 3.17704 cumulative IPC: 3.1722 (Simulation time: 0 hr 2 min 46 sec) 
Heartbeat CPU 0 instructions: 10000003 cycles: 3153454 heartbeat IPC: 3.16146 cumulative IPC: 3.17113 (Simulation time: 0 hr 3 min 5 sec) 
Heartbeat CPU 0 instructions: 11000001 cycles: 3467723 heartbeat IPC: 3.18198 cumulative IPC: 3.17211 (Simulation time: 0 hr 3 min 23 sec) 
Heartbeat CPU 0 instructions: 12000000 cycles: 3783792 heartbeat IPC: 3.16386 cumulative IPC: 3.17142 (Simulation time: 0 hr 3 min 43 sec) 
Heartbeat CPU 0 instructions: 13000003 cycles: 4264651 heartbeat IPC: 2.07962 cumulative IPC: 3.04832 (Simulation time: 0 hr 4 min 5 sec) 
Heartbeat CPU 0 instructions: 14000001 cycles: 4772750 heartbeat IPC: 1.96812 cumulative IPC: 2.93332 (Simulation time: 0 hr 4 min 31 sec) 
Heartbeat CPU 0 instructions: 15000001 cycles: 5279404 heartbeat IPC: 1.97373 cumulative IPC: 2.84123 (Simulation time: 0 hr 4 min 55 sec) 
Heartbeat CPU 0 instructions: 16000000 cycles: 5788628 heartbeat IPC: 1.96377 cumulative IPC: 2.76404 (Simulation time: 0 hr 5 min 17 sec) 
Heartbeat CPU 0 instructions: 17000000 cycles: 6300340 heartbeat IPC: 1.95422 cumulative IPC: 2.69827 (Simulation time: 0 hr 5 min 39 sec) 
Heartbeat CPU 0 instructions: 18000000 cycles: 6813181 heartbeat IPC: 1.94992 cumulative IPC: 2.64194 (Simulation time: 0 hr 6 min 2 sec) 
Heartbeat CPU 0 instructions: 19000000 cycles: 7323126 heartbeat IPC: 1.961 cumulative IPC: 2.59452 (Simulation time: 0 hr 6 min 24 sec) 
Heartbeat CPU 0 instructions: 20000000 cycles: 7831196 heartbeat IPC: 1.96823 cumulative IPC: 2.55389 (Simulation time: 0 hr 6 min 47 sec) 
Heartbeat CPU 0 instructions: 21000000 cycles: 8339286 heartbeat IPC: 1.96816 cumulative IPC: 2.5182 (Simulation time: 0 hr 7 min 12 sec) 
Heartbeat CPU 0 instructions: 22000003 cycles: 8847294 heartbeat IPC: 1.96848 cumulative IPC: 2.48664 (Simulation time: 0 hr 7 min 35 sec) 
Heartbeat CPU 0 instructions: 23000000 cycles: 9352298 heartbeat IPC: 1.98018 cumulative IPC: 2.45929 (Simulation time: 0 hr 7 min 56 sec) 
Heartbeat CPU 0 instructions: 24000000 cycles: 9862866 heartbeat IPC: 1.9586 cumulative IPC: 2.43337 (Simulation time: 0 hr 8 min 19 sec) 
Heartbeat CPU 0 instructions: 25000000 cycles: 10374319 heartbeat IPC: 1.95521 cumulative IPC: 2.4098 (Simulation time: 0 hr 8 min 41 sec) 
Heartbeat CPU 0 instructions: 26000000 cycles: 10886972 heartbeat IPC: 1.95064 cumulative IPC: 2.38818 (Simulation time: 0 hr 9 min 5 sec) 
Heartbeat CPU 0 instructions: 27000000 cycles: 11395325 heartbeat IPC: 1.96714 cumulative IPC: 2.36939 (Simulation time: 0 hr 9 min 28 sec) 
Heartbeat CPU 0 instructions: 28000000 cycles: 11881150 heartbeat IPC: 2.05835 cumulative IPC: 2.35667 (Simulation time: 0 hr 9 min 52 sec) 
Heartbeat CPU 0 instructions: 29000002 cycles: 12220214 heartbeat IPC: 2.9493 cumulative IPC: 2.37312 (Simulation time: 0 hr 10 min 11 sec) 
Heartbeat CPU 0 instructions: 30000001 cycles: 12559582 heartbeat IPC: 2.94665 cumulative IPC: 2.38861 (Simulation time: 0 hr 10 min 32 sec) 
Heartbeat CPU 0 instructions: 31000000 cycles: 12898996 heartbeat IPC: 2.94625 cumulative IPC: 2.40329 (Simulation time: 0 hr 10 min 53 sec) 
Heartbeat CPU 0 instructions: 32000000 cycles: 13238401 heartbeat IPC: 2.94633 cumulative IPC: 2.41721 (Simulation time: 0 hr 11 min 14 sec) 
Heartbeat CPU 0 instructions: 33000000 cycles: 13577811 heartbeat IPC: 2.94629 cumulative IPC: 2.43044 (Simulation time: 0 hr 11 min 34 sec) 
Heartbeat CPU 0 instructions: 34000002 cycles: 13917221 heartbeat IPC: 2.9463 cumulative IPC: 2.44302 (Simulation time: 0 hr 11 min 57 sec) 
Heartbeat CPU 0 instructions: 35000001 cycles: 14256633 heartbeat IPC: 2.94627 cumulative IPC: 2.455 (Simulation time: 0 hr 12 min 18 sec) 
Heartbeat CPU 0 instructions: 36000000 cycles: 14595999 heartbeat IPC: 2.94667 cumulative IPC: 2.46643 (Simulation time: 0 hr 12 min 37 sec) 
Heartbeat CPU 0 instructions: 37000003 cycles: 14935386 heartbeat IPC: 2.9465 cumulative IPC: 2.47734 (Simulation time: 0 hr 12 min 56 sec) 
Heartbeat CPU 0 instructions: 38000002 cycles: 15274795 heartbeat IPC: 2.94629 cumulative IPC: 2.48776 (Simulation time: 0 hr 13 min 17 sec) 
Heartbeat CPU 0 instructions: 39000001 cycles: 15614204 heartbeat IPC: 2.94629 cumulative IPC: 2.49773 (Simulation time: 0 hr 13 min 37 sec) 
Heartbeat CPU 0 instructions: 40000000 cycles: 15953613 heartbeat IPC: 2.94629 cumulative IPC: 2.50727 (Simulation time: 0 hr 13 min 58 sec) 
Heartbeat CPU 0 instructions: 41000001 cycles: 16293025 heartbeat IPC: 2.94627 cumulative IPC: 2.51641 (Simulation time: 0 hr 14 min 19 sec) 
Heartbeat CPU 0 instructions: 42000000 cycles: 16632434 heartbeat IPC: 2.94629 cumulative IPC: 2.52519 (Simulation time: 0 hr 14 min 39 sec) 
Heartbeat CPU 0 instructions: 43000002 cycles: 16971844 heartbeat IPC: 2.9463 cumulative IPC: 2.53361 (Simulation time: 0 hr 15 min 2 sec) 
Heartbeat CPU 0 instructions: 44000000 cycles: 17311253 heartbeat IPC: 2.94629 cumulative IPC: 2.5417 (Simulation time: 0 hr 15 min 26 sec) 
Heartbeat CPU 0 instructions: 45000000 cycles: 17650662 heartbeat IPC: 2.9463 cumulative IPC: 2.54948 (Simulation time: 0 hr 15 min 47 sec) 
Heartbeat CPU 0 instructions: 46000003 cycles: 17990072 heartbeat IPC: 2.9463 cumulative IPC: 2.55697 (Simulation time: 0 hr 16 min 6 sec) 
Heartbeat CPU 0 instructions: 47000001 cycles: 18367322 heartbeat IPC: 2.65076 cumulative IPC: 2.55889 (Simulation time: 0 hr 16 min 28 sec) 
Heartbeat CPU 0 instructions: 48000000 cycles: 18874712 heartbeat IPC: 1.97087 cumulative IPC: 2.54309 (Simulation time: 0 hr 16 min 51 sec) 
Heartbeat CPU 0 instructions: 49000000 cycles: 19367506 heartbeat IPC: 2.02925 cumulative IPC: 2.53001 (Simulation time: 0 hr 17 min 14 sec) 
Heartbeat CPU 0 instructions: 50000001 cycles: 19868141 heartbeat IPC: 1.99747 cumulative IPC: 2.51659 (Simulation time: 0 hr 17 min 38 sec) 

Warmup complete CPU 0 instructions: 50000001 cycles: 19868141 (Simulation time: 0 hr 17 min 38 sec) 

Heartbeat CPU 0 instructions: 51000000 cycles: 22178873 heartbeat IPC: 0.432763 cumulative IPC: 0.432763 (Simulation time: 0 hr 18 min 11 sec) 
Heartbeat CPU 0 instructions: 52000000 cycles: 24505086 heartbeat IPC: 0.429883 cumulative IPC: 0.431318 (Simulation time: 0 hr 18 min 44 sec) 
Heartbeat CPU 0 instructions: 53000003 cycles: 26739174 heartbeat IPC: 0.447611 cumulative IPC: 0.436616 (Simulation time: 0 hr 19 min 15 sec) 
Heartbeat CPU 0 instructions: 54000003 cycles: 28579241 heartbeat IPC: 0.543458 cumulative IPC: 0.459184 (Simulation time: 0 hr 19 min 45 sec) 
Heartbeat CPU 0 instructions: 55000002 cycles: 30877276 heartbeat IPC: 0.435154 cumulative IPC: 0.454168 (Simulation time: 0 hr 20 min 14 sec) 
Heartbeat CPU 0 instructions: 56000000 cycles: 33199782 heartbeat IPC: 0.430569 cumulative IPC: 0.450057 (Simulation time: 0 hr 20 min 44 sec) 
Heartbeat CPU 0 instructions: 57000001 cycles: 35519487 heartbeat IPC: 0.43109 cumulative IPC: 0.447246 (Simulation time: 0 hr 21 min 16 sec) 
Heartbeat CPU 0 instructions: 58000000 cycles: 37832011 heartbeat IPC: 0.432428 cumulative IPC: 0.445338 (Simulation time: 0 hr 21 min 47 sec) 
Heartbeat CPU 0 instructions: 59000000 cycles: 40149809 heartbeat IPC: 0.431444 cumulative IPC: 0.44375 (Simulation time: 0 hr 22 min 20 sec) 
Heartbeat CPU 0 instructions: 60000000 cycles: 42442458 heartbeat IPC: 0.436177 cumulative IPC: 0.442981 (Simulation time: 0 hr 22 min 55 sec) 
Heartbeat CPU 0 instructions: 61000001 cycles: 44755385 heartbeat IPC: 0.432353 cumulative IPC: 0.441994 (Simulation time: 0 hr 23 min 29 sec) 
Heartbeat CPU 0 instructions: 62000000 cycles: 47064449 heartbeat IPC: 0.433075 cumulative IPC: 0.441236 (Simulation time: 0 hr 24 min 4 sec) 
Heartbeat CPU 0 instructions: 63000001 cycles: 48929267 heartbeat IPC: 0.536246 cumulative IPC: 0.447333 (Simulation time: 0 hr 24 min 32 sec) 
Heartbeat CPU 0 instructions: 64000000 cycles: 51055287 heartbeat IPC: 0.470362 cumulative IPC: 0.448903 (Simulation time: 0 hr 25 min 0 sec) 
Heartbeat CPU 0 instructions: 65000000 cycles: 53184890 heartbeat IPC: 0.469571 cumulative IPC: 0.450224 (Simulation time: 0 hr 25 min 30 sec) 
Heartbeat CPU 0 instructions: 66000001 cycles: 55338347 heartbeat IPC: 0.46437 cumulative IPC: 0.451083 (Simulation time: 0 hr 25 min 59 sec) 
Heartbeat CPU 0 instructions: 67000000 cycles: 57438265 heartbeat IPC: 0.476209 cumulative IPC: 0.452487 (Simulation time: 0 hr 26 min 30 sec) 
Heartbeat CPU 0 instructions: 68000000 cycles: 59595313 heartbeat IPC: 0.463597 cumulative IPC: 0.45309 (Simulation time: 0 hr 26 min 58 sec) 
Heartbeat CPU 0 instructions: 69000002 cycles: 61740950 heartbeat IPC: 0.466063 cumulative IPC: 0.453755 (Simulation time: 0 hr 27 min 27 sec) 
Heartbeat CPU 0 instructions: 70000001 cycles: 63877727 heartbeat IPC: 0.467994 cumulative IPC: 0.454446 (Simulation time: 0 hr 27 min 58 sec) 
Heartbeat CPU 0 instructions: 71000000 cycles: 65444766 heartbeat IPC: 0.638146 cumulative IPC: 0.460762 (Simulation time: 0 hr 28 min 24 sec) 
Heartbeat CPU 0 instructions: 72000000 cycles: 67536725 heartbeat IPC: 0.478021 cumulative IPC: 0.46152 (Simulation time: 0 hr 28 min 51 sec) 
Heartbeat CPU 0 instructions: 73000002 cycles: 69694924 heartbeat IPC: 0.46335 cumulative IPC: 0.461599 (Simulation time: 0 hr 29 min 21 sec) 
Heartbeat CPU 0 instructions: 74000002 cycles: 71811994 heartbeat IPC: 0.472351 cumulative IPC: 0.462037 (Simulation time: 0 hr 29 min 51 sec) 
Heartbeat CPU 0 instructions: 75000001 cycles: 73954158 heartbeat IPC: 0.466817 cumulative IPC: 0.462227 (Simulation time: 0 hr 30 min 18 sec) 
Heartbeat CPU 0 instructions: 76000000 cycles: 76094671 heartbeat IPC: 0.467177 cumulative IPC: 0.462415 (Simulation time: 0 hr 30 min 48 sec) 
Heartbeat CPU 0 instructions: 77000000 cycles: 78228504 heartbeat IPC: 0.46864 cumulative IPC: 0.462643 (Simulation time: 0 hr 31 min 19 sec) 
Heartbeat CPU 0 instructions: 78000002 cycles: 80395820 heartbeat IPC: 0.461401 cumulative IPC: 0.462598 (Simulation time: 0 hr 31 min 47 sec) 
Heartbeat CPU 0 instructions: 79000001 cycles: 82511513 heartbeat IPC: 0.472658 cumulative IPC: 0.462938 (Simulation time: 0 hr 32 min 15 sec) 
Heartbeat CPU 0 instructions: 80000000 cycles: 84680264 heartbeat IPC: 0.461094 cumulative IPC: 0.462876 (Simulation time: 0 hr 32 min 43 sec) 
Heartbeat CPU 0 instructions: 81000000 cycles: 86807622 heartbeat IPC: 0.470067 cumulative IPC: 0.463105 (Simulation time: 0 hr 33 min 11 sec) 
Heartbeat CPU 0 instructions: 82000000 cycles: 88946707 heartbeat IPC: 0.46749 cumulative IPC: 0.463241 (Simulation time: 0 hr 33 min 39 sec) 
Heartbeat CPU 0 instructions: 83000001 cycles: 91002056 heartbeat IPC: 0.486536 cumulative IPC: 0.463914 (Simulation time: 0 hr 34 min 7 sec) 
Heartbeat CPU 0 instructions: 84000000 cycles: 93490868 heartbeat IPC: 0.401798 cumulative IPC: 0.461814 (Simulation time: 0 hr 34 min 42 sec) 
Heartbeat CPU 0 instructions: 85000001 cycles: 95985875 heartbeat IPC: 0.400801 cumulative IPC: 0.459814 (Simulation time: 0 hr 35 min 13 sec) 
Heartbeat CPU 0 instructions: 86000001 cycles: 98476005 heartbeat IPC: 0.401585 cumulative IPC: 0.457969 (Simulation time: 0 hr 35 min 46 sec) 
Heartbeat CPU 0 instructions: 87000003 cycles: 100985664 heartbeat IPC: 0.398461 cumulative IPC: 0.456128 (Simulation time: 0 hr 36 min 17 sec) 
Heartbeat CPU 0 instructions: 88000000 cycles: 103497677 heartbeat IPC: 0.398086 cumulative IPC: 0.454385 (Simulation time: 0 hr 36 min 48 sec) 
Heartbeat CPU 0 instructions: 89000001 cycles: 105608945 heartbeat IPC: 0.473649 cumulative IPC: 0.454859 (Simulation time: 0 hr 37 min 21 sec) 
Heartbeat CPU 0 instructions: 90000000 cycles: 107933119 heartbeat IPC: 0.43026 cumulative IPC: 0.45421 (Simulation time: 0 hr 37 min 52 sec) 
Heartbeat CPU 0 instructions: 91000002 cycles: 110426950 heartbeat IPC: 0.40099 cumulative IPC: 0.452744 (Simulation time: 0 hr 38 min 24 sec) 
Heartbeat CPU 0 instructions: 92000000 cycles: 112903016 heartbeat IPC: 0.403866 cumulative IPC: 0.451444 (Simulation time: 0 hr 38 min 54 sec) 
Heartbeat CPU 0 instructions: 93000003 cycles: 115399687 heartbeat IPC: 0.400535 cumulative IPC: 0.450113 (Simulation time: 0 hr 39 min 24 sec) 
Heartbeat CPU 0 instructions: 94000000 cycles: 117911426 heartbeat IPC: 0.398129 cumulative IPC: 0.448781 (Simulation time: 0 hr 39 min 56 sec) 
Heartbeat CPU 0 instructions: 95000002 cycles: 120424682 heartbeat IPC: 0.397891 cumulative IPC: 0.447509 (Simulation time: 0 hr 40 min 27 sec) 
Heartbeat CPU 0 instructions: 96000000 cycles: 122944561 heartbeat IPC: 0.396844 cumulative IPC: 0.446271 (Simulation time: 0 hr 40 min 58 sec) 
Heartbeat CPU 0 instructions: 97000001 cycles: 125464265 heartbeat IPC: 0.396872 cumulative IPC: 0.445092 (Simulation time: 0 hr 41 min 28 sec) 
Heartbeat CPU 0 instructions: 98000002 cycles: 127963733 heartbeat IPC: 0.400086 cumulative IPC: 0.444051 (Simulation time: 0 hr 41 min 59 sec) 
Heartbeat CPU 0 instructions: 99000002 cycles: 129334540 heartbeat IPC: 0.729497 cumulative IPC: 0.447626 (Simulation time: 0 hr 42 min 29 sec) 
Heartbeat CPU 0 instructions: 100000000 cycles: 130761206 heartbeat IPC: 0.700934 cumulative IPC: 0.450885 (Simulation time: 0 hr 43 min 0 sec) 
Heartbeat CPU 0 instructions: 101000000 cycles: 132187920 heartbeat IPC: 0.700911 cumulative IPC: 0.454061 (Simulation time: 0 hr 43 min 31 sec) 
Heartbeat CPU 0 instructions: 102000003 cycles: 133614514 heartbeat IPC: 0.700972 cumulative IPC: 0.457157 (Simulation time: 0 hr 44 min 0 sec) 
Heartbeat CPU 0 instructions: 103000002 cycles: 135041110 heartbeat IPC: 0.700969 cumulative IPC: 0.460177 (Simulation time: 0 hr 44 min 29 sec) 
Heartbeat CPU 0 instructions: 104000000 cycles: 136467774 heartbeat IPC: 0.700934 cumulative IPC: 0.463123 (Simulation time: 0 hr 44 min 57 sec) 
Heartbeat CPU 0 instructions: 105000000 cycles: 137894488 heartbeat IPC: 0.700911 cumulative IPC: 0.465998 (Simulation time: 0 hr 45 min 28 sec) 
Heartbeat CPU 0 instructions: 106000001 cycles: 139113515 heartbeat IPC: 0.820327 cumulative IPC: 0.46962 (Simulation time: 0 hr 45 min 57 sec) 
Heartbeat CPU 0 instructions: 107000000 cycles: 140396267 heartbeat IPC: 0.779573 cumulative IPC: 0.472919 (Simulation time: 0 hr 46 min 25 sec) 
Heartbeat CPU 0 instructions: 108000000 cycles: 141822932 heartbeat IPC: 0.700935 cumulative IPC: 0.475586 (Simulation time: 0 hr 46 min 54 sec) 
Heartbeat CPU 0 instructions: 109000001 cycles: 143249648 heartbeat IPC: 0.700911 cumulative IPC: 0.478192 (Simulation time: 0 hr 47 min 23 sec) 
Heartbeat CPU 0 instructions: 110000000 cycles: 144676240 heartbeat IPC: 0.700971 cumulative IPC: 0.480738 (Simulation time: 0 hr 47 min 57 sec) 
Heartbeat CPU 0 instructions: 111000001 cycles: 146102840 heartbeat IPC: 0.700968 cumulative IPC: 0.483227 (Simulation time: 0 hr 48 min 27 sec) 
Heartbeat CPU 0 instructions: 112000000 cycles: 147529502 heartbeat IPC: 0.700936 cumulative IPC: 0.48566 (Simulation time: 0 hr 49 min 2 sec) 
Heartbeat CPU 0 instructions: 113000001 cycles: 148956233 heartbeat IPC: 0.700904 cumulative IPC: 0.488039 (Simulation time: 0 hr 49 min 35 sec) 
Heartbeat CPU 0 instructions: 114000000 cycles: 150383014 heartbeat IPC: 0.700878 cumulative IPC: 0.490366 (Simulation time: 0 hr 50 min 6 sec) 
Heartbeat CPU 0 instructions: 115000000 cycles: 151809605 heartbeat IPC: 0.700972 cumulative IPC: 0.492643 (Simulation time: 0 hr 50 min 37 sec) 
Heartbeat CPU 0 instructions: 116000000 cycles: 153236196 heartbeat IPC: 0.700972 cumulative IPC: 0.494871 (Simulation time: 0 hr 51 min 8 sec) 
Heartbeat CPU 0 instructions: 117000000 cycles: 154652051 heartbeat IPC: 0.706287 cumulative IPC: 0.497092 (Simulation time: 0 hr 51 min 38 sec) 
Heartbeat CPU 0 instructions: 118000000 cycles: 156635688 heartbeat IPC: 0.504125 cumulative IPC: 0.497194 (Simulation time: 0 hr 52 min 8 sec) 
Heartbeat CPU 0 instructions: 119000000 cycles: 158936452 heartbeat IPC: 0.434638 cumulative IPC: 0.496159 (Simulation time: 0 hr 52 min 39 sec) 
Heartbeat CPU 0 instructions: 120000000 cycles: 161240860 heartbeat IPC: 0.433951 cumulative IPC: 0.495145 (Simulation time: 0 hr 53 min 15 sec) 
Heartbeat CPU 0 instructions: 121000003 cycles: 163551296 heartbeat IPC: 0.43282 cumulative IPC: 0.494143 (Simulation time: 0 hr 53 min 50 sec) 
Heartbeat CPU 0 instructions: 122000000 cycles: 165870071 heartbeat IPC: 0.431261 cumulative IPC: 0.493144 (Simulation time: 0 hr 54 min 22 sec) 
Heartbeat CPU 0 instructions: 123000001 cycles: 168178618 heartbeat IPC: 0.433173 cumulative IPC: 0.492211 (Simulation time: 0 hr 54 min 56 sec) 
Heartbeat CPU 0 instructions: 124000000 cycles: 169966444 heartbeat IPC: 0.559338 cumulative IPC: 0.49301 (Simulation time: 0 hr 55 min 26 sec) 
Heartbeat CPU 0 instructions: 125000001 cycles: 172265416 heartbeat IPC: 0.434977 cumulative IPC: 0.492135 (Simulation time: 0 hr 55 min 57 sec) 
Heartbeat CPU 0 instructions: 126000001 cycles: 174574864 heartbeat IPC: 0.433004 cumulative IPC: 0.491252 (Simulation time: 0 hr 56 min 27 sec) 
Heartbeat CPU 0 instructions: 127000003 cycles: 176881599 heartbeat IPC: 0.433514 cumulative IPC: 0.490404 (Simulation time: 0 hr 56 min 58 sec) 
Heartbeat CPU 0 instructions: 128000000 cycles: 179203376 heartbeat IPC: 0.430703 cumulative IPC: 0.489534 (Simulation time: 0 hr 57 min 30 sec) 
Heartbeat CPU 0 instructions: 129000002 cycles: 181516699 heartbeat IPC: 0.432279 cumulative IPC: 0.488715 (Simulation time: 0 hr 58 min 1 sec) 
Heartbeat CPU 0 instructions: 130000002 cycles: 183817700 heartbeat IPC: 0.434593 cumulative IPC: 0.487955 (Simulation time: 0 hr 58 min 33 sec) 
Heartbeat CPU 0 instructions: 131000002 cycles: 186123362 heartbeat IPC: 0.433715 cumulative IPC: 0.487203 (Simulation time: 0 hr 59 min 5 sec) 
Heartbeat CPU 0 instructions: 132000000 cycles: 188446136 heartbeat IPC: 0.430519 cumulative IPC: 0.486422 (Simulation time: 0 hr 59 min 35 sec) 
Heartbeat CPU 0 instructions: 133000000 cycles: 190284242 heartbeat IPC: 0.544038 cumulative IPC: 0.487043 (Simulation time: 1 hr 0 min 8 sec) 
Heartbeat CPU 0 instructions: 134000003 cycles: 191738088 heartbeat IPC: 0.687833 cumulative IPC: 0.488742 (Simulation time: 1 hr 0 min 38 sec) 
Heartbeat CPU 0 instructions: 135000002 cycles: 193248012 heartbeat IPC: 0.662284 cumulative IPC: 0.490253 (Simulation time: 1 hr 1 min 10 sec) 
Heartbeat CPU 0 instructions: 136000000 cycles: 194758006 heartbeat IPC: 0.662253 cumulative IPC: 0.491738 (Simulation time: 1 hr 1 min 44 sec) 
Heartbeat CPU 0 instructions: 137000000 cycles: 196268049 heartbeat IPC: 0.662233 cumulative IPC: 0.493198 (Simulation time: 1 hr 2 min 14 sec) 
Heartbeat CPU 0 instructions: 138000001 cycles: 197778172 heartbeat IPC: 0.662198 cumulative IPC: 0.494632 (Simulation time: 1 hr 2 min 44 sec) 
Heartbeat CPU 0 instructions: 139000000 cycles: 199288092 heartbeat IPC: 0.662286 cumulative IPC: 0.496043 (Simulation time: 1 hr 3 min 14 sec) 
Heartbeat CPU 0 instructions: 140000000 cycles: 200786641 heartbeat IPC: 0.667312 cumulative IPC: 0.497462 (Simulation time: 1 hr 3 min 44 sec) 
Heartbeat CPU 0 instructions: 141000001 cycles: 201903225 heartbeat IPC: 0.89559 cumulative IPC: 0.499904 (Simulation time: 1 hr 4 min 13 sec) 
Heartbeat CPU 0 instructions: 142000000 cycles: 203413143 heartbeat IPC: 0.662287 cumulative IPC: 0.501239 (Simulation time: 1 hr 4 min 47 sec) 
Heartbeat CPU 0 instructions: 143000003 cycles: 204923071 heartbeat IPC: 0.662285 cumulative IPC: 0.502554 (Simulation time: 1 hr 5 min 16 sec) 
Heartbeat CPU 0 instructions: 144000000 cycles: 206433063 heartbeat IPC: 0.662253 cumulative IPC: 0.503846 (Simulation time: 1 hr 5 min 45 sec) 
Heartbeat CPU 0 instructions: 145000001 cycles: 207943105 heartbeat IPC: 0.662234 cumulative IPC: 0.505118 (Simulation time: 1 hr 6 min 14 sec) 
Heartbeat CPU 0 instructions: 146000000 cycles: 209453025 heartbeat IPC: 0.662286 cumulative IPC: 0.506369 (Simulation time: 1 hr 6 min 46 sec) 
Heartbeat CPU 0 instructions: 147000001 cycles: 210962950 heartbeat IPC: 0.662285 cumulative IPC: 0.507601 (Simulation time: 1 hr 7 min 15 sec) 
Heartbeat CPU 0 instructions: 148000000 cycles: 212472942 heartbeat IPC: 0.662255 cumulative IPC: 0.508814 (Simulation time: 1 hr 7 min 45 sec) 
Heartbeat CPU 0 instructions: 149000002 cycles: 213982986 heartbeat IPC: 0.662234 cumulative IPC: 0.510007 (Simulation time: 1 hr 8 min 14 sec) 
Heartbeat CPU 0 instructions: 150000001 cycles: 215492906 heartbeat IPC: 0.662286 cumulative IPC: 0.511183 (Simulation time: 1 hr 8 min 41 sec) 
Finished CPU 0 instructions: 100000000 cycles: 195624765 cummulative IPC: 0.511183 (Simulation time: 1 hr 8 min 41 sec) 

ChampSim completed all CPUs

Region of Interest Statistics

CPU 0 cummulative IPC: 0.511183 instructions: 100000000 cycles: 195624765
LLC TOTAL     ACCESS:    3948315  HIT:     238859  MISS:    3709456
LLC LOAD      ACCESS:     889746  HIT:      45898  MISS:     843848
LLC RFO       ACCESS:         21  HIT:         21  MISS:          0
LLC PREFETCH  ACCESS:    2104158  HIT:     106504  MISS:    1997654
LLC WRITEBACK ACCESS:     954390  HIT:      86436  MISS:     867954
OPTgen accesses: 15143
OPTgen hits: 10
OPTgen hit rate: 0.0660371


