
*** ChampSim Multicore Out-of-Order Simulator ***

Warmup Instructions: 50000000
Simulation Instructions: 100000000
Configuration: 2
Number of CPUs: 1
LLC sets: 2048
LLC ways: 16
Off-chip DRAM Channels: 1 Width: 64-bit Data Rate: 1600 MT/s

CPU 0 runs /datasets/cs240c-wi22-a00-public/data/Assignment2-gz/GemsFDTD_716B.trace.gz
CPU 0 L1D next line prefetcher
CPU 0 L2C IP-based stride prefetcher
Initialize Hawkeye state
Heartbeat CPU 0 instructions: 1000000 cycles: 415045 heartbeat IPC: 2.40938 cumulative IPC: 2.40938 (Simulation time: 0 hr 0 min 33 sec) 
Heartbeat CPU 0 instructions: 2000003 cycles: 829979 heartbeat IPC: 2.41003 cumulative IPC: 2.4097 (Simulation time: 0 hr 1 min 1 sec) 
Heartbeat CPU 0 instructions: 3000000 cycles: 1280233 heartbeat IPC: 2.22096 cumulative IPC: 2.34332 (Simulation time: 0 hr 1 min 27 sec) 
Heartbeat CPU 0 instructions: 4000000 cycles: 1737264 heartbeat IPC: 2.18804 cumulative IPC: 2.30247 (Simulation time: 0 hr 1 min 54 sec) 
Heartbeat CPU 0 instructions: 5000000 cycles: 2152245 heartbeat IPC: 2.40975 cumulative IPC: 2.32316 (Simulation time: 0 hr 2 min 21 sec) 
Heartbeat CPU 0 instructions: 6000000 cycles: 2567261 heartbeat IPC: 2.40955 cumulative IPC: 2.33712 (Simulation time: 0 hr 2 min 52 sec) 
Heartbeat CPU 0 instructions: 7000000 cycles: 2982264 heartbeat IPC: 2.40962 cumulative IPC: 2.34721 (Simulation time: 0 hr 3 min 21 sec) 
Heartbeat CPU 0 instructions: 8000000 cycles: 3395191 heartbeat IPC: 2.42174 cumulative IPC: 2.35627 (Simulation time: 0 hr 3 min 51 sec) 
Heartbeat CPU 0 instructions: 9000003 cycles: 3840223 heartbeat IPC: 2.24704 cumulative IPC: 2.34361 (Simulation time: 0 hr 4 min 25 sec) 
Heartbeat CPU 0 instructions: 10000002 cycles: 4354523 heartbeat IPC: 1.94439 cumulative IPC: 2.29646 (Simulation time: 0 hr 5 min 6 sec) 
Heartbeat CPU 0 instructions: 11000000 cycles: 4869364 heartbeat IPC: 1.94234 cumulative IPC: 2.25902 (Simulation time: 0 hr 5 min 45 sec) 
Heartbeat CPU 0 instructions: 12000000 cycles: 5383711 heartbeat IPC: 1.94421 cumulative IPC: 2.22895 (Simulation time: 0 hr 6 min 28 sec) 
Heartbeat CPU 0 instructions: 13000002 cycles: 5898405 heartbeat IPC: 1.94291 cumulative IPC: 2.20399 (Simulation time: 0 hr 7 min 14 sec) 
Heartbeat CPU 0 instructions: 14000000 cycles: 6414336 heartbeat IPC: 1.93824 cumulative IPC: 2.18261 (Simulation time: 0 hr 7 min 58 sec) 
Heartbeat CPU 0 instructions: 15000001 cycles: 6934503 heartbeat IPC: 1.92246 cumulative IPC: 2.1631 (Simulation time: 0 hr 8 min 45 sec) 
Heartbeat CPU 0 instructions: 16000000 cycles: 7454724 heartbeat IPC: 1.92226 cumulative IPC: 2.14629 (Simulation time: 0 hr 9 min 28 sec) 
Heartbeat CPU 0 instructions: 17000001 cycles: 7975432 heartbeat IPC: 1.92046 cumulative IPC: 2.13155 (Simulation time: 0 hr 10 min 11 sec) 
Heartbeat CPU 0 instructions: 18000000 cycles: 8496344 heartbeat IPC: 1.91971 cumulative IPC: 2.11856 (Simulation time: 0 hr 10 min 53 sec) 
Heartbeat CPU 0 instructions: 19000003 cycles: 9017490 heartbeat IPC: 1.91885 cumulative IPC: 2.10702 (Simulation time: 0 hr 11 min 34 sec) 
Heartbeat CPU 0 instructions: 20000000 cycles: 9556084 heartbeat IPC: 1.85668 cumulative IPC: 2.09291 (Simulation time: 0 hr 12 min 15 sec) 
Heartbeat CPU 0 instructions: 21000000 cycles: 10098182 heartbeat IPC: 1.84468 cumulative IPC: 2.07958 (Simulation time: 0 hr 12 min 52 sec) 
Heartbeat CPU 0 instructions: 22000001 cycles: 10639171 heartbeat IPC: 1.84847 cumulative IPC: 2.06783 (Simulation time: 0 hr 13 min 32 sec) 
Heartbeat CPU 0 instructions: 23000003 cycles: 11180649 heartbeat IPC: 1.8468 cumulative IPC: 2.05713 (Simulation time: 0 hr 14 min 15 sec) 
Heartbeat CPU 0 instructions: 24000000 cycles: 11722891 heartbeat IPC: 1.84419 cumulative IPC: 2.04728 (Simulation time: 0 hr 14 min 57 sec) 
Heartbeat CPU 0 instructions: 25000000 cycles: 12250683 heartbeat IPC: 1.89469 cumulative IPC: 2.0407 (Simulation time: 0 hr 15 min 42 sec) 
Heartbeat CPU 0 instructions: 26000000 cycles: 12769419 heartbeat IPC: 1.92776 cumulative IPC: 2.03611 (Simulation time: 0 hr 16 min 23 sec) 
Heartbeat CPU 0 instructions: 27000002 cycles: 13288122 heartbeat IPC: 1.92789 cumulative IPC: 2.03189 (Simulation time: 0 hr 17 min 6 sec) 
Heartbeat CPU 0 instructions: 28000000 cycles: 13806585 heartbeat IPC: 1.92877 cumulative IPC: 2.02802 (Simulation time: 0 hr 17 min 48 sec) 
Heartbeat CPU 0 instructions: 29000003 cycles: 14324755 heartbeat IPC: 1.92987 cumulative IPC: 2.02447 (Simulation time: 0 hr 18 min 31 sec) 
Heartbeat CPU 0 instructions: 30000001 cycles: 14858472 heartbeat IPC: 1.87365 cumulative IPC: 2.01905 (Simulation time: 0 hr 19 min 11 sec) 
Heartbeat CPU 0 instructions: 31000001 cycles: 15419709 heartbeat IPC: 1.78178 cumulative IPC: 2.01041 (Simulation time: 0 hr 19 min 52 sec) 
Heartbeat CPU 0 instructions: 32000000 cycles: 15980982 heartbeat IPC: 1.78166 cumulative IPC: 2.00238 (Simulation time: 0 hr 20 min 32 sec) 
Heartbeat CPU 0 instructions: 33000002 cycles: 16543229 heartbeat IPC: 1.77858 cumulative IPC: 1.99477 (Simulation time: 0 hr 21 min 12 sec) 
Heartbeat CPU 0 instructions: 34000001 cycles: 17104066 heartbeat IPC: 1.78305 cumulative IPC: 1.98783 (Simulation time: 0 hr 21 min 56 sec) 
Heartbeat CPU 0 instructions: 35000001 cycles: 17665357 heartbeat IPC: 1.78161 cumulative IPC: 1.98128 (Simulation time: 0 hr 22 min 37 sec) 
Heartbeat CPU 0 instructions: 36000000 cycles: 18228013 heartbeat IPC: 1.77728 cumulative IPC: 1.97498 (Simulation time: 0 hr 23 min 19 sec) 
Heartbeat CPU 0 instructions: 37000002 cycles: 18801939 heartbeat IPC: 1.74239 cumulative IPC: 1.96788 (Simulation time: 0 hr 24 min 2 sec) 
Heartbeat CPU 0 instructions: 38000002 cycles: 19375793 heartbeat IPC: 1.7426 cumulative IPC: 1.96121 (Simulation time: 0 hr 24 min 46 sec) 
Heartbeat CPU 0 instructions: 39000000 cycles: 19949488 heartbeat IPC: 1.74308 cumulative IPC: 1.95494 (Simulation time: 0 hr 25 min 25 sec) 
Heartbeat CPU 0 instructions: 40000000 cycles: 20523378 heartbeat IPC: 1.74249 cumulative IPC: 1.949 (Simulation time: 0 hr 26 min 6 sec) 
Heartbeat CPU 0 instructions: 41000002 cycles: 21096847 heartbeat IPC: 1.74378 cumulative IPC: 1.94342 (Simulation time: 0 hr 26 min 46 sec) 
Heartbeat CPU 0 instructions: 42000000 cycles: 21670611 heartbeat IPC: 1.74287 cumulative IPC: 1.93811 (Simulation time: 0 hr 27 min 26 sec) 
Heartbeat CPU 0 instructions: 43000002 cycles: 22218131 heartbeat IPC: 1.82642 cumulative IPC: 1.93536 (Simulation time: 0 hr 28 min 13 sec) 
Heartbeat CPU 0 instructions: 44000000 cycles: 22751727 heartbeat IPC: 1.87407 cumulative IPC: 1.93392 (Simulation time: 0 hr 28 min 55 sec) 
Heartbeat CPU 0 instructions: 45000001 cycles: 23285139 heartbeat IPC: 1.87473 cumulative IPC: 1.93256 (Simulation time: 0 hr 29 min 35 sec) 
Heartbeat CPU 0 instructions: 46000001 cycles: 23818678 heartbeat IPC: 1.87428 cumulative IPC: 1.93126 (Simulation time: 0 hr 30 min 20 sec) 
Heartbeat CPU 0 instructions: 47000003 cycles: 24352149 heartbeat IPC: 1.87452 cumulative IPC: 1.93001 (Simulation time: 0 hr 31 min 2 sec) 
Heartbeat CPU 0 instructions: 48000000 cycles: 24891905 heartbeat IPC: 1.85268 cumulative IPC: 1.92834 (Simulation time: 0 hr 31 min 42 sec) 
Heartbeat CPU 0 instructions: 49000003 cycles: 25438927 heartbeat IPC: 1.82809 cumulative IPC: 1.92618 (Simulation time: 0 hr 32 min 27 sec) 
Heartbeat CPU 0 instructions: 50000003 cycles: 25986054 heartbeat IPC: 1.82773 cumulative IPC: 1.92411 (Simulation time: 0 hr 33 min 8 sec) 

Warmup complete CPU 0 instructions: 50000003 cycles: 25986054 (Simulation time: 0 hr 33 min 8 sec) 

Heartbeat CPU 0 instructions: 51000003 cycles: 29571163 heartbeat IPC: 0.278932 cumulative IPC: 0.278932 (Simulation time: 0 hr 34 min 8 sec) 
Heartbeat CPU 0 instructions: 52000000 cycles: 33155615 heartbeat IPC: 0.278982 cumulative IPC: 0.278957 (Simulation time: 0 hr 35 min 5 sec) 
Heartbeat CPU 0 instructions: 53000002 cycles: 36888768 heartbeat IPC: 0.267871 cumulative IPC: 0.275161 (Simulation time: 0 hr 36 min 3 sec) 
Heartbeat CPU 0 instructions: 54000001 cycles: 39005368 heartbeat IPC: 0.472455 cumulative IPC: 0.307236 (Simulation time: 0 hr 36 min 52 sec) 
Heartbeat CPU 0 instructions: 55000002 cycles: 40811513 heartbeat IPC: 0.553666 cumulative IPC: 0.337258 (Simulation time: 0 hr 37 min 47 sec) 
Heartbeat CPU 0 instructions: 56000000 cycles: 42665503 heartbeat IPC: 0.539376 cumulative IPC: 0.359724 (Simulation time: 0 hr 38 min 37 sec) 
Heartbeat CPU 0 instructions: 57000002 cycles: 44505081 heartbeat IPC: 0.543604 cumulative IPC: 0.37799 (Simulation time: 0 hr 39 min 27 sec) 
Heartbeat CPU 0 instructions: 58000001 cycles: 46275855 heartbeat IPC: 0.564724 cumulative IPC: 0.394287 (Simulation time: 0 hr 40 min 17 sec) 
Heartbeat CPU 0 instructions: 59000002 cycles: 48417781 heartbeat IPC: 0.46687 cumulative IPC: 0.401217 (Simulation time: 0 hr 41 min 10 sec) 
Heartbeat CPU 0 instructions: 60000000 cycles: 49946274 heartbeat IPC: 0.654238 cumulative IPC: 0.417358 (Simulation time: 0 hr 42 min 0 sec) 
Heartbeat CPU 0 instructions: 61000002 cycles: 51475656 heartbeat IPC: 0.65386 cumulative IPC: 0.431548 (Simulation time: 0 hr 42 min 47 sec) 
Heartbeat CPU 0 instructions: 62000000 cycles: 53016338 heartbeat IPC: 0.649062 cumulative IPC: 0.443946 (Simulation time: 0 hr 43 min 34 sec) 
Heartbeat CPU 0 instructions: 63000000 cycles: 54575026 heartbeat IPC: 0.641565 cumulative IPC: 0.454721 (Simulation time: 0 hr 44 min 21 sec) 
Heartbeat CPU 0 instructions: 64000000 cycles: 56606763 heartbeat IPC: 0.49219 cumulative IPC: 0.457207 (Simulation time: 0 hr 45 min 10 sec) 
Heartbeat CPU 0 instructions: 65000001 cycles: 57986114 heartbeat IPC: 0.724979 cumulative IPC: 0.468749 (Simulation time: 0 hr 45 min 57 sec) 
Heartbeat CPU 0 instructions: 66000003 cycles: 59328957 heartbeat IPC: 0.74469 cumulative IPC: 0.479862 (Simulation time: 0 hr 46 min 46 sec) 
Heartbeat CPU 0 instructions: 67000003 cycles: 60671925 heartbeat IPC: 0.744619 cumulative IPC: 0.490113 (Simulation time: 0 hr 47 min 32 sec) 
Heartbeat CPU 0 instructions: 68000000 cycles: 62008782 heartbeat IPC: 0.748021 cumulative IPC: 0.499684 (Simulation time: 0 hr 48 min 23 sec) 
Heartbeat CPU 0 instructions: 69000000 cycles: 63343893 heartbeat IPC: 0.749001 cumulative IPC: 0.508595 (Simulation time: 0 hr 49 min 13 sec) 
Heartbeat CPU 0 instructions: 70000000 cycles: 65134426 heartbeat IPC: 0.558493 cumulative IPC: 0.510877 (Simulation time: 0 hr 50 min 2 sec) 
Heartbeat CPU 0 instructions: 71000000 cycles: 66674341 heartbeat IPC: 0.649386 cumulative IPC: 0.516119 (Simulation time: 0 hr 50 min 50 sec) 
Heartbeat CPU 0 instructions: 72000000 cycles: 68031963 heartbeat IPC: 0.736582 cumulative IPC: 0.523238 (Simulation time: 0 hr 51 min 39 sec) 
Heartbeat CPU 0 instructions: 73000002 cycles: 69392347 heartbeat IPC: 0.735088 cumulative IPC: 0.529877 (Simulation time: 0 hr 52 min 28 sec) 
Heartbeat CPU 0 instructions: 74000000 cycles: 70754481 heartbeat IPC: 0.734141 cumulative IPC: 0.536092 (Simulation time: 0 hr 53 min 15 sec) 
Heartbeat CPU 0 instructions: 75000000 cycles: 72121465 heartbeat IPC: 0.731537 cumulative IPC: 0.541883 (Simulation time: 0 hr 54 min 2 sec) 
Heartbeat CPU 0 instructions: 76000000 cycles: 73486584 heartbeat IPC: 0.732537 cumulative IPC: 0.547362 (Simulation time: 0 hr 54 min 46 sec) 
Heartbeat CPU 0 instructions: 77000001 cycles: 77045764 heartbeat IPC: 0.280964 cumulative IPC: 0.528793 (Simulation time: 0 hr 55 min 45 sec) 
Heartbeat CPU 0 instructions: 78000000 cycles: 80443117 heartbeat IPC: 0.294347 cumulative IPC: 0.514166 (Simulation time: 0 hr 56 min 48 sec) 
Heartbeat CPU 0 instructions: 79000002 cycles: 83829279 heartbeat IPC: 0.29532 cumulative IPC: 0.501355 (Simulation time: 0 hr 57 min 48 sec) 
Heartbeat CPU 0 instructions: 80000000 cycles: 87218721 heartbeat IPC: 0.295033 cumulative IPC: 0.489935 (Simulation time: 0 hr 58 min 50 sec) 
Heartbeat CPU 0 instructions: 81000000 cycles: 90607331 heartbeat IPC: 0.295106 cumulative IPC: 0.479718 (Simulation time: 0 hr 59 min 53 sec) 
Heartbeat CPU 0 instructions: 82000002 cycles: 94571322 heartbeat IPC: 0.252272 cumulative IPC: 0.466572 (Simulation time: 1 hr 0 min 54 sec) 
Heartbeat CPU 0 instructions: 83000002 cycles: 98188157 heartbeat IPC: 0.276485 cumulative IPC: 0.45705 (Simulation time: 1 hr 1 min 54 sec) 
Heartbeat CPU 0 instructions: 84000000 cycles: 101810699 heartbeat IPC: 0.276049 cumulative IPC: 0.448403 (Simulation time: 1 hr 2 min 58 sec) 
Heartbeat CPU 0 instructions: 85000000 cycles: 105430314 heartbeat IPC: 0.276272 cumulative IPC: 0.44056 (Simulation time: 1 hr 3 min 57 sec) 
Heartbeat CPU 0 instructions: 86000000 cycles: 109051524 heartbeat IPC: 0.276151 cumulative IPC: 0.433393 (Simulation time: 1 hr 5 min 3 sec) 
Heartbeat CPU 0 instructions: 87000000 cycles: 112752396 heartbeat IPC: 0.270207 cumulative IPC: 0.426433 (Simulation time: 1 hr 6 min 2 sec) 
Heartbeat CPU 0 instructions: 88000000 cycles: 114479539 heartbeat IPC: 0.578991 cumulative IPC: 0.42941 (Simulation time: 1 hr 6 min 53 sec) 
Heartbeat CPU 0 instructions: 89000001 cycles: 116087027 heartbeat IPC: 0.622089 cumulative IPC: 0.432848 (Simulation time: 1 hr 7 min 47 sec) 
Heartbeat CPU 0 instructions: 90000001 cycles: 117692551 heartbeat IPC: 0.62285 cumulative IPC: 0.436174 (Simulation time: 1 hr 8 min 36 sec) 
Heartbeat CPU 0 instructions: 91000001 cycles: 119302548 heartbeat IPC: 0.621119 cumulative IPC: 0.439365 (Simulation time: 1 hr 9 min 25 sec) 
Heartbeat CPU 0 instructions: 92000000 cycles: 120912352 heartbeat IPC: 0.621193 cumulative IPC: 0.442448 (Simulation time: 1 hr 10 min 13 sec) 
Heartbeat CPU 0 instructions: 93000002 cycles: 122999263 heartbeat IPC: 0.479178 cumulative IPC: 0.443239 (Simulation time: 1 hr 10 min 58 sec) 
Heartbeat CPU 0 instructions: 94000001 cycles: 124402131 heartbeat IPC: 0.712825 cumulative IPC: 0.447081 (Simulation time: 1 hr 11 min 39 sec) 
Heartbeat CPU 0 instructions: 95000000 cycles: 125798327 heartbeat IPC: 0.716231 cumulative IPC: 0.450846 (Simulation time: 1 hr 12 min 20 sec) 
Heartbeat CPU 0 instructions: 96000000 cycles: 127204574 heartbeat IPC: 0.711113 cumulative IPC: 0.454462 (Simulation time: 1 hr 13 min 0 sec) 
Heartbeat CPU 0 instructions: 97000001 cycles: 128605424 heartbeat IPC: 0.713853 cumulative IPC: 0.458003 (Simulation time: 1 hr 13 min 38 sec) 
Heartbeat CPU 0 instructions: 98000000 cycles: 130607274 heartbeat IPC: 0.499537 cumulative IPC: 0.458798 (Simulation time: 1 hr 14 min 15 sec) 
Heartbeat CPU 0 instructions: 99000001 cycles: 131970186 heartbeat IPC: 0.733724 cumulative IPC: 0.462333 (Simulation time: 1 hr 14 min 50 sec) 
Heartbeat CPU 0 instructions: 100000000 cycles: 133334830 heartbeat IPC: 0.732791 cumulative IPC: 0.465771 (Simulation time: 1 hr 15 min 25 sec) 
Heartbeat CPU 0 instructions: 101000002 cycles: 134694842 heartbeat IPC: 0.735289 cumulative IPC: 0.469143 (Simulation time: 1 hr 16 min 3 sec) 
Heartbeat CPU 0 instructions: 102000003 cycles: 136058082 heartbeat IPC: 0.733547 cumulative IPC: 0.472418 (Simulation time: 1 hr 16 min 38 sec) 
Heartbeat CPU 0 instructions: 103000000 cycles: 137418591 heartbeat IPC: 0.735017 cumulative IPC: 0.475624 (Simulation time: 1 hr 17 min 9 sec) 
Heartbeat CPU 0 instructions: 104000000 cycles: 139379660 heartbeat IPC: 0.509926 cumulative IPC: 0.476217 (Simulation time: 1 hr 17 min 44 sec) 
Heartbeat CPU 0 instructions: 105000003 cycles: 140855106 heartbeat IPC: 0.677763 cumulative IPC: 0.478806 (Simulation time: 1 hr 18 min 14 sec) 
Heartbeat CPU 0 instructions: 106000001 cycles: 142233382 heartbeat IPC: 0.725543 cumulative IPC: 0.481731 (Simulation time: 1 hr 18 min 44 sec) 
Heartbeat CPU 0 instructions: 107000001 cycles: 143621790 heartbeat IPC: 0.720249 cumulative IPC: 0.484547 (Simulation time: 1 hr 19 min 14 sec) 
Heartbeat CPU 0 instructions: 108000000 cycles: 145000120 heartbeat IPC: 0.725515 cumulative IPC: 0.487337 (Simulation time: 1 hr 19 min 43 sec) 
Heartbeat CPU 0 instructions: 109000000 cycles: 146379300 heartbeat IPC: 0.725069 cumulative IPC: 0.490061 (Simulation time: 1 hr 20 min 13 sec) 
Heartbeat CPU 0 instructions: 110000002 cycles: 148156393 heartbeat IPC: 0.562718 cumulative IPC: 0.491118 (Simulation time: 1 hr 20 min 44 sec) 
Heartbeat CPU 0 instructions: 111000002 cycles: 151664635 heartbeat IPC: 0.285043 cumulative IPC: 0.485365 (Simulation time: 1 hr 21 min 18 sec) 
Heartbeat CPU 0 instructions: 112000000 cycles: 155007883 heartbeat IPC: 0.29911 cumulative IPC: 0.480539 (Simulation time: 1 hr 21 min 51 sec) 
Heartbeat CPU 0 instructions: 113000001 cycles: 158346152 heartbeat IPC: 0.299557 cumulative IPC: 0.475974 (Simulation time: 1 hr 22 min 22 sec) 
Heartbeat CPU 0 instructions: 114000000 cycles: 161686816 heartbeat IPC: 0.299341 cumulative IPC: 0.471626 (Simulation time: 1 hr 22 min 53 sec) 
Heartbeat CPU 0 instructions: 115000002 cycles: 165020673 heartbeat IPC: 0.299953 cumulative IPC: 0.467509 (Simulation time: 1 hr 23 min 21 sec) 
Heartbeat CPU 0 instructions: 116000000 cycles: 168964260 heartbeat IPC: 0.253576 cumulative IPC: 0.461609 (Simulation time: 1 hr 23 min 51 sec) 
Heartbeat CPU 0 instructions: 117000000 cycles: 172567569 heartbeat IPC: 0.277523 cumulative IPC: 0.457084 (Simulation time: 1 hr 24 min 17 sec) 
Heartbeat CPU 0 instructions: 118000000 cycles: 176170586 heartbeat IPC: 0.277545 cumulative IPC: 0.452776 (Simulation time: 1 hr 24 min 44 sec) 
Heartbeat CPU 0 instructions: 119000003 cycles: 179776315 heartbeat IPC: 0.277337 cumulative IPC: 0.448663 (Simulation time: 1 hr 25 min 10 sec) 
Heartbeat CPU 0 instructions: 120000000 cycles: 183373664 heartbeat IPC: 0.277982 cumulative IPC: 0.444762 (Simulation time: 1 hr 25 min 34 sec) 
Heartbeat CPU 0 instructions: 121000001 cycles: 186771381 heartbeat IPC: 0.294316 cumulative IPC: 0.441583 (Simulation time: 1 hr 25 min 56 sec) 
Heartbeat CPU 0 instructions: 122000001 cycles: 188727167 heartbeat IPC: 0.511303 cumulative IPC: 0.44242 (Simulation time: 1 hr 26 min 14 sec) 
Heartbeat CPU 0 instructions: 123000000 cycles: 190661825 heartbeat IPC: 0.516887 cumulative IPC: 0.443295 (Simulation time: 1 hr 26 min 32 sec) 
Heartbeat CPU 0 instructions: 124000000 cycles: 192603951 heartbeat IPC: 0.5149 cumulative IPC: 0.44413 (Simulation time: 1 hr 26 min 49 sec) 
Heartbeat CPU 0 instructions: 125000001 cycles: 194544865 heartbeat IPC: 0.515222 cumulative IPC: 0.444949 (Simulation time: 1 hr 27 min 4 sec) 
Heartbeat CPU 0 instructions: 126000001 cycles: 196930499 heartbeat IPC: 0.419176 cumulative IPC: 0.444589 (Simulation time: 1 hr 27 min 19 sec) 
Heartbeat CPU 0 instructions: 127000000 cycles: 198978119 heartbeat IPC: 0.488371 cumulative IPC: 0.445107 (Simulation time: 1 hr 27 min 34 sec) 
Heartbeat CPU 0 instructions: 128000000 cycles: 200934473 heartbeat IPC: 0.511155 cumulative IPC: 0.445846 (Simulation time: 1 hr 27 min 48 sec) 
Heartbeat CPU 0 instructions: 129000000 cycles: 202824808 heartbeat IPC: 0.529007 cumulative IPC: 0.446735 (Simulation time: 1 hr 28 min 0 sec) 
Heartbeat CPU 0 instructions: 130000003 cycles: 204754651 heartbeat IPC: 0.518178 cumulative IPC: 0.447506 (Simulation time: 1 hr 28 min 12 sec) 
Heartbeat CPU 0 instructions: 131000001 cycles: 206721247 heartbeat IPC: 0.508492 cumulative IPC: 0.448169 (Simulation time: 1 hr 28 min 24 sec) 
Heartbeat CPU 0 instructions: 132000000 cycles: 208654334 heartbeat IPC: 0.517307 cumulative IPC: 0.448901 (Simulation time: 1 hr 28 min 34 sec) 
Heartbeat CPU 0 instructions: 133000000 cycles: 210000644 heartbeat IPC: 0.742771 cumulative IPC: 0.451051 (Simulation time: 1 hr 28 min 41 sec) 
Heartbeat CPU 0 instructions: 134000003 cycles: 211351325 heartbeat IPC: 0.740369 cumulative IPC: 0.453159 (Simulation time: 1 hr 28 min 48 sec) 
Heartbeat CPU 0 instructions: 135000001 cycles: 212703224 heartbeat IPC: 0.739699 cumulative IPC: 0.455234 (Simulation time: 1 hr 28 min 55 sec) 
Heartbeat CPU 0 instructions: 136000000 cycles: 214054119 heartbeat IPC: 0.740249 cumulative IPC: 0.457281 (Simulation time: 1 hr 29 min 2 sec) 
Heartbeat CPU 0 instructions: 137000001 cycles: 215404286 heartbeat IPC: 0.74065 cumulative IPC: 0.459301 (Simulation time: 1 hr 29 min 9 sec) 
Heartbeat CPU 0 instructions: 138000000 cycles: 217400006 heartbeat IPC: 0.501072 cumulative IPC: 0.459737 (Simulation time: 1 hr 29 min 16 sec) 
Heartbeat CPU 0 instructions: 139000001 cycles: 218783582 heartbeat IPC: 0.722766 cumulative IPC: 0.461624 (Simulation time: 1 hr 29 min 23 sec) 
Heartbeat CPU 0 instructions: 140000000 cycles: 220152937 heartbeat IPC: 0.73027 cumulative IPC: 0.463519 (Simulation time: 1 hr 29 min 30 sec) 
Heartbeat CPU 0 instructions: 141000000 cycles: 221526990 heartbeat IPC: 0.727774 cumulative IPC: 0.465376 (Simulation time: 1 hr 29 min 36 sec) 
Heartbeat CPU 0 instructions: 142000002 cycles: 222892346 heartbeat IPC: 0.732411 cumulative IPC: 0.467227 (Simulation time: 1 hr 29 min 42 sec) 
Heartbeat CPU 0 instructions: 143000000 cycles: 224257390 heartbeat IPC: 0.732576 cumulative IPC: 0.469054 (Simulation time: 1 hr 29 min 48 sec) 
Heartbeat CPU 0 instructions: 144000000 cycles: 225661322 heartbeat IPC: 0.712285 cumulative IPC: 0.470764 (Simulation time: 1 hr 29 min 53 sec) 
Heartbeat CPU 0 instructions: 145000000 cycles: 227120525 heartbeat IPC: 0.685306 cumulative IPC: 0.472321 (Simulation time: 1 hr 29 min 59 sec) 
Heartbeat CPU 0 instructions: 146000001 cycles: 228600422 heartbeat IPC: 0.675723 cumulative IPC: 0.473806 (Simulation time: 1 hr 30 min 3 sec) 
Heartbeat CPU 0 instructions: 147000003 cycles: 230190827 heartbeat IPC: 0.628772 cumulative IPC: 0.475013 (Simulation time: 1 hr 30 min 8 sec) 
Heartbeat CPU 0 instructions: 148000000 cycles: 231799052 heartbeat IPC: 0.621802 cumulative IPC: 0.47616 (Simulation time: 1 hr 30 min 14 sec) 
Heartbeat CPU 0 instructions: 149000002 cycles: 233379260 heartbeat IPC: 0.632829 cumulative IPC: 0.477354 (Simulation time: 1 hr 30 min 19 sec) 
Heartbeat CPU 0 instructions: 150000003 cycles: 234982795 heartbeat IPC: 0.623623 cumulative IPC: 0.478476 (Simulation time: 1 hr 30 min 24 sec) 
Finished CPU 0 instructions: 100000000 cycles: 208996741 cummulative IPC: 0.478476 (Simulation time: 1 hr 30 min 24 sec) 

ChampSim completed all CPUs

Region of Interest Statistics

CPU 0 cummulative IPC: 0.478476 instructions: 100000000 cycles: 208996741
LLC TOTAL     ACCESS:   12337679  HIT:   10077977  MISS:    2259702
LLC LOAD      ACCESS:    4933179  HIT:    4184369  MISS:     748810
LLC RFO       ACCESS:         16  HIT:          0  MISS:         16
LLC PREFETCH  ACCESS:    6495421  HIT:    5049159  MISS:    1446262
LLC WRITEBACK ACCESS:     909063  HIT:     844449  MISS:      64614
OPTgen accesses: 111176
OPTgen hits: 172731
OPTgen hit rate: 155.367


