
*** ChampSim Multicore Out-of-Order Simulator ***

Warmup Instructions: 50000000
Simulation Instructions: 100000000
Configuration: 2
Number of CPUs: 1
LLC sets: 2048
LLC ways: 16
Off-chip DRAM Channels: 1 Width: 64-bit Data Rate: 1600 MT/s

CPU 0 runs /datasets/cs240c-wi22-a00-public/data/Assignment2-gz/cactusADM_1495B.trace.gz
CPU 0 L1D next line prefetcher
CPU 0 L2C IP-based stride prefetcher
Initialize Hawkeye state
Heartbeat CPU 0 instructions: 1000003 cycles: 593383 heartbeat IPC: 1.68526 cumulative IPC: 1.68526 (Simulation time: 0 hr 0 min 39 sec) 
Heartbeat CPU 0 instructions: 2000000 cycles: 1186345 heartbeat IPC: 1.68644 cumulative IPC: 1.68585 (Simulation time: 0 hr 1 min 17 sec) 
Heartbeat CPU 0 instructions: 3000003 cycles: 1779703 heartbeat IPC: 1.68533 cumulative IPC: 1.68568 (Simulation time: 0 hr 1 min 55 sec) 
Heartbeat CPU 0 instructions: 4000000 cycles: 2372522 heartbeat IPC: 1.68685 cumulative IPC: 1.68597 (Simulation time: 0 hr 2 min 32 sec) 
Heartbeat CPU 0 instructions: 5000000 cycles: 2965579 heartbeat IPC: 1.68618 cumulative IPC: 1.68601 (Simulation time: 0 hr 3 min 10 sec) 
Heartbeat CPU 0 instructions: 6000001 cycles: 3558796 heartbeat IPC: 1.68573 cumulative IPC: 1.68596 (Simulation time: 0 hr 3 min 46 sec) 
Heartbeat CPU 0 instructions: 7000000 cycles: 4151738 heartbeat IPC: 1.6865 cumulative IPC: 1.68604 (Simulation time: 0 hr 4 min 21 sec) 
Heartbeat CPU 0 instructions: 8000000 cycles: 4906753 heartbeat IPC: 1.32448 cumulative IPC: 1.63041 (Simulation time: 0 hr 5 min 5 sec) 
Heartbeat CPU 0 instructions: 9000002 cycles: 5499948 heartbeat IPC: 1.68579 cumulative IPC: 1.63638 (Simulation time: 0 hr 5 min 41 sec) 
Heartbeat CPU 0 instructions: 10000002 cycles: 6092872 heartbeat IPC: 1.68656 cumulative IPC: 1.64126 (Simulation time: 0 hr 6 min 18 sec) 
Heartbeat CPU 0 instructions: 11000001 cycles: 6686000 heartbeat IPC: 1.68598 cumulative IPC: 1.64523 (Simulation time: 0 hr 6 min 53 sec) 
Heartbeat CPU 0 instructions: 12000000 cycles: 7279157 heartbeat IPC: 1.68589 cumulative IPC: 1.64854 (Simulation time: 0 hr 7 min 29 sec) 
Heartbeat CPU 0 instructions: 13000001 cycles: 7872063 heartbeat IPC: 1.68661 cumulative IPC: 1.65141 (Simulation time: 0 hr 8 min 4 sec) 
Heartbeat CPU 0 instructions: 14000003 cycles: 8465330 heartbeat IPC: 1.68559 cumulative IPC: 1.6538 (Simulation time: 0 hr 8 min 40 sec) 
Heartbeat CPU 0 instructions: 15000001 cycles: 9058420 heartbeat IPC: 1.68608 cumulative IPC: 1.65592 (Simulation time: 0 hr 9 min 16 sec) 
Heartbeat CPU 0 instructions: 16000000 cycles: 9651689 heartbeat IPC: 1.68557 cumulative IPC: 1.65774 (Simulation time: 0 hr 9 min 54 sec) 
Heartbeat CPU 0 instructions: 17000002 cycles: 10244675 heartbeat IPC: 1.68638 cumulative IPC: 1.6594 (Simulation time: 0 hr 10 min 31 sec) 
Heartbeat CPU 0 instructions: 18000000 cycles: 10837658 heartbeat IPC: 1.68639 cumulative IPC: 1.66088 (Simulation time: 0 hr 11 min 9 sec) 
Heartbeat CPU 0 instructions: 19000002 cycles: 11430670 heartbeat IPC: 1.68631 cumulative IPC: 1.66219 (Simulation time: 0 hr 11 min 45 sec) 
Heartbeat CPU 0 instructions: 20000000 cycles: 12024037 heartbeat IPC: 1.68529 cumulative IPC: 1.66333 (Simulation time: 0 hr 12 min 21 sec) 
Heartbeat CPU 0 instructions: 21000002 cycles: 12765397 heartbeat IPC: 1.34888 cumulative IPC: 1.64507 (Simulation time: 0 hr 13 min 3 sec) 
Heartbeat CPU 0 instructions: 22000003 cycles: 13370379 heartbeat IPC: 1.65294 cumulative IPC: 1.64543 (Simulation time: 0 hr 13 min 43 sec) 
Heartbeat CPU 0 instructions: 23000000 cycles: 13963070 heartbeat IPC: 1.68721 cumulative IPC: 1.6472 (Simulation time: 0 hr 14 min 20 sec) 
Heartbeat CPU 0 instructions: 24000000 cycles: 14556759 heartbeat IPC: 1.68438 cumulative IPC: 1.64872 (Simulation time: 0 hr 15 min 0 sec) 
Heartbeat CPU 0 instructions: 25000002 cycles: 15149905 heartbeat IPC: 1.68593 cumulative IPC: 1.65018 (Simulation time: 0 hr 15 min 37 sec) 
Heartbeat CPU 0 instructions: 26000003 cycles: 15742474 heartbeat IPC: 1.68757 cumulative IPC: 1.65158 (Simulation time: 0 hr 16 min 12 sec) 
Heartbeat CPU 0 instructions: 27000001 cycles: 16335565 heartbeat IPC: 1.68608 cumulative IPC: 1.65284 (Simulation time: 0 hr 16 min 48 sec) 
Heartbeat CPU 0 instructions: 28000000 cycles: 16928655 heartbeat IPC: 1.68608 cumulative IPC: 1.654 (Simulation time: 0 hr 17 min 26 sec) 
Heartbeat CPU 0 instructions: 29000002 cycles: 17521814 heartbeat IPC: 1.68589 cumulative IPC: 1.65508 (Simulation time: 0 hr 18 min 2 sec) 
Heartbeat CPU 0 instructions: 30000002 cycles: 18114918 heartbeat IPC: 1.68604 cumulative IPC: 1.65609 (Simulation time: 0 hr 18 min 42 sec) 
Heartbeat CPU 0 instructions: 31000002 cycles: 18708187 heartbeat IPC: 1.68558 cumulative IPC: 1.65703 (Simulation time: 0 hr 19 min 17 sec) 
Heartbeat CPU 0 instructions: 32000000 cycles: 19301558 heartbeat IPC: 1.68528 cumulative IPC: 1.6579 (Simulation time: 0 hr 19 min 53 sec) 
Heartbeat CPU 0 instructions: 33000001 cycles: 19894282 heartbeat IPC: 1.68713 cumulative IPC: 1.65877 (Simulation time: 0 hr 20 min 28 sec) 
Heartbeat CPU 0 instructions: 34000002 cycles: 20606287 heartbeat IPC: 1.40449 cumulative IPC: 1.64998 (Simulation time: 0 hr 21 min 11 sec) 
Heartbeat CPU 0 instructions: 35000001 cycles: 21242243 heartbeat IPC: 1.57243 cumulative IPC: 1.64766 (Simulation time: 0 hr 21 min 50 sec) 
Heartbeat CPU 0 instructions: 36000000 cycles: 21835314 heartbeat IPC: 1.68614 cumulative IPC: 1.64871 (Simulation time: 0 hr 22 min 26 sec) 
Heartbeat CPU 0 instructions: 37000000 cycles: 22428121 heartbeat IPC: 1.68689 cumulative IPC: 1.64971 (Simulation time: 0 hr 23 min 2 sec) 
Heartbeat CPU 0 instructions: 38000003 cycles: 23021073 heartbeat IPC: 1.68648 cumulative IPC: 1.65066 (Simulation time: 0 hr 23 min 38 sec) 
Heartbeat CPU 0 instructions: 39000002 cycles: 23614384 heartbeat IPC: 1.68545 cumulative IPC: 1.65154 (Simulation time: 0 hr 24 min 13 sec) 
Heartbeat CPU 0 instructions: 40000000 cycles: 24207276 heartbeat IPC: 1.68664 cumulative IPC: 1.6524 (Simulation time: 0 hr 24 min 49 sec) 
Heartbeat CPU 0 instructions: 41000002 cycles: 24800176 heartbeat IPC: 1.68663 cumulative IPC: 1.65321 (Simulation time: 0 hr 25 min 23 sec) 
Heartbeat CPU 0 instructions: 42000000 cycles: 25393110 heartbeat IPC: 1.68652 cumulative IPC: 1.65399 (Simulation time: 0 hr 25 min 59 sec) 
Heartbeat CPU 0 instructions: 43000000 cycles: 25986107 heartbeat IPC: 1.68635 cumulative IPC: 1.65473 (Simulation time: 0 hr 26 min 36 sec) 
Heartbeat CPU 0 instructions: 44000000 cycles: 26578951 heartbeat IPC: 1.68678 cumulative IPC: 1.65545 (Simulation time: 0 hr 27 min 12 sec) 
Heartbeat CPU 0 instructions: 45000003 cycles: 27171934 heartbeat IPC: 1.68639 cumulative IPC: 1.65612 (Simulation time: 0 hr 27 min 51 sec) 
Heartbeat CPU 0 instructions: 46000001 cycles: 27765068 heartbeat IPC: 1.68596 cumulative IPC: 1.65676 (Simulation time: 0 hr 28 min 27 sec) 
Heartbeat CPU 0 instructions: 47000001 cycles: 28445146 heartbeat IPC: 1.47042 cumulative IPC: 1.6523 (Simulation time: 0 hr 29 min 4 sec) 
Heartbeat CPU 0 instructions: 48000000 cycles: 29112087 heartbeat IPC: 1.49938 cumulative IPC: 1.6488 (Simulation time: 0 hr 29 min 43 sec) 
Heartbeat CPU 0 instructions: 49000001 cycles: 29705034 heartbeat IPC: 1.68649 cumulative IPC: 1.64955 (Simulation time: 0 hr 30 min 21 sec) 
Heartbeat CPU 0 instructions: 50000003 cycles: 30297956 heartbeat IPC: 1.68657 cumulative IPC: 1.65028 (Simulation time: 0 hr 30 min 57 sec) 

Warmup complete CPU 0 instructions: 50000003 cycles: 30297956 (Simulation time: 0 hr 30 min 57 sec) 

Heartbeat CPU 0 instructions: 51000000 cycles: 31985990 heartbeat IPC: 0.592403 cumulative IPC: 0.592403 (Simulation time: 0 hr 31 min 37 sec) 
Heartbeat CPU 0 instructions: 52000000 cycles: 33667083 heartbeat IPC: 0.594851 cumulative IPC: 0.593625 (Simulation time: 0 hr 32 min 17 sec) 
Heartbeat CPU 0 instructions: 53000003 cycles: 35405584 heartbeat IPC: 0.57521 cumulative IPC: 0.587357 (Simulation time: 0 hr 32 min 57 sec) 
Heartbeat CPU 0 instructions: 54000001 cycles: 37144913 heartbeat IPC: 0.574933 cumulative IPC: 0.584201 (Simulation time: 0 hr 33 min 35 sec) 
Heartbeat CPU 0 instructions: 55000000 cycles: 38881420 heartbeat IPC: 0.575868 cumulative IPC: 0.582515 (Simulation time: 0 hr 34 min 15 sec) 
Heartbeat CPU 0 instructions: 56000000 cycles: 40540658 heartbeat IPC: 0.602686 cumulative IPC: 0.585783 (Simulation time: 0 hr 34 min 57 sec) 
Heartbeat CPU 0 instructions: 57000000 cycles: 42254357 heartbeat IPC: 0.583533 cumulative IPC: 0.58546 (Simulation time: 0 hr 35 min 38 sec) 
Heartbeat CPU 0 instructions: 58000002 cycles: 43995863 heartbeat IPC: 0.574217 cumulative IPC: 0.584031 (Simulation time: 0 hr 36 min 17 sec) 
Heartbeat CPU 0 instructions: 59000001 cycles: 45738489 heartbeat IPC: 0.573846 cumulative IPC: 0.582881 (Simulation time: 0 hr 36 min 56 sec) 
Heartbeat CPU 0 instructions: 60000000 cycles: 49094644 heartbeat IPC: 0.29796 cumulative IPC: 0.532008 (Simulation time: 0 hr 37 min 38 sec) 
Heartbeat CPU 0 instructions: 61000001 cycles: 54049964 heartbeat IPC: 0.201804 cumulative IPC: 0.463119 (Simulation time: 0 hr 38 min 24 sec) 
Heartbeat CPU 0 instructions: 62000000 cycles: 55787735 heartbeat IPC: 0.575449 cumulative IPC: 0.470777 (Simulation time: 0 hr 39 min 1 sec) 
Heartbeat CPU 0 instructions: 63000000 cycles: 57529169 heartbeat IPC: 0.574239 cumulative IPC: 0.477393 (Simulation time: 0 hr 39 min 39 sec) 
Heartbeat CPU 0 instructions: 64000000 cycles: 59263520 heartbeat IPC: 0.576585 cumulative IPC: 0.483332 (Simulation time: 0 hr 40 min 19 sec) 
Heartbeat CPU 0 instructions: 65000002 cycles: 60924968 heartbeat IPC: 0.601886 cumulative IPC: 0.489764 (Simulation time: 0 hr 40 min 57 sec) 
Heartbeat CPU 0 instructions: 66000003 cycles: 62630673 heartbeat IPC: 0.586268 cumulative IPC: 0.494855 (Simulation time: 0 hr 41 min 36 sec) 
Heartbeat CPU 0 instructions: 67000001 cycles: 64371848 heartbeat IPC: 0.574324 cumulative IPC: 0.498916 (Simulation time: 0 hr 42 min 19 sec) 
Heartbeat CPU 0 instructions: 68000000 cycles: 66113152 heartbeat IPC: 0.574282 cumulative IPC: 0.50258 (Simulation time: 0 hr 42 min 58 sec) 
Heartbeat CPU 0 instructions: 69000003 cycles: 67830885 heartbeat IPC: 0.582164 cumulative IPC: 0.506222 (Simulation time: 0 hr 43 min 37 sec) 
Heartbeat CPU 0 instructions: 70000000 cycles: 69486122 heartbeat IPC: 0.604141 cumulative IPC: 0.510358 (Simulation time: 0 hr 44 min 15 sec) 
Heartbeat CPU 0 instructions: 71000002 cycles: 71217918 heartbeat IPC: 0.577436 cumulative IPC: 0.513197 (Simulation time: 0 hr 44 min 51 sec) 
Heartbeat CPU 0 instructions: 72000000 cycles: 72959654 heartbeat IPC: 0.574139 cumulative IPC: 0.515685 (Simulation time: 0 hr 45 min 29 sec) 
Heartbeat CPU 0 instructions: 73000001 cycles: 75428639 heartbeat IPC: 0.405025 cumulative IPC: 0.509631 (Simulation time: 0 hr 46 min 10 sec) 
Heartbeat CPU 0 instructions: 74000002 cycles: 81338219 heartbeat IPC: 0.169217 cumulative IPC: 0.470217 (Simulation time: 0 hr 46 min 55 sec) 
Heartbeat CPU 0 instructions: 75000002 cycles: 83037837 heartbeat IPC: 0.588368 cumulative IPC: 0.474025 (Simulation time: 0 hr 47 min 42 sec) 
Heartbeat CPU 0 instructions: 76000000 cycles: 84778057 heartbeat IPC: 0.574639 cumulative IPC: 0.477238 (Simulation time: 0 hr 48 min 21 sec) 
Heartbeat CPU 0 instructions: 77000001 cycles: 86517399 heartbeat IPC: 0.574931 cumulative IPC: 0.480261 (Simulation time: 0 hr 49 min 1 sec) 
Heartbeat CPU 0 instructions: 78000000 cycles: 88240665 heartbeat IPC: 0.580293 cumulative IPC: 0.483236 (Simulation time: 0 hr 49 min 45 sec) 
Heartbeat CPU 0 instructions: 79000003 cycles: 89888478 heartbeat IPC: 0.606867 cumulative IPC: 0.486655 (Simulation time: 0 hr 50 min 26 sec) 
Heartbeat CPU 0 instructions: 80000000 cycles: 91620376 heartbeat IPC: 0.577399 cumulative IPC: 0.489217 (Simulation time: 0 hr 51 min 3 sec) 
Heartbeat CPU 0 instructions: 81000002 cycles: 93360658 heartbeat IPC: 0.574621 cumulative IPC: 0.491574 (Simulation time: 0 hr 51 min 45 sec) 
Heartbeat CPU 0 instructions: 82000000 cycles: 95100624 heartbeat IPC: 0.574723 cumulative IPC: 0.493807 (Simulation time: 0 hr 52 min 25 sec) 
Heartbeat CPU 0 instructions: 83000000 cycles: 96789533 heartbeat IPC: 0.592098 cumulative IPC: 0.496303 (Simulation time: 0 hr 53 min 8 sec) 
Heartbeat CPU 0 instructions: 84000000 cycles: 98467754 heartbeat IPC: 0.595869 cumulative IPC: 0.498755 (Simulation time: 0 hr 53 min 49 sec) 
Heartbeat CPU 0 instructions: 85000003 cycles: 100231288 heartbeat IPC: 0.567045 cumulative IPC: 0.500477 (Simulation time: 0 hr 54 min 31 sec) 
Heartbeat CPU 0 instructions: 86000000 cycles: 101974115 heartbeat IPC: 0.573779 cumulative IPC: 0.502259 (Simulation time: 0 hr 55 min 10 sec) 
Heartbeat CPU 0 instructions: 87000001 cycles: 108711268 heartbeat IPC: 0.148431 cumulative IPC: 0.471859 (Simulation time: 0 hr 55 min 58 sec) 
Heartbeat CPU 0 instructions: 88000000 cycles: 110357467 heartbeat IPC: 0.607459 cumulative IPC: 0.474647 (Simulation time: 0 hr 56 min 39 sec) 
Heartbeat CPU 0 instructions: 89000002 cycles: 112085854 heartbeat IPC: 0.578575 cumulative IPC: 0.476843 (Simulation time: 0 hr 57 min 22 sec) 
Heartbeat CPU 0 instructions: 90000001 cycles: 113852586 heartbeat IPC: 0.566016 cumulative IPC: 0.478729 (Simulation time: 0 hr 58 min 1 sec) 
Heartbeat CPU 0 instructions: 91000002 cycles: 115592120 heartbeat IPC: 0.574867 cumulative IPC: 0.480689 (Simulation time: 0 hr 58 min 38 sec) 
Heartbeat CPU 0 instructions: 92000000 cycles: 117287745 heartbeat IPC: 0.589752 cumulative IPC: 0.482815 (Simulation time: 0 hr 59 min 16 sec) 
Heartbeat CPU 0 instructions: 93000002 cycles: 118959921 heartbeat IPC: 0.598024 cumulative IPC: 0.484988 (Simulation time: 0 hr 59 min 57 sec) 
Heartbeat CPU 0 instructions: 94000002 cycles: 120695714 heartbeat IPC: 0.576106 cumulative IPC: 0.486738 (Simulation time: 1 hr 0 min 36 sec) 
Heartbeat CPU 0 instructions: 95000003 cycles: 122437430 heartbeat IPC: 0.574147 cumulative IPC: 0.48839 (Simulation time: 1 hr 1 min 20 sec) 
Heartbeat CPU 0 instructions: 96000000 cycles: 124173189 heartbeat IPC: 0.576115 cumulative IPC: 0.490012 (Simulation time: 1 hr 2 min 8 sec) 
Heartbeat CPU 0 instructions: 97000003 cycles: 125837382 heartbeat IPC: 0.600894 cumulative IPC: 0.491944 (Simulation time: 1 hr 2 min 52 sec) 
Heartbeat CPU 0 instructions: 98000003 cycles: 127540488 heartbeat IPC: 0.587162 cumulative IPC: 0.493611 (Simulation time: 1 hr 3 min 30 sec) 
Heartbeat CPU 0 instructions: 99000000 cycles: 129280634 heartbeat IPC: 0.574663 cumulative IPC: 0.495036 (Simulation time: 1 hr 4 min 9 sec) 
Heartbeat CPU 0 instructions: 100000000 cycles: 136030047 heartbeat IPC: 0.148161 cumulative IPC: 0.472893 (Simulation time: 1 hr 4 min 57 sec) 
Heartbeat CPU 0 instructions: 101000000 cycles: 137729797 heartbeat IPC: 0.588322 cumulative IPC: 0.47472 (Simulation time: 1 hr 5 min 35 sec) 
Heartbeat CPU 0 instructions: 102000003 cycles: 139398654 heartbeat IPC: 0.599214 cumulative IPC: 0.476624 (Simulation time: 1 hr 6 min 10 sec) 
Heartbeat CPU 0 instructions: 103000000 cycles: 141132583 heartbeat IPC: 0.576723 cumulative IPC: 0.47819 (Simulation time: 1 hr 6 min 48 sec) 
Heartbeat CPU 0 instructions: 104000000 cycles: 142872761 heartbeat IPC: 0.574654 cumulative IPC: 0.479681 (Simulation time: 1 hr 7 min 24 sec) 
Heartbeat CPU 0 instructions: 105000001 cycles: 144609224 heartbeat IPC: 0.575884 cumulative IPC: 0.481142 (Simulation time: 1 hr 8 min 3 sec) 
Heartbeat CPU 0 instructions: 106000000 cycles: 146278723 heartbeat IPC: 0.598981 cumulative IPC: 0.482839 (Simulation time: 1 hr 8 min 39 sec) 
Heartbeat CPU 0 instructions: 107000001 cycles: 147976426 heartbeat IPC: 0.589032 cumulative IPC: 0.484371 (Simulation time: 1 hr 9 min 15 sec) 
Heartbeat CPU 0 instructions: 108000000 cycles: 149717364 heartbeat IPC: 0.574402 cumulative IPC: 0.485683 (Simulation time: 1 hr 9 min 52 sec) 
Heartbeat CPU 0 instructions: 109000002 cycles: 151458155 heartbeat IPC: 0.574453 cumulative IPC: 0.486959 (Simulation time: 1 hr 10 min 25 sec) 
Heartbeat CPU 0 instructions: 110000001 cycles: 153185546 heartbeat IPC: 0.578907 cumulative IPC: 0.488251 (Simulation time: 1 hr 11 min 0 sec) 
Heartbeat CPU 0 instructions: 111000003 cycles: 154835255 heartbeat IPC: 0.606169 cumulative IPC: 0.489813 (Simulation time: 1 hr 11 min 33 sec) 
Heartbeat CPU 0 instructions: 112000000 cycles: 156564685 heartbeat IPC: 0.578223 cumulative IPC: 0.491024 (Simulation time: 1 hr 12 min 6 sec) 
Heartbeat CPU 0 instructions: 113000001 cycles: 163248978 heartbeat IPC: 0.149605 cumulative IPC: 0.473859 (Simulation time: 1 hr 12 min 44 sec) 
Heartbeat CPU 0 instructions: 114000003 cycles: 164987406 heartbeat IPC: 0.575233 cumulative IPC: 0.475167 (Simulation time: 1 hr 13 min 17 sec) 
Heartbeat CPU 0 instructions: 115000003 cycles: 166663456 heartbeat IPC: 0.596641 cumulative IPC: 0.47666 (Simulation time: 1 hr 13 min 50 sec) 
Heartbeat CPU 0 instructions: 116000000 cycles: 168356932 heartbeat IPC: 0.5905 cumulative IPC: 0.478057 (Simulation time: 1 hr 14 min 26 sec) 
Heartbeat CPU 0 instructions: 117000002 cycles: 170097564 heartbeat IPC: 0.574505 cumulative IPC: 0.479257 (Simulation time: 1 hr 15 min 0 sec) 
Heartbeat CPU 0 instructions: 118000001 cycles: 171839313 heartbeat IPC: 0.574135 cumulative IPC: 0.480425 (Simulation time: 1 hr 15 min 30 sec) 
Heartbeat CPU 0 instructions: 119000000 cycles: 173567503 heartbeat IPC: 0.57864 cumulative IPC: 0.48161 (Simulation time: 1 hr 16 min 2 sec) 
Heartbeat CPU 0 instructions: 120000000 cycles: 175215696 heartbeat IPC: 0.606725 cumulative IPC: 0.483033 (Simulation time: 1 hr 16 min 34 sec) 
Heartbeat CPU 0 instructions: 121000003 cycles: 176942667 heartbeat IPC: 0.57905 cumulative IPC: 0.484163 (Simulation time: 1 hr 17 min 2 sec) 
Heartbeat CPU 0 instructions: 122000003 cycles: 178684771 heartbeat IPC: 0.574019 cumulative IPC: 0.485218 (Simulation time: 1 hr 17 min 31 sec) 
Heartbeat CPU 0 instructions: 123000001 cycles: 180426192 heartbeat IPC: 0.574243 cumulative IPC: 0.486251 (Simulation time: 1 hr 18 min 0 sec) 
Heartbeat CPU 0 instructions: 124000000 cycles: 182126920 heartbeat IPC: 0.587983 cumulative IPC: 0.487391 (Simulation time: 1 hr 18 min 26 sec) 
Heartbeat CPU 0 instructions: 125000000 cycles: 183799240 heartbeat IPC: 0.597972 cumulative IPC: 0.488595 (Simulation time: 1 hr 18 min 52 sec) 
Heartbeat CPU 0 instructions: 126000002 cycles: 190237741 heartbeat IPC: 0.155316 cumulative IPC: 0.475179 (Simulation time: 1 hr 19 min 23 sec) 
Heartbeat CPU 0 instructions: 127000002 cycles: 192228861 heartbeat IPC: 0.50223 cumulative IPC: 0.475511 (Simulation time: 1 hr 19 min 50 sec) 
Heartbeat CPU 0 instructions: 128000000 cycles: 193958296 heartbeat IPC: 0.578222 cumulative IPC: 0.476597 (Simulation time: 1 hr 20 min 17 sec) 
Heartbeat CPU 0 instructions: 129000001 cycles: 195609671 heartbeat IPC: 0.605557 cumulative IPC: 0.477885 (Simulation time: 1 hr 20 min 42 sec) 
Heartbeat CPU 0 instructions: 130000001 cycles: 197331546 heartbeat IPC: 0.580762 cumulative IPC: 0.478946 (Simulation time: 1 hr 21 min 7 sec) 
Heartbeat CPU 0 instructions: 131000002 cycles: 199071152 heartbeat IPC: 0.574843 cumulative IPC: 0.479934 (Simulation time: 1 hr 21 min 30 sec) 
Heartbeat CPU 0 instructions: 132000000 cycles: 200809733 heartbeat IPC: 0.575181 cumulative IPC: 0.480905 (Simulation time: 1 hr 21 min 53 sec) 
Heartbeat CPU 0 instructions: 133000002 cycles: 202511155 heartbeat IPC: 0.587745 cumulative IPC: 0.481961 (Simulation time: 1 hr 22 min 17 sec) 
Heartbeat CPU 0 instructions: 134000000 cycles: 204176654 heartbeat IPC: 0.600419 cumulative IPC: 0.483095 (Simulation time: 1 hr 22 min 36 sec) 
Heartbeat CPU 0 instructions: 135000003 cycles: 205912220 heartbeat IPC: 0.576183 cumulative IPC: 0.484015 (Simulation time: 1 hr 22 min 56 sec) 
Heartbeat CPU 0 instructions: 136000000 cycles: 207651660 heartbeat IPC: 0.574896 cumulative IPC: 0.484907 (Simulation time: 1 hr 23 min 16 sec) 
Heartbeat CPU 0 instructions: 137000003 cycles: 209389981 heartbeat IPC: 0.575269 cumulative IPC: 0.485784 (Simulation time: 1 hr 23 min 35 sec) 
Heartbeat CPU 0 instructions: 138000003 cycles: 211063032 heartbeat IPC: 0.59771 cumulative IPC: 0.48682 (Simulation time: 1 hr 23 min 53 sec) 
Heartbeat CPU 0 instructions: 139000000 cycles: 216464956 heartbeat IPC: 0.185119 cumulative IPC: 0.478065 (Simulation time: 1 hr 24 min 12 sec) 
Heartbeat CPU 0 instructions: 140000000 cycles: 219428725 heartbeat IPC: 0.337408 cumulative IPC: 0.475861 (Simulation time: 1 hr 24 min 30 sec) 
Heartbeat CPU 0 instructions: 141000001 cycles: 221166496 heartbeat IPC: 0.57545 cumulative IPC: 0.476768 (Simulation time: 1 hr 24 min 48 sec) 
Heartbeat CPU 0 instructions: 142000000 cycles: 222873553 heartbeat IPC: 0.585803 cumulative IPC: 0.477734 (Simulation time: 1 hr 25 min 6 sec) 
Heartbeat CPU 0 instructions: 143000003 cycles: 224535593 heartbeat IPC: 0.601672 cumulative IPC: 0.478795 (Simulation time: 1 hr 25 min 21 sec) 
Heartbeat CPU 0 instructions: 144000000 cycles: 226268244 heartbeat IPC: 0.577149 cumulative IPC: 0.479665 (Simulation time: 1 hr 25 min 39 sec) 
Heartbeat CPU 0 instructions: 145000002 cycles: 228022571 heartbeat IPC: 0.57002 cumulative IPC: 0.480466 (Simulation time: 1 hr 25 min 53 sec) 
Heartbeat CPU 0 instructions: 146000001 cycles: 229759505 heartbeat IPC: 0.575727 cumulative IPC: 0.481296 (Simulation time: 1 hr 26 min 7 sec) 
Heartbeat CPU 0 instructions: 147000000 cycles: 231432928 heartbeat IPC: 0.597577 cumulative IPC: 0.482263 (Simulation time: 1 hr 26 min 21 sec) 
Heartbeat CPU 0 instructions: 148000000 cycles: 233121436 heartbeat IPC: 0.592239 cumulative IPC: 0.483179 (Simulation time: 1 hr 26 min 35 sec) 
Heartbeat CPU 0 instructions: 149000000 cycles: 234875299 heartbeat IPC: 0.57017 cumulative IPC: 0.483925 (Simulation time: 1 hr 26 min 48 sec) 
Heartbeat CPU 0 instructions: 150000002 cycles: 236633042 heartbeat IPC: 0.568913 cumulative IPC: 0.484649 (Simulation time: 1 hr 27 min 1 sec) 
Finished CPU 0 instructions: 100000003 cycles: 206335087 cummulative IPC: 0.484649 (Simulation time: 1 hr 27 min 1 sec) 

ChampSim completed all CPUs

Region of Interest Statistics

CPU 0 cummulative IPC: 0.484649 instructions: 100000003 cycles: 206335087
LLC TOTAL     ACCESS:    1106853  HIT:     302266  MISS:     804587
LLC LOAD      ACCESS:      21610  HIT:       2909  MISS:      18701
LLC RFO       ACCESS:     245174  HIT:      87562  MISS:     157612
LLC PREFETCH  ACCESS:     594505  HIT:     102930  MISS:     491575
LLC WRITEBACK ACCESS:     245564  HIT:     108865  MISS:     136699
OPTgen accesses: 6526
OPTgen hits: 2089
OPTgen hit rate: 32.0104


