
*** ChampSim Multicore Out-of-Order Simulator ***

Warmup Instructions: 50000000
Simulation Instructions: 100000000
Configuration: 2
Number of CPUs: 1
LLC sets: 2048
LLC ways: 16
Off-chip DRAM Channels: 1 Width: 64-bit Data Rate: 1600 MT/s

CPU 0 runs /datasets/cs240c-wi22-a00-public/data/Assignment2-gz/sphinx3_1339B.trace.gz
CPU 0 L1D next line prefetcher
CPU 0 L2C IP-based stride prefetcher
Initialize Hawkeye state
Heartbeat CPU 0 instructions: 1000000 cycles: 339022 heartbeat IPC: 2.94966 cumulative IPC: 2.94966 (Simulation time: 0 hr 0 min 27 sec) 
Heartbeat CPU 0 instructions: 2000001 cycles: 693417 heartbeat IPC: 2.82171 cumulative IPC: 2.88427 (Simulation time: 0 hr 0 min 54 sec) 
Heartbeat CPU 0 instructions: 3000000 cycles: 1084470 heartbeat IPC: 2.5572 cumulative IPC: 2.76633 (Simulation time: 0 hr 1 min 26 sec) 
Heartbeat CPU 0 instructions: 4000000 cycles: 1529991 heartbeat IPC: 2.24456 cumulative IPC: 2.61439 (Simulation time: 0 hr 1 min 53 sec) 
Heartbeat CPU 0 instructions: 5000003 cycles: 1869006 heartbeat IPC: 2.94973 cumulative IPC: 2.67522 (Simulation time: 0 hr 2 min 18 sec) 
Heartbeat CPU 0 instructions: 6000002 cycles: 2253186 heartbeat IPC: 2.60294 cumulative IPC: 2.6629 (Simulation time: 0 hr 2 min 48 sec) 
Heartbeat CPU 0 instructions: 7000001 cycles: 2716925 heartbeat IPC: 2.15638 cumulative IPC: 2.57644 (Simulation time: 0 hr 3 min 15 sec) 
Heartbeat CPU 0 instructions: 8000000 cycles: 3055794 heartbeat IPC: 2.95099 cumulative IPC: 2.61798 (Simulation time: 0 hr 3 min 43 sec) 
Heartbeat CPU 0 instructions: 9000003 cycles: 3412353 heartbeat IPC: 2.80459 cumulative IPC: 2.63748 (Simulation time: 0 hr 4 min 10 sec) 
Heartbeat CPU 0 instructions: 10000001 cycles: 3799026 heartbeat IPC: 2.58616 cumulative IPC: 2.63225 (Simulation time: 0 hr 4 min 38 sec) 
Heartbeat CPU 0 instructions: 11000002 cycles: 4242148 heartbeat IPC: 2.25672 cumulative IPC: 2.59303 (Simulation time: 0 hr 5 min 4 sec) 
Heartbeat CPU 0 instructions: 12000000 cycles: 4581105 heartbeat IPC: 2.95022 cumulative IPC: 2.61946 (Simulation time: 0 hr 5 min 31 sec) 
Heartbeat CPU 0 instructions: 13000000 cycles: 4972916 heartbeat IPC: 2.55225 cumulative IPC: 2.61416 (Simulation time: 0 hr 6 min 0 sec) 
Heartbeat CPU 0 instructions: 14000003 cycles: 5427741 heartbeat IPC: 2.19865 cumulative IPC: 2.57934 (Simulation time: 0 hr 6 min 26 sec) 
Heartbeat CPU 0 instructions: 15000003 cycles: 5766701 heartbeat IPC: 2.9502 cumulative IPC: 2.60114 (Simulation time: 0 hr 6 min 52 sec) 
Heartbeat CPU 0 instructions: 16000000 cycles: 6131592 heartbeat IPC: 2.74054 cumulative IPC: 2.60944 (Simulation time: 0 hr 7 min 20 sec) 
Heartbeat CPU 0 instructions: 17000000 cycles: 6578455 heartbeat IPC: 2.23782 cumulative IPC: 2.58419 (Simulation time: 0 hr 7 min 48 sec) 
Heartbeat CPU 0 instructions: 18000000 cycles: 7017741 heartbeat IPC: 2.27642 cumulative IPC: 2.56493 (Simulation time: 0 hr 8 min 15 sec) 
Heartbeat CPU 0 instructions: 19000001 cycles: 7462704 heartbeat IPC: 2.24738 cumulative IPC: 2.54599 (Simulation time: 0 hr 8 min 41 sec) 
Heartbeat CPU 0 instructions: 20000000 cycles: 7801758 heartbeat IPC: 2.94938 cumulative IPC: 2.56352 (Simulation time: 0 hr 9 min 7 sec) 
Heartbeat CPU 0 instructions: 21000000 cycles: 8183312 heartbeat IPC: 2.62086 cumulative IPC: 2.5662 (Simulation time: 0 hr 9 min 33 sec) 
Heartbeat CPU 0 instructions: 22000000 cycles: 8648980 heartbeat IPC: 2.14745 cumulative IPC: 2.54365 (Simulation time: 0 hr 10 min 1 sec) 
Heartbeat CPU 0 instructions: 23000001 cycles: 8988014 heartbeat IPC: 2.94956 cumulative IPC: 2.55896 (Simulation time: 0 hr 10 min 28 sec) 
Heartbeat CPU 0 instructions: 24000000 cycles: 9338303 heartbeat IPC: 2.85478 cumulative IPC: 2.57006 (Simulation time: 0 hr 10 min 55 sec) 
Heartbeat CPU 0 instructions: 25000000 cycles: 9746462 heartbeat IPC: 2.45003 cumulative IPC: 2.56503 (Simulation time: 0 hr 11 min 25 sec) 
Heartbeat CPU 0 instructions: 26000003 cycles: 10149373 heartbeat IPC: 2.48195 cumulative IPC: 2.56173 (Simulation time: 0 hr 11 min 50 sec) 
Heartbeat CPU 0 instructions: 27000002 cycles: 10488311 heartbeat IPC: 2.95039 cumulative IPC: 2.57429 (Simulation time: 0 hr 12 min 15 sec) 
Heartbeat CPU 0 instructions: 28000000 cycles: 10865409 heartbeat IPC: 2.65183 cumulative IPC: 2.57699 (Simulation time: 0 hr 12 min 42 sec) 
Heartbeat CPU 0 instructions: 29000001 cycles: 11306063 heartbeat IPC: 2.26936 cumulative IPC: 2.565 (Simulation time: 0 hr 13 min 8 sec) 
Heartbeat CPU 0 instructions: 30000002 cycles: 11645079 heartbeat IPC: 2.94972 cumulative IPC: 2.5762 (Simulation time: 0 hr 13 min 36 sec) 
Heartbeat CPU 0 instructions: 31000003 cycles: 12015683 heartbeat IPC: 2.6983 cumulative IPC: 2.57996 (Simulation time: 0 hr 14 min 4 sec) 
Heartbeat CPU 0 instructions: 32000000 cycles: 12458413 heartbeat IPC: 2.25871 cumulative IPC: 2.56855 (Simulation time: 0 hr 14 min 29 sec) 
Heartbeat CPU 0 instructions: 33000000 cycles: 12797473 heartbeat IPC: 2.94933 cumulative IPC: 2.57863 (Simulation time: 0 hr 14 min 55 sec) 
Heartbeat CPU 0 instructions: 34000001 cycles: 13185065 heartbeat IPC: 2.58004 cumulative IPC: 2.57868 (Simulation time: 0 hr 15 min 24 sec) 
Heartbeat CPU 0 instructions: 35000003 cycles: 13646187 heartbeat IPC: 2.16863 cumulative IPC: 2.56482 (Simulation time: 0 hr 15 min 51 sec) 
Heartbeat CPU 0 instructions: 36000000 cycles: 13985067 heartbeat IPC: 2.95089 cumulative IPC: 2.57417 (Simulation time: 0 hr 16 min 16 sec) 
Heartbeat CPU 0 instructions: 37000003 cycles: 14341702 heartbeat IPC: 2.804 cumulative IPC: 2.57989 (Simulation time: 0 hr 16 min 41 sec) 
Heartbeat CPU 0 instructions: 38000000 cycles: 14729513 heartbeat IPC: 2.57857 cumulative IPC: 2.57985 (Simulation time: 0 hr 17 min 7 sec) 
Heartbeat CPU 0 instructions: 39000002 cycles: 15172774 heartbeat IPC: 2.25601 cumulative IPC: 2.57039 (Simulation time: 0 hr 17 min 31 sec) 
Heartbeat CPU 0 instructions: 40000000 cycles: 15511795 heartbeat IPC: 2.94966 cumulative IPC: 2.57868 (Simulation time: 0 hr 17 min 56 sec) 
Heartbeat CPU 0 instructions: 41000003 cycles: 15896373 heartbeat IPC: 2.60026 cumulative IPC: 2.5792 (Simulation time: 0 hr 18 min 24 sec) 
Heartbeat CPU 0 instructions: 42000002 cycles: 16351037 heartbeat IPC: 2.19942 cumulative IPC: 2.56864 (Simulation time: 0 hr 18 min 53 sec) 
Heartbeat CPU 0 instructions: 43000001 cycles: 16690014 heartbeat IPC: 2.95005 cumulative IPC: 2.57639 (Simulation time: 0 hr 19 min 24 sec) 
Heartbeat CPU 0 instructions: 44000000 cycles: 17054100 heartbeat IPC: 2.7466 cumulative IPC: 2.58002 (Simulation time: 0 hr 19 min 52 sec) 
Heartbeat CPU 0 instructions: 45000000 cycles: 17467232 heartbeat IPC: 2.42053 cumulative IPC: 2.57625 (Simulation time: 0 hr 20 min 19 sec) 
Heartbeat CPU 0 instructions: 46000002 cycles: 17866782 heartbeat IPC: 2.50282 cumulative IPC: 2.57461 (Simulation time: 0 hr 20 min 42 sec) 
Heartbeat CPU 0 instructions: 47000003 cycles: 18205768 heartbeat IPC: 2.94998 cumulative IPC: 2.5816 (Simulation time: 0 hr 21 min 7 sec) 
Heartbeat CPU 0 instructions: 48000000 cycles: 18582724 heartbeat IPC: 2.65282 cumulative IPC: 2.58304 (Simulation time: 0 hr 21 min 32 sec) 
Heartbeat CPU 0 instructions: 49000002 cycles: 19023820 heartbeat IPC: 2.26708 cumulative IPC: 2.57572 (Simulation time: 0 hr 21 min 57 sec) 
Heartbeat CPU 0 instructions: 50000002 cycles: 19362766 heartbeat IPC: 2.95032 cumulative IPC: 2.58228 (Simulation time: 0 hr 22 min 22 sec) 

Warmup complete CPU 0 instructions: 50000002 cycles: 19362766 (Simulation time: 0 hr 22 min 22 sec) 

Heartbeat CPU 0 instructions: 51000001 cycles: 20560094 heartbeat IPC: 0.835192 cumulative IPC: 0.835192 (Simulation time: 0 hr 22 min 50 sec) 
Heartbeat CPU 0 instructions: 52000000 cycles: 21406601 heartbeat IPC: 1.18132 cumulative IPC: 0.978552 (Simulation time: 0 hr 23 min 19 sec) 
Heartbeat CPU 0 instructions: 53000002 cycles: 22293980 heartbeat IPC: 1.12692 cumulative IPC: 1.02347 (Simulation time: 0 hr 23 min 48 sec) 
Heartbeat CPU 0 instructions: 54000003 cycles: 23416723 heartbeat IPC: 0.890677 cumulative IPC: 0.986691 (Simulation time: 0 hr 24 min 19 sec) 
Heartbeat CPU 0 instructions: 55000001 cycles: 24299491 heartbeat IPC: 1.1328 cumulative IPC: 1.01282 (Simulation time: 0 hr 24 min 48 sec) 
Heartbeat CPU 0 instructions: 56000000 cycles: 25189952 heartbeat IPC: 1.12301 cumulative IPC: 1.02966 (Simulation time: 0 hr 25 min 17 sec) 
Heartbeat CPU 0 instructions: 57000000 cycles: 26163246 heartbeat IPC: 1.02744 cumulative IPC: 1.02934 (Simulation time: 0 hr 25 min 47 sec) 
Heartbeat CPU 0 instructions: 58000000 cycles: 27203638 heartbeat IPC: 0.961176 cumulative IPC: 1.02029 (Simulation time: 0 hr 26 min 18 sec) 
Heartbeat CPU 0 instructions: 59000001 cycles: 28061159 heartbeat IPC: 1.16615 cumulative IPC: 1.03467 (Simulation time: 0 hr 26 min 50 sec) 
Heartbeat CPU 0 instructions: 60000000 cycles: 28919891 heartbeat IPC: 1.16451 cumulative IPC: 1.04634 (Simulation time: 0 hr 27 min 21 sec) 
Heartbeat CPU 0 instructions: 61000000 cycles: 30200261 heartbeat IPC: 0.781024 cumulative IPC: 1.01499 (Simulation time: 0 hr 27 min 51 sec) 
Heartbeat CPU 0 instructions: 62000002 cycles: 31342027 heartbeat IPC: 0.875838 cumulative IPC: 1.00173 (Simulation time: 0 hr 28 min 21 sec) 
Heartbeat CPU 0 instructions: 63000003 cycles: 32162838 heartbeat IPC: 1.21831 cumulative IPC: 1.01562 (Simulation time: 0 hr 28 min 49 sec) 
Heartbeat CPU 0 instructions: 64000000 cycles: 33036014 heartbeat IPC: 1.14524 cumulative IPC: 1.0239 (Simulation time: 0 hr 29 min 20 sec) 
Heartbeat CPU 0 instructions: 65000000 cycles: 34106562 heartbeat IPC: 0.934101 cumulative IPC: 1.01738 (Simulation time: 0 hr 29 min 50 sec) 
Heartbeat CPU 0 instructions: 66000001 cycles: 35061203 heartbeat IPC: 1.04752 cumulative IPC: 1.01921 (Simulation time: 0 hr 30 min 22 sec) 
Heartbeat CPU 0 instructions: 67000000 cycles: 35920951 heartbeat IPC: 1.16313 cumulative IPC: 1.02668 (Simulation time: 0 hr 30 min 53 sec) 
Heartbeat CPU 0 instructions: 68000000 cycles: 36827877 heartbeat IPC: 1.10263 cumulative IPC: 1.03063 (Simulation time: 0 hr 31 min 24 sec) 
Heartbeat CPU 0 instructions: 69000003 cycles: 37928044 heartbeat IPC: 0.908956 cumulative IPC: 1.02342 (Simulation time: 0 hr 31 min 53 sec) 
Heartbeat CPU 0 instructions: 70000001 cycles: 38806197 heartbeat IPC: 1.13875 cumulative IPC: 1.02863 (Simulation time: 0 hr 32 min 25 sec) 
Heartbeat CPU 0 instructions: 71000001 cycles: 39660374 heartbeat IPC: 1.17072 cumulative IPC: 1.0346 (Simulation time: 0 hr 32 min 55 sec) 
Heartbeat CPU 0 instructions: 72000000 cycles: 40850058 heartbeat IPC: 0.840559 cumulative IPC: 1.02386 (Simulation time: 0 hr 33 min 26 sec) 
Heartbeat CPU 0 instructions: 73000001 cycles: 41680601 heartbeat IPC: 1.20403 cumulative IPC: 1.03057 (Simulation time: 0 hr 33 min 55 sec) 
Heartbeat CPU 0 instructions: 74000001 cycles: 42540318 heartbeat IPC: 1.16317 cumulative IPC: 1.03548 (Simulation time: 0 hr 34 min 24 sec) 
Heartbeat CPU 0 instructions: 75000003 cycles: 43619842 heartbeat IPC: 0.926336 cumulative IPC: 1.03063 (Simulation time: 0 hr 34 min 55 sec) 
Heartbeat CPU 0 instructions: 76000000 cycles: 44536507 heartbeat IPC: 1.09091 cumulative IPC: 1.03282 (Simulation time: 0 hr 35 min 30 sec) 
Heartbeat CPU 0 instructions: 77000002 cycles: 45394637 heartbeat IPC: 1.16533 cumulative IPC: 1.03719 (Simulation time: 0 hr 36 min 1 sec) 
Heartbeat CPU 0 instructions: 78000000 cycles: 46324506 heartbeat IPC: 1.07542 cumulative IPC: 1.03851 (Simulation time: 0 hr 36 min 30 sec) 
Heartbeat CPU 0 instructions: 79000001 cycles: 47358336 heartbeat IPC: 0.967278 cumulative IPC: 1.03588 (Simulation time: 0 hr 36 min 59 sec) 
Heartbeat CPU 0 instructions: 80000000 cycles: 48232148 heartbeat IPC: 1.14441 cumulative IPC: 1.03916 (Simulation time: 0 hr 37 min 29 sec) 
Heartbeat CPU 0 instructions: 81000001 cycles: 49092528 heartbeat IPC: 1.16228 cumulative IPC: 1.04273 (Simulation time: 0 hr 37 min 59 sec) 
Heartbeat CPU 0 instructions: 82000000 cycles: 50200740 heartbeat IPC: 0.902354 cumulative IPC: 1.03768 (Simulation time: 0 hr 38 min 30 sec) 
Heartbeat CPU 0 instructions: 83000001 cycles: 51028634 heartbeat IPC: 1.20789 cumulative IPC: 1.04213 (Simulation time: 0 hr 39 min 2 sec) 
Heartbeat CPU 0 instructions: 84000000 cycles: 51887945 heartbeat IPC: 1.16372 cumulative IPC: 1.04534 (Simulation time: 0 hr 39 min 31 sec) 
Heartbeat CPU 0 instructions: 85000002 cycles: 52995961 heartbeat IPC: 0.902516 cumulative IPC: 1.04064 (Simulation time: 0 hr 40 min 1 sec) 
Heartbeat CPU 0 instructions: 86000003 cycles: 53860511 heartbeat IPC: 1.15667 cumulative IPC: 1.04355 (Simulation time: 0 hr 40 min 30 sec) 
Heartbeat CPU 0 instructions: 87000001 cycles: 54734068 heartbeat IPC: 1.14474 cumulative IPC: 1.04605 (Simulation time: 0 hr 41 min 0 sec) 
Heartbeat CPU 0 instructions: 88000000 cycles: 55787387 heartbeat IPC: 0.949379 cumulative IPC: 1.04325 (Simulation time: 0 hr 41 min 30 sec) 
Heartbeat CPU 0 instructions: 89000000 cycles: 56826346 heartbeat IPC: 0.962502 cumulative IPC: 1.04101 (Simulation time: 0 hr 42 min 1 sec) 
Heartbeat CPU 0 instructions: 90000003 cycles: 57595039 heartbeat IPC: 1.30091 cumulative IPC: 1.04624 (Simulation time: 0 hr 42 min 31 sec) 
Heartbeat CPU 0 instructions: 91000000 cycles: 58322592 heartbeat IPC: 1.37447 cumulative IPC: 1.05237 (Simulation time: 0 hr 43 min 1 sec) 
Heartbeat CPU 0 instructions: 92000000 cycles: 59500355 heartbeat IPC: 0.849067 cumulative IPC: 1.0464 (Simulation time: 0 hr 43 min 30 sec) 
Heartbeat CPU 0 instructions: 93000000 cycles: 60326216 heartbeat IPC: 1.21086 cumulative IPC: 1.04972 (Simulation time: 0 hr 43 min 59 sec) 
Heartbeat CPU 0 instructions: 94000001 cycles: 61092062 heartbeat IPC: 1.30575 cumulative IPC: 1.05442 (Simulation time: 0 hr 44 min 31 sec) 
Heartbeat CPU 0 instructions: 95000002 cycles: 62277337 heartbeat IPC: 0.843687 cumulative IPC: 1.04859 (Simulation time: 0 hr 45 min 4 sec) 
Heartbeat CPU 0 instructions: 96000000 cycles: 63117334 heartbeat IPC: 1.19048 cumulative IPC: 1.05132 (Simulation time: 0 hr 45 min 33 sec) 
Heartbeat CPU 0 instructions: 97000002 cycles: 63908964 heartbeat IPC: 1.26322 cumulative IPC: 1.05508 (Simulation time: 0 hr 46 min 2 sec) 
Heartbeat CPU 0 instructions: 98000000 cycles: 65001647 heartbeat IPC: 0.915177 cumulative IPC: 1.05173 (Simulation time: 0 hr 46 min 36 sec) 
Heartbeat CPU 0 instructions: 99000003 cycles: 66121262 heartbeat IPC: 0.893167 cumulative IPC: 1.04794 (Simulation time: 0 hr 47 min 5 sec) 
Heartbeat CPU 0 instructions: 100000000 cycles: 66919897 heartbeat IPC: 1.25213 cumulative IPC: 1.05137 (Simulation time: 0 hr 47 min 33 sec) 
Heartbeat CPU 0 instructions: 101000000 cycles: 67663884 heartbeat IPC: 1.34411 cumulative IPC: 1.05588 (Simulation time: 0 hr 48 min 1 sec) 
Heartbeat CPU 0 instructions: 102000001 cycles: 69128323 heartbeat IPC: 0.682856 cumulative IPC: 1.0449 (Simulation time: 0 hr 48 min 34 sec) 
Heartbeat CPU 0 instructions: 103000000 cycles: 70396985 heartbeat IPC: 0.788231 cumulative IPC: 1.03852 (Simulation time: 0 hr 49 min 6 sec) 
Heartbeat CPU 0 instructions: 104000000 cycles: 71327337 heartbeat IPC: 1.07486 cumulative IPC: 1.03917 (Simulation time: 0 hr 49 min 36 sec) 
Heartbeat CPU 0 instructions: 105000003 cycles: 72124180 heartbeat IPC: 1.25496 cumulative IPC: 1.04243 (Simulation time: 0 hr 50 min 8 sec) 
Heartbeat CPU 0 instructions: 106000000 cycles: 72958199 heartbeat IPC: 1.19901 cumulative IPC: 1.04487 (Simulation time: 0 hr 50 min 40 sec) 
Heartbeat CPU 0 instructions: 107000001 cycles: 74408321 heartbeat IPC: 0.689598 cumulative IPC: 1.03551 (Simulation time: 0 hr 51 min 10 sec) 
Heartbeat CPU 0 instructions: 108000000 cycles: 75294323 heartbeat IPC: 1.12866 cumulative IPC: 1.03698 (Simulation time: 0 hr 51 min 41 sec) 
Heartbeat CPU 0 instructions: 109000000 cycles: 76120291 heartbeat IPC: 1.2107 cumulative IPC: 1.03951 (Simulation time: 0 hr 52 min 14 sec) 
Heartbeat CPU 0 instructions: 110000000 cycles: 77226623 heartbeat IPC: 0.903888 cumulative IPC: 1.03692 (Simulation time: 0 hr 52 min 47 sec) 
Heartbeat CPU 0 instructions: 111000000 cycles: 78627077 heartbeat IPC: 0.714054 cumulative IPC: 1.02929 (Simulation time: 0 hr 53 min 19 sec) 
Heartbeat CPU 0 instructions: 112000000 cycles: 79575164 heartbeat IPC: 1.05476 cumulative IPC: 1.02969 (Simulation time: 0 hr 53 min 49 sec) 
Heartbeat CPU 0 instructions: 113000002 cycles: 80425450 heartbeat IPC: 1.17608 cumulative IPC: 1.03173 (Simulation time: 0 hr 54 min 16 sec) 
Heartbeat CPU 0 instructions: 114000000 cycles: 81684355 heartbeat IPC: 0.79434 cumulative IPC: 1.02693 (Simulation time: 0 hr 54 min 50 sec) 
Heartbeat CPU 0 instructions: 115000001 cycles: 83094611 heartbeat IPC: 0.709092 cumulative IPC: 1.0199 (Simulation time: 0 hr 55 min 22 sec) 
Heartbeat CPU 0 instructions: 116000000 cycles: 83983986 heartbeat IPC: 1.12438 cumulative IPC: 1.02134 (Simulation time: 0 hr 55 min 53 sec) 
Heartbeat CPU 0 instructions: 117000000 cycles: 84811279 heartbeat IPC: 1.20876 cumulative IPC: 1.02371 (Simulation time: 0 hr 56 min 23 sec) 
Heartbeat CPU 0 instructions: 118000003 cycles: 86053656 heartbeat IPC: 0.804911 cumulative IPC: 1.01963 (Simulation time: 0 hr 56 min 57 sec) 
Heartbeat CPU 0 instructions: 119000003 cycles: 87086199 heartbeat IPC: 0.968483 cumulative IPC: 1.01885 (Simulation time: 0 hr 57 min 27 sec) 
Heartbeat CPU 0 instructions: 120000000 cycles: 87938357 heartbeat IPC: 1.17349 cumulative IPC: 1.02077 (Simulation time: 0 hr 57 min 56 sec) 
Heartbeat CPU 0 instructions: 121000001 cycles: 88795939 heartbeat IPC: 1.16607 cumulative IPC: 1.02257 (Simulation time: 0 hr 58 min 27 sec) 
Heartbeat CPU 0 instructions: 122000002 cycles: 90062254 heartbeat IPC: 0.789694 cumulative IPC: 1.01839 (Simulation time: 0 hr 58 min 57 sec) 
Heartbeat CPU 0 instructions: 123000000 cycles: 90896402 heartbeat IPC: 1.19883 cumulative IPC: 1.0205 (Simulation time: 0 hr 59 min 27 sec) 
Heartbeat CPU 0 instructions: 124000000 cycles: 91750628 heartbeat IPC: 1.17065 cumulative IPC: 1.02227 (Simulation time: 0 hr 59 min 55 sec) 
Heartbeat CPU 0 instructions: 125000002 cycles: 92952814 heartbeat IPC: 0.83182 cumulative IPC: 1.01916 (Simulation time: 1 hr 0 min 26 sec) 
Heartbeat CPU 0 instructions: 126000000 cycles: 93806365 heartbeat IPC: 1.17157 cumulative IPC: 1.02091 (Simulation time: 1 hr 0 min 53 sec) 
Heartbeat CPU 0 instructions: 127000000 cycles: 94665289 heartbeat IPC: 1.16425 cumulative IPC: 1.02254 (Simulation time: 1 hr 1 min 22 sec) 
Heartbeat CPU 0 instructions: 128000000 cycles: 95570669 heartbeat IPC: 1.10451 cumulative IPC: 1.02352 (Simulation time: 1 hr 1 min 51 sec) 
Heartbeat CPU 0 instructions: 129000002 cycles: 96411545 heartbeat IPC: 1.18924 cumulative IPC: 1.02532 (Simulation time: 1 hr 2 min 19 sec) 
Heartbeat CPU 0 instructions: 130000000 cycles: 97248420 heartbeat IPC: 1.19492 cumulative IPC: 1.02715 (Simulation time: 1 hr 2 min 49 sec) 
Heartbeat CPU 0 instructions: 131000000 cycles: 98109147 heartbeat IPC: 1.16181 cumulative IPC: 1.02862 (Simulation time: 1 hr 3 min 18 sec) 
Heartbeat CPU 0 instructions: 132000000 cycles: 98992222 heartbeat IPC: 1.13241 cumulative IPC: 1.02977 (Simulation time: 1 hr 3 min 48 sec) 
Heartbeat CPU 0 instructions: 133000002 cycles: 99834652 heartbeat IPC: 1.18704 cumulative IPC: 1.03142 (Simulation time: 1 hr 4 min 16 sec) 
Heartbeat CPU 0 instructions: 134000000 cycles: 100771679 heartbeat IPC: 1.0672 cumulative IPC: 1.03183 (Simulation time: 1 hr 4 min 45 sec) 
Heartbeat CPU 0 instructions: 135000001 cycles: 101957482 heartbeat IPC: 0.843311 cumulative IPC: 1.02912 (Simulation time: 1 hr 5 min 16 sec) 
Heartbeat CPU 0 instructions: 136000000 cycles: 102841049 heartbeat IPC: 1.13177 cumulative IPC: 1.03021 (Simulation time: 1 hr 5 min 44 sec) 
Heartbeat CPU 0 instructions: 137000001 cycles: 103704857 heartbeat IPC: 1.15767 cumulative IPC: 1.03151 (Simulation time: 1 hr 6 min 13 sec) 
Heartbeat CPU 0 instructions: 138000001 cycles: 104970046 heartbeat IPC: 0.790396 cumulative IPC: 1.02795 (Simulation time: 1 hr 6 min 44 sec) 
Heartbeat CPU 0 instructions: 139000001 cycles: 105812347 heartbeat IPC: 1.18722 cumulative IPC: 1.0295 (Simulation time: 1 hr 7 min 12 sec) 
Heartbeat CPU 0 instructions: 140000000 cycles: 106624109 heartbeat IPC: 1.23189 cumulative IPC: 1.03138 (Simulation time: 1 hr 7 min 39 sec) 
Heartbeat CPU 0 instructions: 141000001 cycles: 107632065 heartbeat IPC: 0.992108 cumulative IPC: 1.03094 (Simulation time: 1 hr 8 min 7 sec) 
Heartbeat CPU 0 instructions: 142000000 cycles: 108584352 heartbeat IPC: 1.0501 cumulative IPC: 1.03114 (Simulation time: 1 hr 8 min 32 sec) 
Heartbeat CPU 0 instructions: 143000000 cycles: 109418128 heartbeat IPC: 1.19936 cumulative IPC: 1.0327 (Simulation time: 1 hr 9 min 0 sec) 
Heartbeat CPU 0 instructions: 144000000 cycles: 110273031 heartbeat IPC: 1.16972 cumulative IPC: 1.03399 (Simulation time: 1 hr 9 min 26 sec) 
Heartbeat CPU 0 instructions: 145000002 cycles: 111379817 heartbeat IPC: 0.903519 cumulative IPC: 1.03242 (Simulation time: 1 hr 9 min 52 sec) 
Heartbeat CPU 0 instructions: 146000000 cycles: 112231568 heartbeat IPC: 1.17405 cumulative IPC: 1.03372 (Simulation time: 1 hr 10 min 21 sec) 
Heartbeat CPU 0 instructions: 147000002 cycles: 113046819 heartbeat IPC: 1.22662 cumulative IPC: 1.0354 (Simulation time: 1 hr 10 min 47 sec) 
Heartbeat CPU 0 instructions: 148000000 cycles: 114351719 heartbeat IPC: 0.766341 cumulative IPC: 1.0317 (Simulation time: 1 hr 11 min 13 sec) 
Heartbeat CPU 0 instructions: 149000000 cycles: 115515000 heartbeat IPC: 0.859637 cumulative IPC: 1.02962 (Simulation time: 1 hr 11 min 37 sec) 
Heartbeat CPU 0 instructions: 150000001 cycles: 116360564 heartbeat IPC: 1.18264 cumulative IPC: 1.03095 (Simulation time: 1 hr 12 min 1 sec) 
Finished CPU 0 instructions: 100000003 cycles: 96997799 cummulative IPC: 1.03095 (Simulation time: 1 hr 12 min 1 sec) 

ChampSim completed all CPUs

Region of Interest Statistics

CPU 0 cummulative IPC: 1.03095 instructions: 100000003 cycles: 96997799
LLC TOTAL     ACCESS:    1600618  HIT:     821575  MISS:     779043
LLC LOAD      ACCESS:     216507  HIT:     174382  MISS:      42125
LLC RFO       ACCESS:     111328  HIT:     105421  MISS:       5907
LLC PREFETCH  ACCESS:    1135807  HIT:     405169  MISS:     730638
LLC WRITEBACK ACCESS:     136976  HIT:     136603  MISS:        373
OPTgen accesses: 7379
OPTgen hits: 7028
OPTgen hit rate: 95.2433


