
*** ChampSim Multicore Out-of-Order Simulator ***

Warmup Instructions: 50000000
Simulation Instructions: 100000000
Configuration: 2
Number of CPUs: 1
LLC sets: 2048
LLC ways: 16
Off-chip DRAM Channels: 1 Width: 64-bit Data Rate: 1600 MT/s

CPU 0 runs /datasets/cs240c-wi22-a00-public/data/Assignment2-gz/sphinx3_883B.trace.gz
CPU 0 L1D next line prefetcher
CPU 0 L2C IP-based stride prefetcher
Initialize Hawkeye state
Heartbeat CPU 0 instructions: 1000003 cycles: 414365 heartbeat IPC: 2.41334 cumulative IPC: 2.41334 (Simulation time: 0 hr 0 min 35 sec) 
Heartbeat CPU 0 instructions: 2000000 cycles: 823887 heartbeat IPC: 2.44186 cumulative IPC: 2.42752 (Simulation time: 0 hr 1 min 6 sec) 
Heartbeat CPU 0 instructions: 3000003 cycles: 1298677 heartbeat IPC: 2.1062 cumulative IPC: 2.31005 (Simulation time: 0 hr 1 min 34 sec) 
Heartbeat CPU 0 instructions: 4000000 cycles: 1637567 heartbeat IPC: 2.9508 cumulative IPC: 2.44265 (Simulation time: 0 hr 2 min 3 sec) 
Heartbeat CPU 0 instructions: 5000000 cycles: 1992237 heartbeat IPC: 2.81952 cumulative IPC: 2.50974 (Simulation time: 0 hr 2 min 34 sec) 
Heartbeat CPU 0 instructions: 6000003 cycles: 2406681 heartbeat IPC: 2.41288 cumulative IPC: 2.49306 (Simulation time: 0 hr 3 min 5 sec) 
Heartbeat CPU 0 instructions: 7000002 cycles: 2815436 heartbeat IPC: 2.44645 cumulative IPC: 2.48629 (Simulation time: 0 hr 3 min 40 sec) 
Heartbeat CPU 0 instructions: 8000000 cycles: 3291296 heartbeat IPC: 2.10145 cumulative IPC: 2.43065 (Simulation time: 0 hr 4 min 10 sec) 
Heartbeat CPU 0 instructions: 9000001 cycles: 3630293 heartbeat IPC: 2.94988 cumulative IPC: 2.47914 (Simulation time: 0 hr 4 min 40 sec) 
Heartbeat CPU 0 instructions: 10000000 cycles: 3984384 heartbeat IPC: 2.82413 cumulative IPC: 2.5098 (Simulation time: 0 hr 5 min 9 sec) 
Heartbeat CPU 0 instructions: 11000000 cycles: 4398804 heartbeat IPC: 2.41301 cumulative IPC: 2.50068 (Simulation time: 0 hr 5 min 42 sec) 
Heartbeat CPU 0 instructions: 12000000 cycles: 4811711 heartbeat IPC: 2.42185 cumulative IPC: 2.49392 (Simulation time: 0 hr 6 min 20 sec) 
Heartbeat CPU 0 instructions: 13000001 cycles: 5277039 heartbeat IPC: 2.14902 cumulative IPC: 2.4635 (Simulation time: 0 hr 6 min 54 sec) 
Heartbeat CPU 0 instructions: 14000001 cycles: 5630852 heartbeat IPC: 2.82635 cumulative IPC: 2.4863 (Simulation time: 0 hr 7 min 24 sec) 
Heartbeat CPU 0 instructions: 15000000 cycles: 5977469 heartbeat IPC: 2.88503 cumulative IPC: 2.50942 (Simulation time: 0 hr 7 min 55 sec) 
Heartbeat CPU 0 instructions: 16000000 cycles: 6390955 heartbeat IPC: 2.41846 cumulative IPC: 2.50354 (Simulation time: 0 hr 8 min 25 sec) 
Heartbeat CPU 0 instructions: 17000000 cycles: 6803012 heartbeat IPC: 2.42685 cumulative IPC: 2.49889 (Simulation time: 0 hr 8 min 59 sec) 
Heartbeat CPU 0 instructions: 18000000 cycles: 7219322 heartbeat IPC: 2.40206 cumulative IPC: 2.49331 (Simulation time: 0 hr 9 min 29 sec) 
Heartbeat CPU 0 instructions: 19000003 cycles: 7633866 heartbeat IPC: 2.4123 cumulative IPC: 2.48891 (Simulation time: 0 hr 9 min 58 sec) 
Heartbeat CPU 0 instructions: 20000000 cycles: 7972815 heartbeat IPC: 2.95029 cumulative IPC: 2.50852 (Simulation time: 0 hr 10 min 26 sec) 
Heartbeat CPU 0 instructions: 21000000 cycles: 8382445 heartbeat IPC: 2.44123 cumulative IPC: 2.50524 (Simulation time: 0 hr 10 min 58 sec) 
Heartbeat CPU 0 instructions: 22000003 cycles: 8795969 heartbeat IPC: 2.41825 cumulative IPC: 2.50115 (Simulation time: 0 hr 11 min 31 sec) 
Heartbeat CPU 0 instructions: 23000003 cycles: 9206109 heartbeat IPC: 2.43819 cumulative IPC: 2.49834 (Simulation time: 0 hr 12 min 3 sec) 
Heartbeat CPU 0 instructions: 24000000 cycles: 9656776 heartbeat IPC: 2.21893 cumulative IPC: 2.4853 (Simulation time: 0 hr 12 min 35 sec) 
Heartbeat CPU 0 instructions: 25000000 cycles: 9995813 heartbeat IPC: 2.94953 cumulative IPC: 2.50105 (Simulation time: 0 hr 13 min 7 sec) 
Heartbeat CPU 0 instructions: 26000001 cycles: 10372994 heartbeat IPC: 2.65125 cumulative IPC: 2.50651 (Simulation time: 0 hr 13 min 37 sec) 
Heartbeat CPU 0 instructions: 27000001 cycles: 10788046 heartbeat IPC: 2.40934 cumulative IPC: 2.50277 (Simulation time: 0 hr 14 min 21 sec) 
Heartbeat CPU 0 instructions: 28000000 cycles: 11202862 heartbeat IPC: 2.41071 cumulative IPC: 2.49936 (Simulation time: 0 hr 14 min 56 sec) 
Heartbeat CPU 0 instructions: 29000003 cycles: 11666182 heartbeat IPC: 2.15834 cumulative IPC: 2.48582 (Simulation time: 0 hr 15 min 25 sec) 
Heartbeat CPU 0 instructions: 30000000 cycles: 12005104 heartbeat IPC: 2.95052 cumulative IPC: 2.49894 (Simulation time: 0 hr 15 min 56 sec) 
Heartbeat CPU 0 instructions: 31000003 cycles: 12368418 heartbeat IPC: 2.75245 cumulative IPC: 2.50638 (Simulation time: 0 hr 16 min 29 sec) 
Heartbeat CPU 0 instructions: 32000000 cycles: 12783459 heartbeat IPC: 2.40939 cumulative IPC: 2.50323 (Simulation time: 0 hr 17 min 2 sec) 
Heartbeat CPU 0 instructions: 33000001 cycles: 13193031 heartbeat IPC: 2.44158 cumulative IPC: 2.50132 (Simulation time: 0 hr 17 min 37 sec) 
Heartbeat CPU 0 instructions: 34000000 cycles: 13667178 heartbeat IPC: 2.10905 cumulative IPC: 2.48771 (Simulation time: 0 hr 18 min 7 sec) 
Heartbeat CPU 0 instructions: 35000000 cycles: 14006141 heartbeat IPC: 2.95017 cumulative IPC: 2.4989 (Simulation time: 0 hr 18 min 37 sec) 
Heartbeat CPU 0 instructions: 36000000 cycles: 14364432 heartbeat IPC: 2.79103 cumulative IPC: 2.50619 (Simulation time: 0 hr 19 min 9 sec) 
Heartbeat CPU 0 instructions: 37000001 cycles: 14780474 heartbeat IPC: 2.40361 cumulative IPC: 2.5033 (Simulation time: 0 hr 19 min 41 sec) 
Heartbeat CPU 0 instructions: 38000000 cycles: 15190072 heartbeat IPC: 2.44142 cumulative IPC: 2.50163 (Simulation time: 0 hr 20 min 11 sec) 
Heartbeat CPU 0 instructions: 39000002 cycles: 15665106 heartbeat IPC: 2.10512 cumulative IPC: 2.48961 (Simulation time: 0 hr 20 min 43 sec) 
Heartbeat CPU 0 instructions: 40000000 cycles: 16004084 heartbeat IPC: 2.95004 cumulative IPC: 2.49936 (Simulation time: 0 hr 21 min 11 sec) 
Heartbeat CPU 0 instructions: 41000003 cycles: 16361409 heartbeat IPC: 2.79858 cumulative IPC: 2.5059 (Simulation time: 0 hr 21 min 41 sec) 
Heartbeat CPU 0 instructions: 42000000 cycles: 16777493 heartbeat IPC: 2.40335 cumulative IPC: 2.50335 (Simulation time: 0 hr 22 min 18 sec) 
Heartbeat CPU 0 instructions: 43000001 cycles: 17188879 heartbeat IPC: 2.43081 cumulative IPC: 2.50162 (Simulation time: 0 hr 22 min 50 sec) 
Heartbeat CPU 0 instructions: 44000000 cycles: 17659589 heartbeat IPC: 2.12445 cumulative IPC: 2.49156 (Simulation time: 0 hr 23 min 24 sec) 
Heartbeat CPU 0 instructions: 45000001 cycles: 17998580 heartbeat IPC: 2.94993 cumulative IPC: 2.5002 (Simulation time: 0 hr 23 min 54 sec) 
Heartbeat CPU 0 instructions: 46000001 cycles: 18358915 heartbeat IPC: 2.7752 cumulative IPC: 2.50559 (Simulation time: 0 hr 24 min 26 sec) 
Heartbeat CPU 0 instructions: 47000003 cycles: 18773494 heartbeat IPC: 2.41209 cumulative IPC: 2.50353 (Simulation time: 0 hr 24 min 57 sec) 
Heartbeat CPU 0 instructions: 48000000 cycles: 19189279 heartbeat IPC: 2.40508 cumulative IPC: 2.5014 (Simulation time: 0 hr 25 min 29 sec) 
Heartbeat CPU 0 instructions: 49000001 cycles: 19647336 heartbeat IPC: 2.18314 cumulative IPC: 2.49398 (Simulation time: 0 hr 25 min 59 sec) 
Heartbeat CPU 0 instructions: 50000003 cycles: 19986289 heartbeat IPC: 2.95027 cumulative IPC: 2.50172 (Simulation time: 0 hr 26 min 26 sec) 

Warmup complete CPU 0 instructions: 50000003 cycles: 19986289 (Simulation time: 0 hr 26 min 26 sec) 

Heartbeat CPU 0 instructions: 51000003 cycles: 21107417 heartbeat IPC: 0.891959 cumulative IPC: 0.891959 (Simulation time: 0 hr 26 min 58 sec) 
Heartbeat CPU 0 instructions: 52000000 cycles: 22664387 heartbeat IPC: 0.642271 cumulative IPC: 0.746798 (Simulation time: 0 hr 27 min 35 sec) 
Heartbeat CPU 0 instructions: 53000000 cycles: 24447644 heartbeat IPC: 0.560772 cumulative IPC: 0.672441 (Simulation time: 0 hr 28 min 11 sec) 
Heartbeat CPU 0 instructions: 54000003 cycles: 25728056 heartbeat IPC: 0.781001 cumulative IPC: 0.69665 (Simulation time: 0 hr 28 min 46 sec) 
Heartbeat CPU 0 instructions: 55000003 cycles: 26665851 heartbeat IPC: 1.06633 cumulative IPC: 0.748552 (Simulation time: 0 hr 29 min 17 sec) 
Heartbeat CPU 0 instructions: 56000000 cycles: 27580220 heartbeat IPC: 1.09365 cumulative IPC: 0.790104 (Simulation time: 0 hr 29 min 51 sec) 
Heartbeat CPU 0 instructions: 57000002 cycles: 28773769 heartbeat IPC: 0.837839 cumulative IPC: 0.796588 (Simulation time: 0 hr 30 min 27 sec) 
Heartbeat CPU 0 instructions: 58000001 cycles: 29806407 heartbeat IPC: 0.968393 cumulative IPC: 0.814654 (Simulation time: 0 hr 30 min 58 sec) 
Heartbeat CPU 0 instructions: 59000003 cycles: 30690176 heartbeat IPC: 1.13152 cumulative IPC: 0.840816 (Simulation time: 0 hr 31 min 29 sec) 
Heartbeat CPU 0 instructions: 60000000 cycles: 31590434 heartbeat IPC: 1.11079 cumulative IPC: 0.861761 (Simulation time: 0 hr 31 min 59 sec) 
Heartbeat CPU 0 instructions: 61000001 cycles: 32775388 heartbeat IPC: 0.843915 cumulative IPC: 0.860107 (Simulation time: 0 hr 32 min 31 sec) 
Heartbeat CPU 0 instructions: 62000001 cycles: 33650709 heartbeat IPC: 1.14244 cumulative IPC: 0.878193 (Simulation time: 0 hr 33 min 4 sec) 
Heartbeat CPU 0 instructions: 63000003 cycles: 34507942 heartbeat IPC: 1.16655 cumulative IPC: 0.895215 (Simulation time: 0 hr 33 min 33 sec) 
Heartbeat CPU 0 instructions: 64000000 cycles: 35756173 heartbeat IPC: 0.801131 cumulative IPC: 0.887768 (Simulation time: 0 hr 34 min 3 sec) 
Heartbeat CPU 0 instructions: 65000003 cycles: 36639056 heartbeat IPC: 1.13266 cumulative IPC: 0.900751 (Simulation time: 0 hr 34 min 34 sec) 
Heartbeat CPU 0 instructions: 66000002 cycles: 37520382 heartbeat IPC: 1.13465 cumulative IPC: 0.912508 (Simulation time: 0 hr 35 min 11 sec) 
Heartbeat CPU 0 instructions: 67000000 cycles: 38784052 heartbeat IPC: 0.791344 cumulative IPC: 0.904363 (Simulation time: 0 hr 35 min 44 sec) 
Heartbeat CPU 0 instructions: 68000000 cycles: 40446394 heartbeat IPC: 0.601561 cumulative IPC: 0.879761 (Simulation time: 0 hr 36 min 22 sec) 
Heartbeat CPU 0 instructions: 69000003 cycles: 41318859 heartbeat IPC: 1.14618 cumulative IPC: 0.890657 (Simulation time: 0 hr 36 min 52 sec) 
Heartbeat CPU 0 instructions: 70000000 cycles: 42207358 heartbeat IPC: 1.12549 cumulative IPC: 0.900047 (Simulation time: 0 hr 37 min 25 sec) 
Heartbeat CPU 0 instructions: 71000000 cycles: 43369034 heartbeat IPC: 0.860825 cumulative IPC: 0.898098 (Simulation time: 0 hr 38 min 2 sec) 
Heartbeat CPU 0 instructions: 72000000 cycles: 44823595 heartbeat IPC: 0.687493 cumulative IPC: 0.885764 (Simulation time: 0 hr 38 min 35 sec) 
Heartbeat CPU 0 instructions: 73000000 cycles: 45691217 heartbeat IPC: 1.15258 cumulative IPC: 0.89477 (Simulation time: 0 hr 39 min 7 sec) 
Heartbeat CPU 0 instructions: 74000000 cycles: 46574873 heartbeat IPC: 1.13166 cumulative IPC: 0.902643 (Simulation time: 0 hr 39 min 41 sec) 
Heartbeat CPU 0 instructions: 75000000 cycles: 47782904 heartbeat IPC: 0.827793 cumulative IPC: 0.89939 (Simulation time: 0 hr 40 min 12 sec) 
Heartbeat CPU 0 instructions: 76000000 cycles: 49082088 heartbeat IPC: 0.769714 cumulative IPC: 0.8936 (Simulation time: 0 hr 40 min 44 sec) 
Heartbeat CPU 0 instructions: 77000003 cycles: 49980977 heartbeat IPC: 1.11249 cumulative IPC: 0.900159 (Simulation time: 0 hr 41 min 15 sec) 
Heartbeat CPU 0 instructions: 78000000 cycles: 50860592 heartbeat IPC: 1.13686 cumulative IPC: 0.906903 (Simulation time: 0 hr 41 min 48 sec) 
Heartbeat CPU 0 instructions: 79000001 cycles: 52220505 heartbeat IPC: 0.735342 cumulative IPC: 0.899665 (Simulation time: 0 hr 42 min 23 sec) 
Heartbeat CPU 0 instructions: 80000000 cycles: 53388959 heartbeat IPC: 0.855831 cumulative IPC: 0.898132 (Simulation time: 0 hr 42 min 53 sec) 
Heartbeat CPU 0 instructions: 81000000 cycles: 54289781 heartbeat IPC: 1.1101 cumulative IPC: 0.903698 (Simulation time: 0 hr 43 min 23 sec) 
Heartbeat CPU 0 instructions: 82000000 cycles: 55155180 heartbeat IPC: 1.15554 cumulative IPC: 0.909895 (Simulation time: 0 hr 43 min 57 sec) 
Heartbeat CPU 0 instructions: 83000000 cycles: 56619534 heartbeat IPC: 0.682895 cumulative IPC: 0.900821 (Simulation time: 0 hr 44 min 31 sec) 
Heartbeat CPU 0 instructions: 84000000 cycles: 57544637 heartbeat IPC: 1.08096 cumulative IPC: 0.905258 (Simulation time: 0 hr 45 min 3 sec) 
Heartbeat CPU 0 instructions: 85000001 cycles: 58425057 heartbeat IPC: 1.13582 cumulative IPC: 0.910539 (Simulation time: 0 hr 45 min 33 sec) 
Heartbeat CPU 0 instructions: 86000001 cycles: 59492021 heartbeat IPC: 0.937239 cumulative IPC: 0.91126 (Simulation time: 0 hr 46 min 7 sec) 
Heartbeat CPU 0 instructions: 87000000 cycles: 60665634 heartbeat IPC: 0.852069 cumulative IPC: 0.909552 (Simulation time: 0 hr 46 min 37 sec) 
Heartbeat CPU 0 instructions: 88000000 cycles: 61583303 heartbeat IPC: 1.08972 cumulative IPC: 0.913527 (Simulation time: 0 hr 47 min 11 sec) 
Heartbeat CPU 0 instructions: 89000000 cycles: 62396174 heartbeat IPC: 1.23021 cumulative IPC: 0.919597 (Simulation time: 0 hr 47 min 41 sec) 
Heartbeat CPU 0 instructions: 90000000 cycles: 63658181 heartbeat IPC: 0.792389 cumulative IPC: 0.915921 (Simulation time: 0 hr 48 min 14 sec) 
Heartbeat CPU 0 instructions: 91000003 cycles: 64905041 heartbeat IPC: 0.802017 cumulative IPC: 0.912759 (Simulation time: 0 hr 48 min 48 sec) 
Heartbeat CPU 0 instructions: 92000000 cycles: 65877705 heartbeat IPC: 1.0281 cumulative IPC: 0.915204 (Simulation time: 0 hr 49 min 20 sec) 
Heartbeat CPU 0 instructions: 93000000 cycles: 66707959 heartbeat IPC: 1.20445 cumulative IPC: 0.920344 (Simulation time: 0 hr 49 min 50 sec) 
Heartbeat CPU 0 instructions: 94000002 cycles: 67458179 heartbeat IPC: 1.33294 cumulative IPC: 0.926864 (Simulation time: 0 hr 50 min 21 sec) 
Heartbeat CPU 0 instructions: 95000001 cycles: 68802228 heartbeat IPC: 0.74402 cumulative IPC: 0.92183 (Simulation time: 0 hr 50 min 52 sec) 
Heartbeat CPU 0 instructions: 96000000 cycles: 69667078 heartbeat IPC: 1.15627 cumulative IPC: 0.925911 (Simulation time: 0 hr 51 min 21 sec) 
Heartbeat CPU 0 instructions: 97000000 cycles: 70498783 heartbeat IPC: 1.20235 cumulative IPC: 0.930463 (Simulation time: 0 hr 51 min 53 sec) 
Heartbeat CPU 0 instructions: 98000003 cycles: 71640447 heartbeat IPC: 0.875917 cumulative IPC: 0.929257 (Simulation time: 0 hr 52 min 26 sec) 
Heartbeat CPU 0 instructions: 99000000 cycles: 72704133 heartbeat IPC: 0.940124 cumulative IPC: 0.929476 (Simulation time: 0 hr 53 min 0 sec) 
Heartbeat CPU 0 instructions: 100000000 cycles: 73576460 heartbeat IPC: 1.14636 cumulative IPC: 0.933007 (Simulation time: 0 hr 53 min 35 sec) 
Heartbeat CPU 0 instructions: 101000000 cycles: 74314034 heartbeat IPC: 1.3558 cumulative IPC: 0.938747 (Simulation time: 0 hr 54 min 8 sec) 
Heartbeat CPU 0 instructions: 102000003 cycles: 75761536 heartbeat IPC: 0.690847 cumulative IPC: 0.932313 (Simulation time: 0 hr 54 min 46 sec) 
Heartbeat CPU 0 instructions: 103000001 cycles: 76688316 heartbeat IPC: 1.079 cumulative IPC: 0.934711 (Simulation time: 0 hr 55 min 17 sec) 
Heartbeat CPU 0 instructions: 104000000 cycles: 77507049 heartbeat IPC: 1.2214 cumulative IPC: 0.938791 (Simulation time: 0 hr 55 min 48 sec) 
Heartbeat CPU 0 instructions: 105000002 cycles: 78564166 heartbeat IPC: 0.945971 cumulative IPC: 0.938921 (Simulation time: 0 hr 56 min 23 sec) 
Heartbeat CPU 0 instructions: 106000003 cycles: 80048284 heartbeat IPC: 0.673802 cumulative IPC: 0.93237 (Simulation time: 0 hr 56 min 57 sec) 
Heartbeat CPU 0 instructions: 107000001 cycles: 80932352 heartbeat IPC: 1.13113 cumulative IPC: 0.935253 (Simulation time: 0 hr 57 min 31 sec) 
Heartbeat CPU 0 instructions: 108000000 cycles: 81762876 heartbeat IPC: 1.20406 cumulative IPC: 0.938867 (Simulation time: 0 hr 58 min 2 sec) 
Heartbeat CPU 0 instructions: 109000001 cycles: 82825460 heartbeat IPC: 0.941103 cumulative IPC: 0.938905 (Simulation time: 0 hr 58 min 33 sec) 
Heartbeat CPU 0 instructions: 110000000 cycles: 84170637 heartbeat IPC: 0.743396 cumulative IPC: 0.934807 (Simulation time: 0 hr 59 min 7 sec) 
Heartbeat CPU 0 instructions: 111000003 cycles: 85033693 heartbeat IPC: 1.15868 cumulative IPC: 0.937778 (Simulation time: 0 hr 59 min 39 sec) 
Heartbeat CPU 0 instructions: 112000000 cycles: 85865001 heartbeat IPC: 1.20292 cumulative IPC: 0.941123 (Simulation time: 1 hr 0 min 14 sec) 
Heartbeat CPU 0 instructions: 113000002 cycles: 87024702 heartbeat IPC: 0.862293 cumulative IPC: 0.93976 (Simulation time: 1 hr 0 min 49 sec) 
Heartbeat CPU 0 instructions: 114000001 cycles: 88220397 heartbeat IPC: 0.836333 cumulative IPC: 0.937947 (Simulation time: 1 hr 1 min 21 sec) 
Heartbeat CPU 0 instructions: 115000002 cycles: 89094782 heartbeat IPC: 1.14366 cumulative IPC: 0.94055 (Simulation time: 1 hr 1 min 54 sec) 
Heartbeat CPU 0 instructions: 116000000 cycles: 89899744 heartbeat IPC: 1.24229 cumulative IPC: 0.944024 (Simulation time: 1 hr 2 min 31 sec) 
Heartbeat CPU 0 instructions: 117000002 cycles: 91249021 heartbeat IPC: 0.741139 cumulative IPC: 0.940183 (Simulation time: 1 hr 3 min 4 sec) 
Heartbeat CPU 0 instructions: 118000002 cycles: 92226230 heartbeat IPC: 1.02332 cumulative IPC: 0.941307 (Simulation time: 1 hr 3 min 36 sec) 
Heartbeat CPU 0 instructions: 119000001 cycles: 93081684 heartbeat IPC: 1.16897 cumulative IPC: 0.943972 (Simulation time: 1 hr 4 min 8 sec) 
Heartbeat CPU 0 instructions: 120000000 cycles: 93999791 heartbeat IPC: 1.0892 cumulative IPC: 0.945773 (Simulation time: 1 hr 4 min 41 sec) 
Heartbeat CPU 0 instructions: 121000000 cycles: 95431477 heartbeat IPC: 0.698477 cumulative IPC: 0.941081 (Simulation time: 1 hr 5 min 13 sec) 
Heartbeat CPU 0 instructions: 122000003 cycles: 96314177 heartbeat IPC: 1.13289 cumulative IPC: 0.943299 (Simulation time: 1 hr 5 min 44 sec) 
Heartbeat CPU 0 instructions: 123000001 cycles: 97169489 heartbeat IPC: 1.16916 cumulative IPC: 0.945802 (Simulation time: 1 hr 6 min 15 sec) 
Heartbeat CPU 0 instructions: 124000000 cycles: 98274633 heartbeat IPC: 0.904859 cumulative IPC: 0.945224 (Simulation time: 1 hr 6 min 49 sec) 
Heartbeat CPU 0 instructions: 125000003 cycles: 99576102 heartbeat IPC: 0.768365 cumulative IPC: 0.942332 (Simulation time: 1 hr 7 min 24 sec) 
Heartbeat CPU 0 instructions: 126000001 cycles: 100457086 heartbeat IPC: 1.13509 cumulative IPC: 0.944442 (Simulation time: 1 hr 8 min 3 sec) 
Heartbeat CPU 0 instructions: 127000000 cycles: 101321026 heartbeat IPC: 1.15749 cumulative IPC: 0.946705 (Simulation time: 1 hr 8 min 34 sec) 
Heartbeat CPU 0 instructions: 128000000 cycles: 102627474 heartbeat IPC: 0.765434 cumulative IPC: 0.943839 (Simulation time: 1 hr 9 min 7 sec) 
Heartbeat CPU 0 instructions: 129000002 cycles: 103984164 heartbeat IPC: 0.73709 cumulative IPC: 0.9405 (Simulation time: 1 hr 9 min 36 sec) 
Heartbeat CPU 0 instructions: 130000002 cycles: 104888283 heartbeat IPC: 1.10605 cumulative IPC: 0.942263 (Simulation time: 1 hr 10 min 7 sec) 
Heartbeat CPU 0 instructions: 131000001 cycles: 105711044 heartbeat IPC: 1.21542 cumulative IPC: 0.944885 (Simulation time: 1 hr 10 min 34 sec) 
Heartbeat CPU 0 instructions: 132000000 cycles: 106975432 heartbeat IPC: 0.790896 cumulative IPC: 0.942646 (Simulation time: 1 hr 11 min 4 sec) 
Heartbeat CPU 0 instructions: 133000001 cycles: 108370152 heartbeat IPC: 0.716991 cumulative IPC: 0.939085 (Simulation time: 1 hr 11 min 32 sec) 
Heartbeat CPU 0 instructions: 134000002 cycles: 109250028 heartbeat IPC: 1.13652 cumulative IPC: 0.941032 (Simulation time: 1 hr 11 min 57 sec) 
Heartbeat CPU 0 instructions: 135000001 cycles: 110106396 heartbeat IPC: 1.16772 cumulative IPC: 0.943186 (Simulation time: 1 hr 12 min 20 sec) 
Heartbeat CPU 0 instructions: 136000000 cycles: 111323957 heartbeat IPC: 0.821313 cumulative IPC: 0.941561 (Simulation time: 1 hr 12 min 45 sec) 
Heartbeat CPU 0 instructions: 137000001 cycles: 112647056 heartbeat IPC: 0.755802 cumulative IPC: 0.938909 (Simulation time: 1 hr 13 min 10 sec) 
Heartbeat CPU 0 instructions: 138000002 cycles: 113545969 heartbeat IPC: 1.11246 cumulative IPC: 0.940576 (Simulation time: 1 hr 13 min 34 sec) 
Heartbeat CPU 0 instructions: 139000001 cycles: 114406482 heartbeat IPC: 1.1621 cumulative IPC: 0.942595 (Simulation time: 1 hr 13 min 58 sec) 
Heartbeat CPU 0 instructions: 140000000 cycles: 115707356 heartbeat IPC: 0.768713 cumulative IPC: 0.940232 (Simulation time: 1 hr 14 min 23 sec) 
Heartbeat CPU 0 instructions: 141000000 cycles: 117207817 heartbeat IPC: 0.666462 cumulative IPC: 0.936007 (Simulation time: 1 hr 14 min 49 sec) 
Heartbeat CPU 0 instructions: 142000002 cycles: 118342261 heartbeat IPC: 0.881491 cumulative IPC: 0.935378 (Simulation time: 1 hr 15 min 12 sec) 
Heartbeat CPU 0 instructions: 143000003 cycles: 119214834 heartbeat IPC: 1.14604 cumulative IPC: 0.93723 (Simulation time: 1 hr 15 min 35 sec) 
Heartbeat CPU 0 instructions: 144000000 cycles: 120095399 heartbeat IPC: 1.13563 cumulative IPC: 0.938975 (Simulation time: 1 hr 15 min 57 sec) 
Heartbeat CPU 0 instructions: 145000000 cycles: 121268426 heartbeat IPC: 0.852495 cumulative IPC: 0.937974 (Simulation time: 1 hr 16 min 21 sec) 
Heartbeat CPU 0 instructions: 146000001 cycles: 122721966 heartbeat IPC: 0.687976 cumulative IPC: 0.934437 (Simulation time: 1 hr 16 min 45 sec) 
Heartbeat CPU 0 instructions: 147000002 cycles: 123599391 heartbeat IPC: 1.1397 cumulative IPC: 0.936175 (Simulation time: 1 hr 17 min 7 sec) 
Heartbeat CPU 0 instructions: 148000000 cycles: 124479731 heartbeat IPC: 1.13592 cumulative IPC: 0.937858 (Simulation time: 1 hr 17 min 28 sec) 
Heartbeat CPU 0 instructions: 149000001 cycles: 125718368 heartbeat IPC: 0.80734 cumulative IPC: 0.936329 (Simulation time: 1 hr 17 min 52 sec) 
Heartbeat CPU 0 instructions: 150000000 cycles: 127108612 heartbeat IPC: 0.719297 cumulative IPC: 0.933512 (Simulation time: 1 hr 18 min 12 sec) 
Finished CPU 0 instructions: 100000001 cycles: 107122324 cummulative IPC: 0.933512 (Simulation time: 1 hr 18 min 12 sec) 

ChampSim completed all CPUs

Region of Interest Statistics

CPU 0 cummulative IPC: 0.933512 instructions: 100000001 cycles: 107122324
LLC TOTAL     ACCESS:    1706403  HIT:     704011  MISS:    1002392
LLC LOAD      ACCESS:     272400  HIT:     212172  MISS:      60228
LLC RFO       ACCESS:     107607  HIT:      90960  MISS:      16647
LLC PREFETCH  ACCESS:    1186813  HIT:     263052  MISS:     923761
LLC WRITEBACK ACCESS:     139583  HIT:     137827  MISS:       1756
OPTgen accesses: 9263
OPTgen hits: 7984
OPTgen hit rate: 86.1924


