
*** ChampSim Multicore Out-of-Order Simulator ***

Warmup Instructions: 50000000
Simulation Instructions: 100000000
Configuration: 2
Number of CPUs: 1
LLC sets: 2048
LLC ways: 16
Off-chip DRAM Channels: 1 Width: 64-bit Data Rate: 1600 MT/s

CPU 0 runs /datasets/cs240c-wi22-a00-public/data/Assignment2-gz/omnetpp_340B.trace.gz
CPU 0 L1D next line prefetcher
CPU 0 L2C IP-based stride prefetcher
Initialize Hawkeye state
Heartbeat CPU 0 instructions: 1000001 cycles: 576945 heartbeat IPC: 1.73327 cumulative IPC: 1.73327 (Simulation time: 0 hr 1 min 8 sec) 
Heartbeat CPU 0 instructions: 2000000 cycles: 1160881 heartbeat IPC: 1.71251 cumulative IPC: 1.72283 (Simulation time: 0 hr 2 min 10 sec) 
Heartbeat CPU 0 instructions: 3000001 cycles: 1758200 heartbeat IPC: 1.67415 cumulative IPC: 1.70629 (Simulation time: 0 hr 3 min 15 sec) 
Heartbeat CPU 0 instructions: 4000000 cycles: 2379227 heartbeat IPC: 1.61023 cumulative IPC: 1.68122 (Simulation time: 0 hr 4 min 23 sec) 
Heartbeat CPU 0 instructions: 5000002 cycles: 2954756 heartbeat IPC: 1.73754 cumulative IPC: 1.69219 (Simulation time: 0 hr 5 min 30 sec) 
Heartbeat CPU 0 instructions: 6000003 cycles: 3556225 heartbeat IPC: 1.6626 cumulative IPC: 1.68718 (Simulation time: 0 hr 6 min 34 sec) 
Heartbeat CPU 0 instructions: 7000003 cycles: 4205637 heartbeat IPC: 1.53985 cumulative IPC: 1.66443 (Simulation time: 0 hr 7 min 43 sec) 
Heartbeat CPU 0 instructions: 8000000 cycles: 4800170 heartbeat IPC: 1.68199 cumulative IPC: 1.66661 (Simulation time: 0 hr 8 min 53 sec) 
Heartbeat CPU 0 instructions: 9000002 cycles: 5433695 heartbeat IPC: 1.57847 cumulative IPC: 1.65633 (Simulation time: 0 hr 10 min 7 sec) 
Heartbeat CPU 0 instructions: 10000002 cycles: 6028202 heartbeat IPC: 1.68207 cumulative IPC: 1.65887 (Simulation time: 0 hr 11 min 17 sec) 
Heartbeat CPU 0 instructions: 11000003 cycles: 6627732 heartbeat IPC: 1.66797 cumulative IPC: 1.65969 (Simulation time: 0 hr 12 min 23 sec) 
Heartbeat CPU 0 instructions: 12000000 cycles: 7230187 heartbeat IPC: 1.65987 cumulative IPC: 1.65971 (Simulation time: 0 hr 13 min 28 sec) 
Heartbeat CPU 0 instructions: 13000002 cycles: 7833807 heartbeat IPC: 1.65667 cumulative IPC: 1.65947 (Simulation time: 0 hr 14 min 36 sec) 
Heartbeat CPU 0 instructions: 14000000 cycles: 8429601 heartbeat IPC: 1.67843 cumulative IPC: 1.66081 (Simulation time: 0 hr 15 min 49 sec) 
Heartbeat CPU 0 instructions: 15000001 cycles: 9021159 heartbeat IPC: 1.69045 cumulative IPC: 1.66276 (Simulation time: 0 hr 16 min 59 sec) 
Heartbeat CPU 0 instructions: 16000000 cycles: 9644258 heartbeat IPC: 1.60488 cumulative IPC: 1.65902 (Simulation time: 0 hr 18 min 1 sec) 
Heartbeat CPU 0 instructions: 17000000 cycles: 10249960 heartbeat IPC: 1.65098 cumulative IPC: 1.65854 (Simulation time: 0 hr 19 min 12 sec) 
Heartbeat CPU 0 instructions: 18000000 cycles: 10870361 heartbeat IPC: 1.61186 cumulative IPC: 1.65588 (Simulation time: 0 hr 20 min 23 sec) 
Heartbeat CPU 0 instructions: 19000000 cycles: 11502310 heartbeat IPC: 1.58241 cumulative IPC: 1.65184 (Simulation time: 0 hr 21 min 32 sec) 
Heartbeat CPU 0 instructions: 20000000 cycles: 12088629 heartbeat IPC: 1.70556 cumulative IPC: 1.65445 (Simulation time: 0 hr 22 min 42 sec) 
Heartbeat CPU 0 instructions: 21000000 cycles: 12686217 heartbeat IPC: 1.67339 cumulative IPC: 1.65534 (Simulation time: 0 hr 23 min 54 sec) 
Heartbeat CPU 0 instructions: 22000001 cycles: 13300789 heartbeat IPC: 1.62715 cumulative IPC: 1.65404 (Simulation time: 0 hr 25 min 0 sec) 
Heartbeat CPU 0 instructions: 23000001 cycles: 13922847 heartbeat IPC: 1.60757 cumulative IPC: 1.65196 (Simulation time: 0 hr 26 min 9 sec) 
Heartbeat CPU 0 instructions: 24000000 cycles: 14545784 heartbeat IPC: 1.6053 cumulative IPC: 1.64996 (Simulation time: 0 hr 27 min 15 sec) 
Heartbeat CPU 0 instructions: 25000001 cycles: 15162845 heartbeat IPC: 1.62059 cumulative IPC: 1.64877 (Simulation time: 0 hr 28 min 27 sec) 
Heartbeat CPU 0 instructions: 26000001 cycles: 15753710 heartbeat IPC: 1.69243 cumulative IPC: 1.6504 (Simulation time: 0 hr 29 min 33 sec) 
Heartbeat CPU 0 instructions: 27000000 cycles: 16324459 heartbeat IPC: 1.75208 cumulative IPC: 1.65396 (Simulation time: 0 hr 30 min 35 sec) 
Heartbeat CPU 0 instructions: 28000000 cycles: 16919944 heartbeat IPC: 1.6793 cumulative IPC: 1.65485 (Simulation time: 0 hr 31 min 47 sec) 
Heartbeat CPU 0 instructions: 29000003 cycles: 17543637 heartbeat IPC: 1.60336 cumulative IPC: 1.65302 (Simulation time: 0 hr 32 min 53 sec) 
Heartbeat CPU 0 instructions: 30000003 cycles: 18120739 heartbeat IPC: 1.7328 cumulative IPC: 1.65556 (Simulation time: 0 hr 34 min 0 sec) 
Heartbeat CPU 0 instructions: 31000001 cycles: 18729632 heartbeat IPC: 1.64232 cumulative IPC: 1.65513 (Simulation time: 0 hr 35 min 4 sec) 
Heartbeat CPU 0 instructions: 32000000 cycles: 19335176 heartbeat IPC: 1.65141 cumulative IPC: 1.65501 (Simulation time: 0 hr 36 min 7 sec) 
Heartbeat CPU 0 instructions: 33000001 cycles: 19915200 heartbeat IPC: 1.72407 cumulative IPC: 1.65703 (Simulation time: 0 hr 37 min 14 sec) 
Heartbeat CPU 0 instructions: 34000001 cycles: 20566164 heartbeat IPC: 1.53618 cumulative IPC: 1.6532 (Simulation time: 0 hr 38 min 27 sec) 
Heartbeat CPU 0 instructions: 35000002 cycles: 21146613 heartbeat IPC: 1.72281 cumulative IPC: 1.65511 (Simulation time: 0 hr 39 min 34 sec) 
Heartbeat CPU 0 instructions: 36000000 cycles: 21756133 heartbeat IPC: 1.64063 cumulative IPC: 1.65471 (Simulation time: 0 hr 40 min 43 sec) 
Heartbeat CPU 0 instructions: 37000002 cycles: 22395410 heartbeat IPC: 1.56427 cumulative IPC: 1.65212 (Simulation time: 0 hr 41 min 49 sec) 
Heartbeat CPU 0 instructions: 38000000 cycles: 22978252 heartbeat IPC: 1.71573 cumulative IPC: 1.65374 (Simulation time: 0 hr 42 min 56 sec) 
Heartbeat CPU 0 instructions: 39000001 cycles: 23646927 heartbeat IPC: 1.4955 cumulative IPC: 1.64926 (Simulation time: 0 hr 44 min 2 sec) 
Heartbeat CPU 0 instructions: 40000000 cycles: 24236921 heartbeat IPC: 1.69493 cumulative IPC: 1.65037 (Simulation time: 0 hr 45 min 13 sec) 
Heartbeat CPU 0 instructions: 41000000 cycles: 24825488 heartbeat IPC: 1.69904 cumulative IPC: 1.65153 (Simulation time: 0 hr 46 min 19 sec) 
Heartbeat CPU 0 instructions: 42000001 cycles: 25453562 heartbeat IPC: 1.59217 cumulative IPC: 1.65006 (Simulation time: 0 hr 47 min 29 sec) 
Heartbeat CPU 0 instructions: 43000003 cycles: 26059688 heartbeat IPC: 1.64983 cumulative IPC: 1.65006 (Simulation time: 0 hr 48 min 31 sec) 
Heartbeat CPU 0 instructions: 44000000 cycles: 26613275 heartbeat IPC: 1.8064 cumulative IPC: 1.65331 (Simulation time: 0 hr 49 min 35 sec) 
Heartbeat CPU 0 instructions: 45000003 cycles: 27172688 heartbeat IPC: 1.78759 cumulative IPC: 1.65607 (Simulation time: 0 hr 50 min 39 sec) 
Heartbeat CPU 0 instructions: 46000001 cycles: 27787892 heartbeat IPC: 1.62547 cumulative IPC: 1.6554 (Simulation time: 0 hr 51 min 42 sec) 
Heartbeat CPU 0 instructions: 47000000 cycles: 28361339 heartbeat IPC: 1.74384 cumulative IPC: 1.65719 (Simulation time: 0 hr 52 min 50 sec) 
Heartbeat CPU 0 instructions: 48000000 cycles: 28963417 heartbeat IPC: 1.66091 cumulative IPC: 1.65726 (Simulation time: 0 hr 54 min 1 sec) 
Heartbeat CPU 0 instructions: 49000000 cycles: 29543094 heartbeat IPC: 1.7251 cumulative IPC: 1.65859 (Simulation time: 0 hr 55 min 9 sec) 
Heartbeat CPU 0 instructions: 50000000 cycles: 30186520 heartbeat IPC: 1.55418 cumulative IPC: 1.65637 (Simulation time: 0 hr 56 min 18 sec) 

Warmup complete CPU 0 instructions: 50000004 cycles: 30186521 (Simulation time: 0 hr 56 min 18 sec) 

Heartbeat CPU 0 instructions: 51000003 cycles: 33958145 heartbeat IPC: 0.265139 cumulative IPC: 0.265138 (Simulation time: 0 hr 57 min 42 sec) 
Heartbeat CPU 0 instructions: 52000000 cycles: 37958866 heartbeat IPC: 0.249954 cumulative IPC: 0.257322 (Simulation time: 0 hr 59 min 18 sec) 
Heartbeat CPU 0 instructions: 53000000 cycles: 42552128 heartbeat IPC: 0.21771 cumulative IPC: 0.242608 (Simulation time: 1 hr 0 min 48 sec) 
Heartbeat CPU 0 instructions: 54000002 cycles: 46655237 heartbeat IPC: 0.243718 cumulative IPC: 0.242885 (Simulation time: 1 hr 2 min 8 sec) 
Heartbeat CPU 0 instructions: 55000001 cycles: 50537371 heartbeat IPC: 0.25759 cumulative IPC: 0.24569 (Simulation time: 1 hr 3 min 33 sec) 
Heartbeat CPU 0 instructions: 56000000 cycles: 54809664 heartbeat IPC: 0.234066 cumulative IPC: 0.243673 (Simulation time: 1 hr 5 min 1 sec) 
Heartbeat CPU 0 instructions: 57000001 cycles: 58895958 heartbeat IPC: 0.244721 cumulative IPC: 0.243822 (Simulation time: 1 hr 6 min 31 sec) 
Heartbeat CPU 0 instructions: 58000000 cycles: 62152565 heartbeat IPC: 0.307068 cumulative IPC: 0.250265 (Simulation time: 1 hr 7 min 48 sec) 
Heartbeat CPU 0 instructions: 59000003 cycles: 66113495 heartbeat IPC: 0.252467 cumulative IPC: 0.250508 (Simulation time: 1 hr 9 min 19 sec) 
Heartbeat CPU 0 instructions: 60000000 cycles: 70574101 heartbeat IPC: 0.224184 cumulative IPC: 0.247601 (Simulation time: 1 hr 10 min 44 sec) 
Heartbeat CPU 0 instructions: 61000001 cycles: 75009217 heartbeat IPC: 0.225473 cumulative IPC: 0.245411 (Simulation time: 1 hr 11 min 55 sec) 
Heartbeat CPU 0 instructions: 62000000 cycles: 79448855 heartbeat IPC: 0.225243 cumulative IPC: 0.243594 (Simulation time: 1 hr 13 min 2 sec) 
Heartbeat CPU 0 instructions: 63000001 cycles: 83139021 heartbeat IPC: 0.270991 cumulative IPC: 0.245503 (Simulation time: 1 hr 14 min 2 sec) 
Heartbeat CPU 0 instructions: 64000000 cycles: 86957526 heartbeat IPC: 0.261882 cumulative IPC: 0.246605 (Simulation time: 1 hr 15 min 1 sec) 
Heartbeat CPU 0 instructions: 65000001 cycles: 90363995 heartbeat IPC: 0.293559 cumulative IPC: 0.249263 (Simulation time: 1 hr 16 min 3 sec) 
Heartbeat CPU 0 instructions: 66000002 cycles: 94391011 heartbeat IPC: 0.248323 cumulative IPC: 0.249204 (Simulation time: 1 hr 17 min 3 sec) 
Heartbeat CPU 0 instructions: 67000002 cycles: 98116622 heartbeat IPC: 0.268412 cumulative IPC: 0.250257 (Simulation time: 1 hr 17 min 55 sec) 
Heartbeat CPU 0 instructions: 68000000 cycles: 101997550 heartbeat IPC: 0.25767 cumulative IPC: 0.250658 (Simulation time: 1 hr 18 min 40 sec) 
Heartbeat CPU 0 instructions: 69000000 cycles: 106066679 heartbeat IPC: 0.245753 cumulative IPC: 0.250395 (Simulation time: 1 hr 19 min 28 sec) 
Heartbeat CPU 0 instructions: 70000001 cycles: 109802065 heartbeat IPC: 0.26771 cumulative IPC: 0.251207 (Simulation time: 1 hr 20 min 8 sec) 
Heartbeat CPU 0 instructions: 71000003 cycles: 113721657 heartbeat IPC: 0.255129 cumulative IPC: 0.251391 (Simulation time: 1 hr 20 min 50 sec) 
Heartbeat CPU 0 instructions: 72000000 cycles: 118199893 heartbeat IPC: 0.223302 cumulative IPC: 0.249962 (Simulation time: 1 hr 21 min 30 sec) 
Heartbeat CPU 0 instructions: 73000002 cycles: 122220631 heartbeat IPC: 0.248711 cumulative IPC: 0.249907 (Simulation time: 1 hr 22 min 4 sec) 
Heartbeat CPU 0 instructions: 74000000 cycles: 126105005 heartbeat IPC: 0.257441 cumulative IPC: 0.250212 (Simulation time: 1 hr 22 min 37 sec) 
Heartbeat CPU 0 instructions: 75000003 cycles: 130189075 heartbeat IPC: 0.244855 cumulative IPC: 0.249994 (Simulation time: 1 hr 23 min 12 sec) 
Heartbeat CPU 0 instructions: 76000000 cycles: 134045120 heartbeat IPC: 0.259332 cumulative IPC: 0.25034 (Simulation time: 1 hr 23 min 45 sec) 
Heartbeat CPU 0 instructions: 77000002 cycles: 138663833 heartbeat IPC: 0.216511 cumulative IPC: 0.2489 (Simulation time: 1 hr 24 min 12 sec) 
Heartbeat CPU 0 instructions: 78000003 cycles: 142490006 heartbeat IPC: 0.261358 cumulative IPC: 0.249324 (Simulation time: 1 hr 24 min 38 sec) 
Heartbeat CPU 0 instructions: 79000002 cycles: 146359769 heartbeat IPC: 0.258413 cumulative IPC: 0.249627 (Simulation time: 1 hr 25 min 1 sec) 
Heartbeat CPU 0 instructions: 80000000 cycles: 150171132 heartbeat IPC: 0.262373 cumulative IPC: 0.250032 (Simulation time: 1 hr 25 min 27 sec) 
Heartbeat CPU 0 instructions: 81000002 cycles: 154268901 heartbeat IPC: 0.244036 cumulative IPC: 0.249834 (Simulation time: 1 hr 25 min 48 sec) 
Heartbeat CPU 0 instructions: 82000000 cycles: 158811517 heartbeat IPC: 0.220137 cumulative IPC: 0.248785 (Simulation time: 1 hr 26 min 10 sec) 
Heartbeat CPU 0 instructions: 83000002 cycles: 162514857 heartbeat IPC: 0.270027 cumulative IPC: 0.24938 (Simulation time: 1 hr 26 min 30 sec) 
Heartbeat CPU 0 instructions: 84000000 cycles: 166413791 heartbeat IPC: 0.25648 cumulative IPC: 0.249583 (Simulation time: 1 hr 26 min 49 sec) 
Heartbeat CPU 0 instructions: 85000000 cycles: 170245673 heartbeat IPC: 0.260968 cumulative IPC: 0.249894 (Simulation time: 1 hr 27 min 7 sec) 
Heartbeat CPU 0 instructions: 86000000 cycles: 174211119 heartbeat IPC: 0.252178 cumulative IPC: 0.249957 (Simulation time: 1 hr 27 min 23 sec) 
Heartbeat CPU 0 instructions: 87000001 cycles: 177959918 heartbeat IPC: 0.266752 cumulative IPC: 0.250383 (Simulation time: 1 hr 27 min 39 sec) 
Heartbeat CPU 0 instructions: 88000000 cycles: 181820578 heartbeat IPC: 0.259023 cumulative IPC: 0.250603 (Simulation time: 1 hr 27 min 54 sec) 
Heartbeat CPU 0 instructions: 89000003 cycles: 185377778 heartbeat IPC: 0.281121 cumulative IPC: 0.251303 (Simulation time: 1 hr 28 min 9 sec) 
Heartbeat CPU 0 instructions: 90000000 cycles: 189289839 heartbeat IPC: 0.255619 cumulative IPC: 0.251409 (Simulation time: 1 hr 28 min 23 sec) 
Heartbeat CPU 0 instructions: 91000001 cycles: 192986982 heartbeat IPC: 0.270479 cumulative IPC: 0.251842 (Simulation time: 1 hr 28 min 35 sec) 
Heartbeat CPU 0 instructions: 92000000 cycles: 197098557 heartbeat IPC: 0.243216 cumulative IPC: 0.25163 (Simulation time: 1 hr 28 min 44 sec) 
Heartbeat CPU 0 instructions: 93000001 cycles: 201637899 heartbeat IPC: 0.220296 cumulative IPC: 0.2508 (Simulation time: 1 hr 28 min 53 sec) 
Heartbeat CPU 0 instructions: 94000001 cycles: 205566823 heartbeat IPC: 0.254523 cumulative IPC: 0.250883 (Simulation time: 1 hr 29 min 2 sec) 
Heartbeat CPU 0 instructions: 95000000 cycles: 209641745 heartbeat IPC: 0.245403 cumulative IPC: 0.250759 (Simulation time: 1 hr 29 min 11 sec) 
Heartbeat CPU 0 instructions: 96000000 cycles: 214011204 heartbeat IPC: 0.228861 cumulative IPC: 0.250238 (Simulation time: 1 hr 29 min 19 sec) 
Heartbeat CPU 0 instructions: 97000000 cycles: 217642989 heartbeat IPC: 0.275347 cumulative IPC: 0.250725 (Simulation time: 1 hr 29 min 26 sec) 
Heartbeat CPU 0 instructions: 98000000 cycles: 221928084 heartbeat IPC: 0.233367 cumulative IPC: 0.250337 (Simulation time: 1 hr 29 min 35 sec) 
Heartbeat CPU 0 instructions: 99000000 cycles: 226480534 heartbeat IPC: 0.219662 cumulative IPC: 0.249626 (Simulation time: 1 hr 29 min 43 sec) 
Heartbeat CPU 0 instructions: 100000000 cycles: 230550867 heartbeat IPC: 0.24568 cumulative IPC: 0.249545 (Simulation time: 1 hr 29 min 50 sec) 
Heartbeat CPU 0 instructions: 101000000 cycles: 234455166 heartbeat IPC: 0.256128 cumulative IPC: 0.249671 (Simulation time: 1 hr 29 min 57 sec) 
Heartbeat CPU 0 instructions: 102000003 cycles: 238674344 heartbeat IPC: 0.237014 cumulative IPC: 0.249415 (Simulation time: 1 hr 30 min 4 sec) 
Heartbeat CPU 0 instructions: 103000000 cycles: 242487045 heartbeat IPC: 0.26228 cumulative IPC: 0.249646 (Simulation time: 1 hr 30 min 11 sec) 
Heartbeat CPU 0 instructions: 104000000 cycles: 246313761 heartbeat IPC: 0.261321 cumulative IPC: 0.249853 (Simulation time: 1 hr 30 min 18 sec) 
Heartbeat CPU 0 instructions: 105000003 cycles: 250511756 heartbeat IPC: 0.23821 cumulative IPC: 0.249631 (Simulation time: 1 hr 30 min 26 sec) 
Heartbeat CPU 0 instructions: 106000001 cycles: 254214818 heartbeat IPC: 0.270046 cumulative IPC: 0.249968 (Simulation time: 1 hr 30 min 32 sec) 
Heartbeat CPU 0 instructions: 107000000 cycles: 258444003 heartbeat IPC: 0.236452 cumulative IPC: 0.249718 (Simulation time: 1 hr 30 min 39 sec) 
Heartbeat CPU 0 instructions: 108000000 cycles: 262477253 heartbeat IPC: 0.247939 cumulative IPC: 0.249687 (Simulation time: 1 hr 30 min 47 sec) 
Heartbeat CPU 0 instructions: 109000000 cycles: 266946707 heartbeat IPC: 0.223741 cumulative IPC: 0.249197 (Simulation time: 1 hr 30 min 54 sec) 
Heartbeat CPU 0 instructions: 110000000 cycles: 270581502 heartbeat IPC: 0.275119 cumulative IPC: 0.249589 (Simulation time: 1 hr 31 min 0 sec) 
Heartbeat CPU 0 instructions: 111000002 cycles: 275100236 heartbeat IPC: 0.221301 cumulative IPC: 0.249067 (Simulation time: 1 hr 31 min 7 sec) 
Heartbeat CPU 0 instructions: 112000000 cycles: 279023817 heartbeat IPC: 0.254869 cumulative IPC: 0.249159 (Simulation time: 1 hr 31 min 14 sec) 
Heartbeat CPU 0 instructions: 113000002 cycles: 282636905 heartbeat IPC: 0.276772 cumulative IPC: 0.249554 (Simulation time: 1 hr 31 min 20 sec) 
Heartbeat CPU 0 instructions: 114000000 cycles: 286118495 heartbeat IPC: 0.287225 cumulative IPC: 0.250066 (Simulation time: 1 hr 31 min 26 sec) 
Heartbeat CPU 0 instructions: 115000000 cycles: 289892451 heartbeat IPC: 0.264974 cumulative IPC: 0.250283 (Simulation time: 1 hr 31 min 33 sec) 
Heartbeat CPU 0 instructions: 116000000 cycles: 294065202 heartbeat IPC: 0.23965 cumulative IPC: 0.250115 (Simulation time: 1 hr 31 min 40 sec) 
Heartbeat CPU 0 instructions: 117000000 cycles: 297826534 heartbeat IPC: 0.265863 cumulative IPC: 0.250336 (Simulation time: 1 hr 31 min 46 sec) 
Heartbeat CPU 0 instructions: 118000000 cycles: 301513526 heartbeat IPC: 0.271224 cumulative IPC: 0.25062 (Simulation time: 1 hr 31 min 52 sec) 
Heartbeat CPU 0 instructions: 119000003 cycles: 305368342 heartbeat IPC: 0.259417 cumulative IPC: 0.250743 (Simulation time: 1 hr 31 min 58 sec) 
Heartbeat CPU 0 instructions: 120000000 cycles: 309074074 heartbeat IPC: 0.269851 cumulative IPC: 0.250997 (Simulation time: 1 hr 32 min 5 sec) 
Heartbeat CPU 0 instructions: 121000001 cycles: 312660070 heartbeat IPC: 0.278863 cumulative IPC: 0.251351 (Simulation time: 1 hr 32 min 11 sec) 
Heartbeat CPU 0 instructions: 122000001 cycles: 316370550 heartbeat IPC: 0.269507 cumulative IPC: 0.251586 (Simulation time: 1 hr 32 min 18 sec) 
Heartbeat CPU 0 instructions: 123000000 cycles: 320019180 heartbeat IPC: 0.274075 cumulative IPC: 0.251869 (Simulation time: 1 hr 32 min 24 sec) 
Heartbeat CPU 0 instructions: 124000000 cycles: 323693259 heartbeat IPC: 0.272177 cumulative IPC: 0.252124 (Simulation time: 1 hr 32 min 31 sec) 
Heartbeat CPU 0 instructions: 125000001 cycles: 327426689 heartbeat IPC: 0.26785 cumulative IPC: 0.252321 (Simulation time: 1 hr 32 min 37 sec) 
Heartbeat CPU 0 instructions: 126000003 cycles: 331050919 heartbeat IPC: 0.275921 cumulative IPC: 0.252605 (Simulation time: 1 hr 32 min 44 sec) 
Heartbeat CPU 0 instructions: 127000001 cycles: 334574033 heartbeat IPC: 0.283839 cumulative IPC: 0.252967 (Simulation time: 1 hr 32 min 50 sec) 
Heartbeat CPU 0 instructions: 128000000 cycles: 338170619 heartbeat IPC: 0.278041 cumulative IPC: 0.25326 (Simulation time: 1 hr 32 min 57 sec) 
Heartbeat CPU 0 instructions: 129000001 cycles: 341541586 heartbeat IPC: 0.296651 cumulative IPC: 0.25373 (Simulation time: 1 hr 33 min 3 sec) 
Heartbeat CPU 0 instructions: 130000000 cycles: 345238868 heartbeat IPC: 0.270469 cumulative IPC: 0.253926 (Simulation time: 1 hr 33 min 9 sec) 
Heartbeat CPU 0 instructions: 131000000 cycles: 348910224 heartbeat IPC: 0.272379 cumulative IPC: 0.254139 (Simulation time: 1 hr 33 min 15 sec) 
Heartbeat CPU 0 instructions: 132000000 cycles: 352733676 heartbeat IPC: 0.261544 cumulative IPC: 0.254226 (Simulation time: 1 hr 33 min 22 sec) 
Heartbeat CPU 0 instructions: 133000003 cycles: 356650608 heartbeat IPC: 0.255303 cumulative IPC: 0.254239 (Simulation time: 1 hr 33 min 28 sec) 
Heartbeat CPU 0 instructions: 134000000 cycles: 360677721 heartbeat IPC: 0.248316 cumulative IPC: 0.254167 (Simulation time: 1 hr 33 min 35 sec) 
Heartbeat CPU 0 instructions: 135000001 cycles: 364504767 heartbeat IPC: 0.261298 cumulative IPC: 0.254249 (Simulation time: 1 hr 33 min 41 sec) 
Heartbeat CPU 0 instructions: 136000000 cycles: 368335359 heartbeat IPC: 0.261056 cumulative IPC: 0.254326 (Simulation time: 1 hr 33 min 47 sec) 
Heartbeat CPU 0 instructions: 137000000 cycles: 372214307 heartbeat IPC: 0.257802 cumulative IPC: 0.254365 (Simulation time: 1 hr 33 min 54 sec) 
Heartbeat CPU 0 instructions: 138000000 cycles: 375983026 heartbeat IPC: 0.265342 cumulative IPC: 0.254485 (Simulation time: 1 hr 34 min 0 sec) 
Heartbeat CPU 0 instructions: 139000000 cycles: 380046536 heartbeat IPC: 0.246093 cumulative IPC: 0.254387 (Simulation time: 1 hr 34 min 7 sec) 
Heartbeat CPU 0 instructions: 140000000 cycles: 383569283 heartbeat IPC: 0.283869 cumulative IPC: 0.254681 (Simulation time: 1 hr 34 min 13 sec) 
Heartbeat CPU 0 instructions: 141000001 cycles: 387873018 heartbeat IPC: 0.232357 cumulative IPC: 0.254413 (Simulation time: 1 hr 34 min 20 sec) 
Heartbeat CPU 0 instructions: 142000000 cycles: 391937695 heartbeat IPC: 0.246022 cumulative IPC: 0.254318 (Simulation time: 1 hr 34 min 26 sec) 
Heartbeat CPU 0 instructions: 143000000 cycles: 396076722 heartbeat IPC: 0.241603 cumulative IPC: 0.254175 (Simulation time: 1 hr 34 min 33 sec) 
Heartbeat CPU 0 instructions: 144000000 cycles: 400090641 heartbeat IPC: 0.249133 cumulative IPC: 0.25412 (Simulation time: 1 hr 34 min 39 sec) 
Heartbeat CPU 0 instructions: 145000001 cycles: 403435425 heartbeat IPC: 0.298973 cumulative IPC: 0.254522 (Simulation time: 1 hr 34 min 46 sec) 
Heartbeat CPU 0 instructions: 146000001 cycles: 407701046 heartbeat IPC: 0.234432 cumulative IPC: 0.254295 (Simulation time: 1 hr 34 min 52 sec) 
Heartbeat CPU 0 instructions: 147000002 cycles: 411958986 heartbeat IPC: 0.234856 cumulative IPC: 0.254078 (Simulation time: 1 hr 34 min 59 sec) 
Heartbeat CPU 0 instructions: 148000000 cycles: 415737950 heartbeat IPC: 0.264622 cumulative IPC: 0.254181 (Simulation time: 1 hr 35 min 5 sec) 
Heartbeat CPU 0 instructions: 149000000 cycles: 419498170 heartbeat IPC: 0.265942 cumulative IPC: 0.254295 (Simulation time: 1 hr 35 min 11 sec) 
Heartbeat CPU 0 instructions: 150000000 cycles: 422746829 heartbeat IPC: 0.307819 cumulative IPC: 0.254738 (Simulation time: 1 hr 35 min 16 sec) 
Finished CPU 0 instructions: 100000000 cycles: 392560309 cummulative IPC: 0.254738 (Simulation time: 1 hr 35 min 16 sec) 

ChampSim completed all CPUs

Region of Interest Statistics

CPU 0 cummulative IPC: 0.254738 instructions: 100000000 cycles: 392560309
LLC TOTAL     ACCESS:    4288152  HIT:    1561181  MISS:    2726971
LLC LOAD      ACCESS:    1518831  HIT:     434182  MISS:    1084649
LLC RFO       ACCESS:     246672  HIT:      97162  MISS:     149510
LLC PREFETCH  ACCESS:    1525087  HIT:     351188  MISS:    1173899
LLC WRITEBACK ACCESS:     997562  HIT:     678649  MISS:     318913
OPTgen accesses: 39539
OPTgen hits: 19012
OPTgen hit rate: 48.0842


