
*** ChampSim Multicore Out-of-Order Simulator ***

Warmup Instructions: 50000000
Simulation Instructions: 100000000
Configuration: 2
Number of CPUs: 1
LLC sets: 2048
LLC ways: 16
Off-chip DRAM Channels: 1 Width: 64-bit Data Rate: 1600 MT/s

CPU 0 runs /datasets/cs240c-wi22-a00-public/data/Assignment2-gz/milc_409B.trace.gz
CPU 0 L1D next line prefetcher
CPU 0 L2C IP-based stride prefetcher
Initialize Hawkeye state
Heartbeat CPU 0 instructions: 1000002 cycles: 407040 heartbeat IPC: 2.45677 cumulative IPC: 2.45677 (Simulation time: 0 hr 0 min 37 sec) 
Heartbeat CPU 0 instructions: 2000002 cycles: 889868 heartbeat IPC: 2.07113 cumulative IPC: 2.24753 (Simulation time: 0 hr 1 min 12 sec) 
Heartbeat CPU 0 instructions: 3000003 cycles: 1672035 heartbeat IPC: 1.2785 cumulative IPC: 1.79422 (Simulation time: 0 hr 2 min 1 sec) 
Heartbeat CPU 0 instructions: 4000000 cycles: 2454292 heartbeat IPC: 1.27835 cumulative IPC: 1.6298 (Simulation time: 0 hr 2 min 49 sec) 
Heartbeat CPU 0 instructions: 5000000 cycles: 3135413 heartbeat IPC: 1.46817 cumulative IPC: 1.59469 (Simulation time: 0 hr 3 min 28 sec) 
Heartbeat CPU 0 instructions: 6000003 cycles: 3679805 heartbeat IPC: 1.83692 cumulative IPC: 1.63052 (Simulation time: 0 hr 4 min 3 sec) 
Heartbeat CPU 0 instructions: 7000002 cycles: 4224111 heartbeat IPC: 1.8372 cumulative IPC: 1.65715 (Simulation time: 0 hr 4 min 41 sec) 
Heartbeat CPU 0 instructions: 8000000 cycles: 4768519 heartbeat IPC: 1.83685 cumulative IPC: 1.67767 (Simulation time: 0 hr 5 min 18 sec) 
Heartbeat CPU 0 instructions: 9000003 cycles: 5312845 heartbeat IPC: 1.83714 cumulative IPC: 1.69401 (Simulation time: 0 hr 5 min 59 sec) 
Heartbeat CPU 0 instructions: 10000000 cycles: 5857233 heartbeat IPC: 1.83692 cumulative IPC: 1.70729 (Simulation time: 0 hr 6 min 40 sec) 
Heartbeat CPU 0 instructions: 11000002 cycles: 6401583 heartbeat IPC: 1.83706 cumulative IPC: 1.71833 (Simulation time: 0 hr 7 min 13 sec) 
Heartbeat CPU 0 instructions: 12000000 cycles: 6945918 heartbeat IPC: 1.8371 cumulative IPC: 1.72763 (Simulation time: 0 hr 7 min 51 sec) 
Heartbeat CPU 0 instructions: 13000000 cycles: 7490306 heartbeat IPC: 1.83693 cumulative IPC: 1.73558 (Simulation time: 0 hr 8 min 27 sec) 
Heartbeat CPU 0 instructions: 14000002 cycles: 8034671 heartbeat IPC: 1.83701 cumulative IPC: 1.74245 (Simulation time: 0 hr 8 min 59 sec) 
Heartbeat CPU 0 instructions: 15000001 cycles: 8578998 heartbeat IPC: 1.83713 cumulative IPC: 1.74846 (Simulation time: 0 hr 9 min 33 sec) 
Heartbeat CPU 0 instructions: 16000000 cycles: 9123372 heartbeat IPC: 1.83697 cumulative IPC: 1.75374 (Simulation time: 0 hr 10 min 8 sec) 
Heartbeat CPU 0 instructions: 17000002 cycles: 9667738 heartbeat IPC: 1.837 cumulative IPC: 1.75843 (Simulation time: 0 hr 10 min 42 sec) 
Heartbeat CPU 0 instructions: 18000000 cycles: 10212108 heartbeat IPC: 1.83698 cumulative IPC: 1.76261 (Simulation time: 0 hr 11 min 17 sec) 
Heartbeat CPU 0 instructions: 19000003 cycles: 10756428 heartbeat IPC: 1.83716 cumulative IPC: 1.76639 (Simulation time: 0 hr 11 min 53 sec) 
Heartbeat CPU 0 instructions: 20000000 cycles: 11300832 heartbeat IPC: 1.83687 cumulative IPC: 1.76978 (Simulation time: 0 hr 12 min 27 sec) 
Heartbeat CPU 0 instructions: 21000001 cycles: 11845162 heartbeat IPC: 1.83712 cumulative IPC: 1.77288 (Simulation time: 0 hr 13 min 0 sec) 
Heartbeat CPU 0 instructions: 22000003 cycles: 12389529 heartbeat IPC: 1.837 cumulative IPC: 1.77569 (Simulation time: 0 hr 13 min 33 sec) 
Heartbeat CPU 0 instructions: 23000002 cycles: 12933914 heartbeat IPC: 1.83693 cumulative IPC: 1.77827 (Simulation time: 0 hr 14 min 6 sec) 
Heartbeat CPU 0 instructions: 24000000 cycles: 13478221 heartbeat IPC: 1.83719 cumulative IPC: 1.78065 (Simulation time: 0 hr 14 min 42 sec) 
Heartbeat CPU 0 instructions: 25000000 cycles: 14022617 heartbeat IPC: 1.8369 cumulative IPC: 1.78283 (Simulation time: 0 hr 15 min 17 sec) 
Heartbeat CPU 0 instructions: 26000000 cycles: 14566991 heartbeat IPC: 1.83697 cumulative IPC: 1.78486 (Simulation time: 0 hr 15 min 55 sec) 
Heartbeat CPU 0 instructions: 27000002 cycles: 15111313 heartbeat IPC: 1.83715 cumulative IPC: 1.78674 (Simulation time: 0 hr 16 min 30 sec) 
Heartbeat CPU 0 instructions: 28000000 cycles: 15655448 heartbeat IPC: 1.83778 cumulative IPC: 1.78851 (Simulation time: 0 hr 17 min 6 sec) 
Heartbeat CPU 0 instructions: 29000000 cycles: 16196638 heartbeat IPC: 1.84778 cumulative IPC: 1.7905 (Simulation time: 0 hr 17 min 39 sec) 
Heartbeat CPU 0 instructions: 30000000 cycles: 16737803 heartbeat IPC: 1.84787 cumulative IPC: 1.79235 (Simulation time: 0 hr 18 min 11 sec) 
Heartbeat CPU 0 instructions: 31000003 cycles: 17278974 heartbeat IPC: 1.84785 cumulative IPC: 1.79409 (Simulation time: 0 hr 18 min 43 sec) 
Heartbeat CPU 0 instructions: 32000000 cycles: 17820134 heartbeat IPC: 1.84788 cumulative IPC: 1.79572 (Simulation time: 0 hr 19 min 15 sec) 
Heartbeat CPU 0 instructions: 33000000 cycles: 18361312 heartbeat IPC: 1.84782 cumulative IPC: 1.79726 (Simulation time: 0 hr 19 min 46 sec) 
Heartbeat CPU 0 instructions: 34000000 cycles: 18902454 heartbeat IPC: 1.84794 cumulative IPC: 1.79871 (Simulation time: 0 hr 20 min 21 sec) 
Heartbeat CPU 0 instructions: 35000000 cycles: 19443597 heartbeat IPC: 1.84794 cumulative IPC: 1.80008 (Simulation time: 0 hr 20 min 56 sec) 
Heartbeat CPU 0 instructions: 36000000 cycles: 19984731 heartbeat IPC: 1.84797 cumulative IPC: 1.80138 (Simulation time: 0 hr 21 min 28 sec) 
Heartbeat CPU 0 instructions: 37000000 cycles: 20525943 heartbeat IPC: 1.8477 cumulative IPC: 1.8026 (Simulation time: 0 hr 22 min 0 sec) 
Heartbeat CPU 0 instructions: 38000001 cycles: 21067090 heartbeat IPC: 1.84793 cumulative IPC: 1.80376 (Simulation time: 0 hr 22 min 34 sec) 
Heartbeat CPU 0 instructions: 39000001 cycles: 21608246 heartbeat IPC: 1.8479 cumulative IPC: 1.80487 (Simulation time: 0 hr 23 min 8 sec) 
Heartbeat CPU 0 instructions: 40000000 cycles: 22149434 heartbeat IPC: 1.84778 cumulative IPC: 1.80592 (Simulation time: 0 hr 23 min 41 sec) 
Heartbeat CPU 0 instructions: 41000002 cycles: 22690599 heartbeat IPC: 1.84787 cumulative IPC: 1.80692 (Simulation time: 0 hr 24 min 15 sec) 
Heartbeat CPU 0 instructions: 42000001 cycles: 23231760 heartbeat IPC: 1.84788 cumulative IPC: 1.80787 (Simulation time: 0 hr 24 min 49 sec) 
Heartbeat CPU 0 instructions: 43000000 cycles: 23772903 heartbeat IPC: 1.84794 cumulative IPC: 1.80878 (Simulation time: 0 hr 25 min 21 sec) 
Heartbeat CPU 0 instructions: 44000000 cycles: 24314029 heartbeat IPC: 1.848 cumulative IPC: 1.80965 (Simulation time: 0 hr 25 min 54 sec) 
Heartbeat CPU 0 instructions: 45000001 cycles: 24855218 heartbeat IPC: 1.84779 cumulative IPC: 1.81049 (Simulation time: 0 hr 26 min 26 sec) 
Heartbeat CPU 0 instructions: 46000000 cycles: 25396381 heartbeat IPC: 1.84787 cumulative IPC: 1.81128 (Simulation time: 0 hr 27 min 0 sec) 
Heartbeat CPU 0 instructions: 47000002 cycles: 25937548 heartbeat IPC: 1.84786 cumulative IPC: 1.81204 (Simulation time: 0 hr 27 min 32 sec) 
Heartbeat CPU 0 instructions: 48000000 cycles: 26478712 heartbeat IPC: 1.84786 cumulative IPC: 1.81278 (Simulation time: 0 hr 28 min 3 sec) 
Heartbeat CPU 0 instructions: 49000002 cycles: 27019891 heartbeat IPC: 1.84782 cumulative IPC: 1.81348 (Simulation time: 0 hr 28 min 37 sec) 
Heartbeat CPU 0 instructions: 50000001 cycles: 27561034 heartbeat IPC: 1.84794 cumulative IPC: 1.81416 (Simulation time: 0 hr 29 min 10 sec) 

Warmup complete CPU 0 instructions: 50000001 cycles: 27561034 (Simulation time: 0 hr 29 min 10 sec) 

Heartbeat CPU 0 instructions: 51000002 cycles: 29215939 heartbeat IPC: 0.604265 cumulative IPC: 0.604265 (Simulation time: 0 hr 29 min 49 sec) 
Heartbeat CPU 0 instructions: 52000000 cycles: 31076887 heartbeat IPC: 0.537359 cumulative IPC: 0.568852 (Simulation time: 0 hr 30 min 32 sec) 
Heartbeat CPU 0 instructions: 53000001 cycles: 33057764 heartbeat IPC: 0.504827 cumulative IPC: 0.545779 (Simulation time: 0 hr 31 min 15 sec) 
Heartbeat CPU 0 instructions: 54000001 cycles: 35153248 heartbeat IPC: 0.477217 cumulative IPC: 0.526856 (Simulation time: 0 hr 31 min 57 sec) 
Heartbeat CPU 0 instructions: 55000002 cycles: 37456417 heartbeat IPC: 0.434185 cumulative IPC: 0.505286 (Simulation time: 0 hr 32 min 40 sec) 
Heartbeat CPU 0 instructions: 56000000 cycles: 39788506 heartbeat IPC: 0.428799 cumulative IPC: 0.490698 (Simulation time: 0 hr 33 min 22 sec) 
Heartbeat CPU 0 instructions: 57000002 cycles: 42144646 heartbeat IPC: 0.424424 cumulative IPC: 0.479991 (Simulation time: 0 hr 34 min 3 sec) 
Heartbeat CPU 0 instructions: 58000002 cycles: 44413411 heartbeat IPC: 0.440768 cumulative IPC: 0.474711 (Simulation time: 0 hr 34 min 50 sec) 
Heartbeat CPU 0 instructions: 59000001 cycles: 46216633 heartbeat IPC: 0.554562 cumulative IPC: 0.482429 (Simulation time: 0 hr 35 min 29 sec) 
Heartbeat CPU 0 instructions: 60000000 cycles: 47887726 heartbeat IPC: 0.59841 cumulative IPC: 0.491964 (Simulation time: 0 hr 36 min 7 sec) 
Heartbeat CPU 0 instructions: 61000000 cycles: 49551682 heartbeat IPC: 0.600977 cumulative IPC: 0.500213 (Simulation time: 0 hr 36 min 47 sec) 
Heartbeat CPU 0 instructions: 62000000 cycles: 51214841 heartbeat IPC: 0.601265 cumulative IPC: 0.507318 (Simulation time: 0 hr 37 min 23 sec) 
Heartbeat CPU 0 instructions: 63000003 cycles: 52880634 heartbeat IPC: 0.600316 cumulative IPC: 0.513436 (Simulation time: 0 hr 37 min 59 sec) 
Heartbeat CPU 0 instructions: 64000000 cycles: 54547537 heartbeat IPC: 0.599913 cumulative IPC: 0.518778 (Simulation time: 0 hr 38 min 42 sec) 
Heartbeat CPU 0 instructions: 65000002 cycles: 56217914 heartbeat IPC: 0.598668 cumulative IPC: 0.523435 (Simulation time: 0 hr 39 min 22 sec) 
Heartbeat CPU 0 instructions: 66000002 cycles: 57881282 heartbeat IPC: 0.60119 cumulative IPC: 0.5277 (Simulation time: 0 hr 40 min 6 sec) 
Heartbeat CPU 0 instructions: 67000001 cycles: 59547781 heartbeat IPC: 0.60006 cumulative IPC: 0.53147 (Simulation time: 0 hr 40 min 42 sec) 
Heartbeat CPU 0 instructions: 68000000 cycles: 61216277 heartbeat IPC: 0.599342 cumulative IPC: 0.534835 (Simulation time: 0 hr 41 min 18 sec) 
Heartbeat CPU 0 instructions: 69000000 cycles: 62887749 heartbeat IPC: 0.598275 cumulative IPC: 0.537837 (Simulation time: 0 hr 41 min 53 sec) 
Heartbeat CPU 0 instructions: 70000000 cycles: 64554438 heartbeat IPC: 0.599992 cumulative IPC: 0.540637 (Simulation time: 0 hr 42 min 32 sec) 
Heartbeat CPU 0 instructions: 71000002 cycles: 66223027 heartbeat IPC: 0.59931 cumulative IPC: 0.543169 (Simulation time: 0 hr 43 min 13 sec) 
Heartbeat CPU 0 instructions: 72000000 cycles: 67891555 heartbeat IPC: 0.599329 cumulative IPC: 0.545493 (Simulation time: 0 hr 43 min 57 sec) 
Heartbeat CPU 0 instructions: 73000003 cycles: 69556480 heartbeat IPC: 0.600629 cumulative IPC: 0.547678 (Simulation time: 0 hr 44 min 33 sec) 
Heartbeat CPU 0 instructions: 74000002 cycles: 71230899 heartbeat IPC: 0.597221 cumulative IPC: 0.549578 (Simulation time: 0 hr 45 min 14 sec) 
Heartbeat CPU 0 instructions: 75000003 cycles: 72896710 heartbeat IPC: 0.600309 cumulative IPC: 0.551442 (Simulation time: 0 hr 45 min 52 sec) 
Heartbeat CPU 0 instructions: 76000000 cycles: 74567719 heartbeat IPC: 0.598439 cumulative IPC: 0.553113 (Simulation time: 0 hr 46 min 31 sec) 
Heartbeat CPU 0 instructions: 77000003 cycles: 76237060 heartbeat IPC: 0.599041 cumulative IPC: 0.554688 (Simulation time: 0 hr 47 min 12 sec) 
Heartbeat CPU 0 instructions: 78000000 cycles: 77900953 heartbeat IPC: 0.600998 cumulative IPC: 0.556219 (Simulation time: 0 hr 47 min 52 sec) 
Heartbeat CPU 0 instructions: 79000000 cycles: 79572463 heartbeat IPC: 0.598261 cumulative IPC: 0.55757 (Simulation time: 0 hr 48 min 27 sec) 
Heartbeat CPU 0 instructions: 80000000 cycles: 81233574 heartbeat IPC: 0.602007 cumulative IPC: 0.558945 (Simulation time: 0 hr 49 min 7 sec) 
Heartbeat CPU 0 instructions: 81000000 cycles: 82899619 heartbeat IPC: 0.600224 cumulative IPC: 0.560188 (Simulation time: 0 hr 49 min 48 sec) 
Heartbeat CPU 0 instructions: 82000002 cycles: 84557131 heartbeat IPC: 0.603315 cumulative IPC: 0.561442 (Simulation time: 0 hr 50 min 31 sec) 
Heartbeat CPU 0 instructions: 83000003 cycles: 86214930 heartbeat IPC: 0.60321 cumulative IPC: 0.562622 (Simulation time: 0 hr 51 min 18 sec) 
Heartbeat CPU 0 instructions: 84000000 cycles: 87872980 heartbeat IPC: 0.603116 cumulative IPC: 0.563736 (Simulation time: 0 hr 52 min 2 sec) 
Heartbeat CPU 0 instructions: 85000001 cycles: 89532919 heartbeat IPC: 0.602432 cumulative IPC: 0.564772 (Simulation time: 0 hr 52 min 39 sec) 
Heartbeat CPU 0 instructions: 86000002 cycles: 91192999 heartbeat IPC: 0.602381 cumulative IPC: 0.565753 (Simulation time: 0 hr 53 min 20 sec) 
Heartbeat CPU 0 instructions: 87000003 cycles: 92853444 heartbeat IPC: 0.602249 cumulative IPC: 0.566682 (Simulation time: 0 hr 54 min 2 sec) 
Heartbeat CPU 0 instructions: 88000000 cycles: 94519155 heartbeat IPC: 0.600342 cumulative IPC: 0.567519 (Simulation time: 0 hr 54 min 40 sec) 
Heartbeat CPU 0 instructions: 89000001 cycles: 96180738 heartbeat IPC: 0.601836 cumulative IPC: 0.56835 (Simulation time: 0 hr 55 min 26 sec) 
Heartbeat CPU 0 instructions: 90000002 cycles: 97841081 heartbeat IPC: 0.602286 cumulative IPC: 0.569152 (Simulation time: 0 hr 56 min 4 sec) 
Heartbeat CPU 0 instructions: 91000000 cycles: 99497675 heartbeat IPC: 0.603647 cumulative IPC: 0.569946 (Simulation time: 0 hr 56 min 40 sec) 
Heartbeat CPU 0 instructions: 92000000 cycles: 101153815 heartbeat IPC: 0.603814 cumulative IPC: 0.570708 (Simulation time: 0 hr 57 min 20 sec) 
Heartbeat CPU 0 instructions: 93000003 cycles: 102809535 heartbeat IPC: 0.603969 cumulative IPC: 0.57144 (Simulation time: 0 hr 58 min 0 sec) 
Heartbeat CPU 0 instructions: 94000002 cycles: 104462419 heartbeat IPC: 0.605003 cumulative IPC: 0.572161 (Simulation time: 0 hr 58 min 38 sec) 
Heartbeat CPU 0 instructions: 95000003 cycles: 106116849 heartbeat IPC: 0.604438 cumulative IPC: 0.572841 (Simulation time: 0 hr 59 min 17 sec) 
Heartbeat CPU 0 instructions: 96000000 cycles: 107772906 heartbeat IPC: 0.603842 cumulative IPC: 0.573481 (Simulation time: 0 hr 59 min 54 sec) 
Heartbeat CPU 0 instructions: 97000001 cycles: 109428717 heartbeat IPC: 0.603934 cumulative IPC: 0.574097 (Simulation time: 1 hr 0 min 35 sec) 
Heartbeat CPU 0 instructions: 98000002 cycles: 111078849 heartbeat IPC: 0.606013 cumulative IPC: 0.574728 (Simulation time: 1 hr 1 min 18 sec) 
Heartbeat CPU 0 instructions: 99000003 cycles: 112730301 heartbeat IPC: 0.605528 cumulative IPC: 0.575325 (Simulation time: 1 hr 1 min 58 sec) 
Heartbeat CPU 0 instructions: 100000000 cycles: 114382988 heartbeat IPC: 0.605073 cumulative IPC: 0.575891 (Simulation time: 1 hr 2 min 36 sec) 
Heartbeat CPU 0 instructions: 101000001 cycles: 116028481 heartbeat IPC: 0.607721 cumulative IPC: 0.576483 (Simulation time: 1 hr 3 min 15 sec) 
Heartbeat CPU 0 instructions: 102000002 cycles: 117682387 heartbeat IPC: 0.60463 cumulative IPC: 0.577 (Simulation time: 1 hr 3 min 58 sec) 
Heartbeat CPU 0 instructions: 103000000 cycles: 119336209 heartbeat IPC: 0.604659 cumulative IPC: 0.577498 (Simulation time: 1 hr 4 min 35 sec) 
Heartbeat CPU 0 instructions: 104000000 cycles: 120990096 heartbeat IPC: 0.604636 cumulative IPC: 0.577979 (Simulation time: 1 hr 5 min 18 sec) 
Heartbeat CPU 0 instructions: 105000003 cycles: 122985877 heartbeat IPC: 0.501058 cumulative IPC: 0.57637 (Simulation time: 1 hr 6 min 3 sec) 
Heartbeat CPU 0 instructions: 106000003 cycles: 126865207 heartbeat IPC: 0.257776 cumulative IPC: 0.563924 (Simulation time: 1 hr 7 min 7 sec) 
Heartbeat CPU 0 instructions: 107000000 cycles: 128617668 heartbeat IPC: 0.570624 cumulative IPC: 0.56404 (Simulation time: 1 hr 7 min 38 sec) 
Heartbeat CPU 0 instructions: 108000000 cycles: 130349648 heartbeat IPC: 0.577374 cumulative IPC: 0.564265 (Simulation time: 1 hr 8 min 6 sec) 
Heartbeat CPU 0 instructions: 109000001 cycles: 132071822 heartbeat IPC: 0.580662 cumulative IPC: 0.564535 (Simulation time: 1 hr 8 min 36 sec) 
Heartbeat CPU 0 instructions: 110000001 cycles: 133791219 heartbeat IPC: 0.581599 cumulative IPC: 0.564811 (Simulation time: 1 hr 9 min 6 sec) 
Heartbeat CPU 0 instructions: 111000000 cycles: 135520726 heartbeat IPC: 0.578199 cumulative IPC: 0.565026 (Simulation time: 1 hr 9 min 36 sec) 
Heartbeat CPU 0 instructions: 112000000 cycles: 137284365 heartbeat IPC: 0.567009 cumulative IPC: 0.565058 (Simulation time: 1 hr 10 min 4 sec) 
Heartbeat CPU 0 instructions: 113000003 cycles: 139056640 heartbeat IPC: 0.564248 cumulative IPC: 0.565045 (Simulation time: 1 hr 10 min 32 sec) 
Heartbeat CPU 0 instructions: 114000003 cycles: 140828740 heartbeat IPC: 0.564302 cumulative IPC: 0.565033 (Simulation time: 1 hr 11 min 0 sec) 
Heartbeat CPU 0 instructions: 115000001 cycles: 142595622 heartbeat IPC: 0.565968 cumulative IPC: 0.565047 (Simulation time: 1 hr 11 min 28 sec) 
Heartbeat CPU 0 instructions: 116000000 cycles: 144371944 heartbeat IPC: 0.56296 cumulative IPC: 0.565016 (Simulation time: 1 hr 11 min 55 sec) 
Heartbeat CPU 0 instructions: 117000001 cycles: 146146970 heartbeat IPC: 0.563373 cumulative IPC: 0.564991 (Simulation time: 1 hr 12 min 23 sec) 
Heartbeat CPU 0 instructions: 118000003 cycles: 147920195 heartbeat IPC: 0.563945 cumulative IPC: 0.564976 (Simulation time: 1 hr 12 min 53 sec) 
Heartbeat CPU 0 instructions: 119000001 cycles: 149690412 heartbeat IPC: 0.564901 cumulative IPC: 0.564975 (Simulation time: 1 hr 13 min 20 sec) 
Heartbeat CPU 0 instructions: 120000000 cycles: 151458548 heartbeat IPC: 0.565567 cumulative IPC: 0.564983 (Simulation time: 1 hr 13 min 46 sec) 
Heartbeat CPU 0 instructions: 121000003 cycles: 153229112 heartbeat IPC: 0.564793 cumulative IPC: 0.56498 (Simulation time: 1 hr 14 min 11 sec) 
Heartbeat CPU 0 instructions: 122000001 cycles: 155003315 heartbeat IPC: 0.563632 cumulative IPC: 0.564962 (Simulation time: 1 hr 14 min 37 sec) 
Heartbeat CPU 0 instructions: 123000003 cycles: 156778446 heartbeat IPC: 0.56334 cumulative IPC: 0.564939 (Simulation time: 1 hr 15 min 1 sec) 
Heartbeat CPU 0 instructions: 124000000 cycles: 158549267 heartbeat IPC: 0.564708 cumulative IPC: 0.564936 (Simulation time: 1 hr 15 min 25 sec) 
Heartbeat CPU 0 instructions: 125000003 cycles: 160320399 heartbeat IPC: 0.564612 cumulative IPC: 0.564932 (Simulation time: 1 hr 15 min 48 sec) 
Heartbeat CPU 0 instructions: 126000000 cycles: 162094047 heartbeat IPC: 0.563808 cumulative IPC: 0.564917 (Simulation time: 1 hr 16 min 11 sec) 
Heartbeat CPU 0 instructions: 127000001 cycles: 163869356 heartbeat IPC: 0.563283 cumulative IPC: 0.564896 (Simulation time: 1 hr 16 min 33 sec) 
Heartbeat CPU 0 instructions: 128000000 cycles: 165643434 heartbeat IPC: 0.563672 cumulative IPC: 0.56488 (Simulation time: 1 hr 16 min 55 sec) 
Heartbeat CPU 0 instructions: 129000001 cycles: 167419009 heartbeat IPC: 0.563198 cumulative IPC: 0.564859 (Simulation time: 1 hr 17 min 15 sec) 
Heartbeat CPU 0 instructions: 130000000 cycles: 169194938 heartbeat IPC: 0.563085 cumulative IPC: 0.564837 (Simulation time: 1 hr 17 min 33 sec) 
Heartbeat CPU 0 instructions: 131000001 cycles: 170971064 heartbeat IPC: 0.563024 cumulative IPC: 0.564814 (Simulation time: 1 hr 17 min 52 sec) 
Heartbeat CPU 0 instructions: 132000000 cycles: 172739134 heartbeat IPC: 0.565588 cumulative IPC: 0.564823 (Simulation time: 1 hr 18 min 11 sec) 
Heartbeat CPU 0 instructions: 133000003 cycles: 174512862 heartbeat IPC: 0.563786 cumulative IPC: 0.564811 (Simulation time: 1 hr 18 min 31 sec) 
Heartbeat CPU 0 instructions: 134000001 cycles: 176283962 heartbeat IPC: 0.56462 cumulative IPC: 0.564809 (Simulation time: 1 hr 18 min 50 sec) 
Heartbeat CPU 0 instructions: 135000003 cycles: 178047314 heartbeat IPC: 0.567103 cumulative IPC: 0.564836 (Simulation time: 1 hr 19 min 9 sec) 
Heartbeat CPU 0 instructions: 136000000 cycles: 179806448 heartbeat IPC: 0.56846 cumulative IPC: 0.564877 (Simulation time: 1 hr 19 min 28 sec) 
Heartbeat CPU 0 instructions: 137000001 cycles: 181012264 heartbeat IPC: 0.829315 cumulative IPC: 0.566955 (Simulation time: 1 hr 19 min 46 sec) 
Heartbeat CPU 0 instructions: 138000000 cycles: 182699298 heartbeat IPC: 0.592756 cumulative IPC: 0.567236 (Simulation time: 1 hr 20 min 9 sec) 
Heartbeat CPU 0 instructions: 139000002 cycles: 185895940 heartbeat IPC: 0.312829 cumulative IPC: 0.5621 (Simulation time: 1 hr 20 min 39 sec) 
Heartbeat CPU 0 instructions: 140000000 cycles: 189059891 heartbeat IPC: 0.31606 cumulative IPC: 0.557279 (Simulation time: 1 hr 21 min 11 sec) 
Heartbeat CPU 0 instructions: 141000003 cycles: 192538160 heartbeat IPC: 0.2875 cumulative IPC: 0.551592 (Simulation time: 1 hr 21 min 42 sec) 
Heartbeat CPU 0 instructions: 142000003 cycles: 195060995 heartbeat IPC: 0.396379 cumulative IPC: 0.549254 (Simulation time: 1 hr 22 min 3 sec) 
Heartbeat CPU 0 instructions: 143000001 cycles: 196876525 heartbeat IPC: 0.550802 cumulative IPC: 0.54927 (Simulation time: 1 hr 22 min 21 sec) 
Heartbeat CPU 0 instructions: 144000000 cycles: 198689086 heartbeat IPC: 0.551705 cumulative IPC: 0.549296 (Simulation time: 1 hr 22 min 37 sec) 
Heartbeat CPU 0 instructions: 145000001 cycles: 200498021 heartbeat IPC: 0.552812 cumulative IPC: 0.549333 (Simulation time: 1 hr 22 min 53 sec) 
Heartbeat CPU 0 instructions: 146000003 cycles: 202307939 heartbeat IPC: 0.552512 cumulative IPC: 0.549366 (Simulation time: 1 hr 23 min 10 sec) 
Heartbeat CPU 0 instructions: 147000003 cycles: 204128130 heartbeat IPC: 0.549393 cumulative IPC: 0.549366 (Simulation time: 1 hr 23 min 26 sec) 
Heartbeat CPU 0 instructions: 148000000 cycles: 205952892 heartbeat IPC: 0.548015 cumulative IPC: 0.549352 (Simulation time: 1 hr 23 min 41 sec) 
Heartbeat CPU 0 instructions: 149000003 cycles: 207764113 heartbeat IPC: 0.552115 cumulative IPC: 0.54938 (Simulation time: 1 hr 23 min 57 sec) 
Heartbeat CPU 0 instructions: 150000003 cycles: 209578137 heartbeat IPC: 0.551261 cumulative IPC: 0.549399 (Simulation time: 1 hr 24 min 11 sec) 
Finished CPU 0 instructions: 100000002 cycles: 182017103 cummulative IPC: 0.549399 (Simulation time: 1 hr 24 min 11 sec) 

ChampSim completed all CPUs

Region of Interest Statistics

CPU 0 cummulative IPC: 0.549399 instructions: 100000002 cycles: 182017103
LLC TOTAL     ACCESS:    3966358  HIT:     322862  MISS:    3643496
LLC LOAD      ACCESS:    1062251  HIT:       9640  MISS:    1052611
LLC RFO       ACCESS:     534380  HIT:      52302  MISS:     482078
LLC PREFETCH  ACCESS:    1386986  HIT:      38696  MISS:    1348290
LLC WRITEBACK ACCESS:     982741  HIT:     222224  MISS:     760517
OPTgen accesses: 32616
OPTgen hits: 1489
OPTgen hit rate: 4.56524


