
*** ChampSim Multicore Out-of-Order Simulator ***

Warmup Instructions: 50000000
Simulation Instructions: 100000000
Configuration: 2
Number of CPUs: 1
LLC sets: 2048
LLC ways: 16
Off-chip DRAM Channels: 1 Width: 64-bit Data Rate: 1600 MT/s

CPU 0 runs /datasets/cs240c-wi22-a00-public/data/Assignment2-gz/wrf_1212B.trace.gz
CPU 0 L1D next line prefetcher
CPU 0 L2C IP-based stride prefetcher
Initialize Hawkeye state
Heartbeat CPU 0 instructions: 1000001 cycles: 598660 heartbeat IPC: 1.6704 cumulative IPC: 1.6704 (Simulation time: 0 hr 0 min 41 sec) 
Heartbeat CPU 0 instructions: 2000000 cycles: 1197118 heartbeat IPC: 1.67096 cumulative IPC: 1.67068 (Simulation time: 0 hr 1 min 22 sec) 
Heartbeat CPU 0 instructions: 3000001 cycles: 1795976 heartbeat IPC: 1.66985 cumulative IPC: 1.6704 (Simulation time: 0 hr 2 min 1 sec) 
Heartbeat CPU 0 instructions: 4000000 cycles: 2394087 heartbeat IPC: 1.67193 cumulative IPC: 1.67078 (Simulation time: 0 hr 2 min 40 sec) 
Heartbeat CPU 0 instructions: 5000000 cycles: 2993053 heartbeat IPC: 1.66954 cumulative IPC: 1.67054 (Simulation time: 0 hr 3 min 28 sec) 
Heartbeat CPU 0 instructions: 6000001 cycles: 3592667 heartbeat IPC: 1.66774 cumulative IPC: 1.67007 (Simulation time: 0 hr 4 min 23 sec) 
Heartbeat CPU 0 instructions: 7000001 cycles: 4190665 heartbeat IPC: 1.67225 cumulative IPC: 1.67038 (Simulation time: 0 hr 5 min 16 sec) 
Heartbeat CPU 0 instructions: 8000000 cycles: 4788873 heartbeat IPC: 1.67166 cumulative IPC: 1.67054 (Simulation time: 0 hr 6 min 9 sec) 
Heartbeat CPU 0 instructions: 9000002 cycles: 5387792 heartbeat IPC: 1.66968 cumulative IPC: 1.67044 (Simulation time: 0 hr 7 min 8 sec) 
Heartbeat CPU 0 instructions: 10000001 cycles: 5987357 heartbeat IPC: 1.66787 cumulative IPC: 1.67019 (Simulation time: 0 hr 8 min 9 sec) 
Heartbeat CPU 0 instructions: 11000003 cycles: 6585304 heartbeat IPC: 1.67239 cumulative IPC: 1.67039 (Simulation time: 0 hr 9 min 7 sec) 
Heartbeat CPU 0 instructions: 12000000 cycles: 7184891 heartbeat IPC: 1.66781 cumulative IPC: 1.67017 (Simulation time: 0 hr 10 min 3 sec) 
Heartbeat CPU 0 instructions: 13000000 cycles: 7782944 heartbeat IPC: 1.67209 cumulative IPC: 1.67032 (Simulation time: 0 hr 10 min 52 sec) 
Heartbeat CPU 0 instructions: 14000002 cycles: 8381675 heartbeat IPC: 1.6702 cumulative IPC: 1.67031 (Simulation time: 0 hr 11 min 50 sec) 
Heartbeat CPU 0 instructions: 15000003 cycles: 8981003 heartbeat IPC: 1.66854 cumulative IPC: 1.67019 (Simulation time: 0 hr 12 min 47 sec) 
Heartbeat CPU 0 instructions: 16000000 cycles: 9579443 heartbeat IPC: 1.67101 cumulative IPC: 1.67024 (Simulation time: 0 hr 13 min 48 sec) 
Heartbeat CPU 0 instructions: 17000000 cycles: 10177930 heartbeat IPC: 1.67088 cumulative IPC: 1.67028 (Simulation time: 0 hr 14 min 43 sec) 
Heartbeat CPU 0 instructions: 18000000 cycles: 10777771 heartbeat IPC: 1.66711 cumulative IPC: 1.6701 (Simulation time: 0 hr 15 min 36 sec) 
Heartbeat CPU 0 instructions: 19000003 cycles: 11376778 heartbeat IPC: 1.66943 cumulative IPC: 1.67007 (Simulation time: 0 hr 16 min 32 sec) 
Heartbeat CPU 0 instructions: 20000000 cycles: 11974273 heartbeat IPC: 1.67365 cumulative IPC: 1.67025 (Simulation time: 0 hr 17 min 26 sec) 
Heartbeat CPU 0 instructions: 21000001 cycles: 12573597 heartbeat IPC: 1.66855 cumulative IPC: 1.67017 (Simulation time: 0 hr 18 min 23 sec) 
Heartbeat CPU 0 instructions: 22000001 cycles: 13172417 heartbeat IPC: 1.66995 cumulative IPC: 1.67016 (Simulation time: 0 hr 19 min 22 sec) 
Heartbeat CPU 0 instructions: 23000000 cycles: 13770961 heartbeat IPC: 1.67072 cumulative IPC: 1.67018 (Simulation time: 0 hr 20 min 24 sec) 
Heartbeat CPU 0 instructions: 24000000 cycles: 14370486 heartbeat IPC: 1.66799 cumulative IPC: 1.67009 (Simulation time: 0 hr 21 min 20 sec) 
Heartbeat CPU 0 instructions: 25000002 cycles: 14968207 heartbeat IPC: 1.67302 cumulative IPC: 1.67021 (Simulation time: 0 hr 22 min 17 sec) 
Heartbeat CPU 0 instructions: 26000000 cycles: 15566336 heartbeat IPC: 1.67188 cumulative IPC: 1.67027 (Simulation time: 0 hr 23 min 19 sec) 
Heartbeat CPU 0 instructions: 27000000 cycles: 16165864 heartbeat IPC: 1.66798 cumulative IPC: 1.67019 (Simulation time: 0 hr 24 min 18 sec) 
Heartbeat CPU 0 instructions: 28000000 cycles: 16764717 heartbeat IPC: 1.66986 cumulative IPC: 1.67017 (Simulation time: 0 hr 25 min 15 sec) 
Heartbeat CPU 0 instructions: 29000000 cycles: 17361460 heartbeat IPC: 1.67576 cumulative IPC: 1.67037 (Simulation time: 0 hr 26 min 13 sec) 
Heartbeat CPU 0 instructions: 30000003 cycles: 17961441 heartbeat IPC: 1.66672 cumulative IPC: 1.67024 (Simulation time: 0 hr 27 min 12 sec) 
Heartbeat CPU 0 instructions: 31000000 cycles: 18559292 heartbeat IPC: 1.67265 cumulative IPC: 1.67032 (Simulation time: 0 hr 28 min 8 sec) 
Heartbeat CPU 0 instructions: 32000000 cycles: 19157615 heartbeat IPC: 1.67134 cumulative IPC: 1.67035 (Simulation time: 0 hr 29 min 2 sec) 
Heartbeat CPU 0 instructions: 33000003 cycles: 19755964 heartbeat IPC: 1.67127 cumulative IPC: 1.67038 (Simulation time: 0 hr 29 min 55 sec) 
Heartbeat CPU 0 instructions: 34000000 cycles: 20353987 heartbeat IPC: 1.67217 cumulative IPC: 1.67043 (Simulation time: 0 hr 30 min 53 sec) 
Heartbeat CPU 0 instructions: 35000002 cycles: 20953782 heartbeat IPC: 1.66724 cumulative IPC: 1.67034 (Simulation time: 0 hr 31 min 44 sec) 
Heartbeat CPU 0 instructions: 36000000 cycles: 21552561 heartbeat IPC: 1.67006 cumulative IPC: 1.67034 (Simulation time: 0 hr 32 min 43 sec) 
Heartbeat CPU 0 instructions: 37000003 cycles: 22150479 heartbeat IPC: 1.67248 cumulative IPC: 1.67039 (Simulation time: 0 hr 33 min 45 sec) 
Heartbeat CPU 0 instructions: 38000003 cycles: 22749137 heartbeat IPC: 1.6704 cumulative IPC: 1.67039 (Simulation time: 0 hr 34 min 32 sec) 
Heartbeat CPU 0 instructions: 39000001 cycles: 23347351 heartbeat IPC: 1.67164 cumulative IPC: 1.67043 (Simulation time: 0 hr 35 min 25 sec) 
Heartbeat CPU 0 instructions: 40000000 cycles: 23945331 heartbeat IPC: 1.6723 cumulative IPC: 1.67047 (Simulation time: 0 hr 36 min 19 sec) 
Heartbeat CPU 0 instructions: 41000001 cycles: 24544122 heartbeat IPC: 1.67003 cumulative IPC: 1.67046 (Simulation time: 0 hr 37 min 16 sec) 
Heartbeat CPU 0 instructions: 42000002 cycles: 25143016 heartbeat IPC: 1.66975 cumulative IPC: 1.67044 (Simulation time: 0 hr 38 min 11 sec) 
Heartbeat CPU 0 instructions: 43000001 cycles: 25739484 heartbeat IPC: 1.67653 cumulative IPC: 1.67059 (Simulation time: 0 hr 39 min 7 sec) 
Heartbeat CPU 0 instructions: 44000000 cycles: 26338468 heartbeat IPC: 1.66949 cumulative IPC: 1.67056 (Simulation time: 0 hr 40 min 4 sec) 
Heartbeat CPU 0 instructions: 45000000 cycles: 26936932 heartbeat IPC: 1.67094 cumulative IPC: 1.67057 (Simulation time: 0 hr 40 min 59 sec) 
Heartbeat CPU 0 instructions: 46000000 cycles: 27536415 heartbeat IPC: 1.6681 cumulative IPC: 1.67052 (Simulation time: 0 hr 41 min 53 sec) 
Heartbeat CPU 0 instructions: 47000000 cycles: 28133477 heartbeat IPC: 1.67487 cumulative IPC: 1.67061 (Simulation time: 0 hr 42 min 50 sec) 
Heartbeat CPU 0 instructions: 48000000 cycles: 28732153 heartbeat IPC: 1.67035 cumulative IPC: 1.6706 (Simulation time: 0 hr 43 min 40 sec) 
Heartbeat CPU 0 instructions: 49000002 cycles: 29331647 heartbeat IPC: 1.66808 cumulative IPC: 1.67055 (Simulation time: 0 hr 44 min 36 sec) 
Heartbeat CPU 0 instructions: 50000002 cycles: 29930505 heartbeat IPC: 1.66984 cumulative IPC: 1.67054 (Simulation time: 0 hr 45 min 26 sec) 

Warmup complete CPU 0 instructions: 50000002 cycles: 29930505 (Simulation time: 0 hr 45 min 26 sec) 

Heartbeat CPU 0 instructions: 51000002 cycles: 31729523 heartbeat IPC: 0.555859 cumulative IPC: 0.555859 (Simulation time: 0 hr 46 min 30 sec) 
Heartbeat CPU 0 instructions: 52000000 cycles: 33452198 heartbeat IPC: 0.580491 cumulative IPC: 0.567908 (Simulation time: 0 hr 47 min 28 sec) 
Heartbeat CPU 0 instructions: 53000002 cycles: 35218938 heartbeat IPC: 0.566015 cumulative IPC: 0.567276 (Simulation time: 0 hr 48 min 34 sec) 
Heartbeat CPU 0 instructions: 54000001 cycles: 36999398 heartbeat IPC: 0.561652 cumulative IPC: 0.565859 (Simulation time: 0 hr 49 min 38 sec) 
Heartbeat CPU 0 instructions: 55000000 cycles: 38778824 heartbeat IPC: 0.561978 cumulative IPC: 0.565079 (Simulation time: 0 hr 50 min 43 sec) 
Heartbeat CPU 0 instructions: 56000000 cycles: 40551595 heartbeat IPC: 0.564089 cumulative IPC: 0.564914 (Simulation time: 0 hr 51 min 46 sec) 
Heartbeat CPU 0 instructions: 57000001 cycles: 42277318 heartbeat IPC: 0.579468 cumulative IPC: 0.566948 (Simulation time: 0 hr 52 min 52 sec) 
Heartbeat CPU 0 instructions: 58000001 cycles: 44059413 heartbeat IPC: 0.561137 cumulative IPC: 0.566215 (Simulation time: 0 hr 53 min 57 sec) 
Heartbeat CPU 0 instructions: 59000000 cycles: 45841103 heartbeat IPC: 0.561264 cumulative IPC: 0.565661 (Simulation time: 0 hr 55 min 4 sec) 
Heartbeat CPU 0 instructions: 60000000 cycles: 47624521 heartbeat IPC: 0.560721 cumulative IPC: 0.565163 (Simulation time: 0 hr 56 min 15 sec) 
Heartbeat CPU 0 instructions: 61000001 cycles: 49363124 heartbeat IPC: 0.575175 cumulative IPC: 0.566059 (Simulation time: 0 hr 57 min 15 sec) 
Heartbeat CPU 0 instructions: 62000001 cycles: 51105891 heartbeat IPC: 0.5738 cumulative IPC: 0.566696 (Simulation time: 0 hr 58 min 24 sec) 
Heartbeat CPU 0 instructions: 63000002 cycles: 52891104 heartbeat IPC: 0.560158 cumulative IPC: 0.566187 (Simulation time: 0 hr 59 min 32 sec) 
Heartbeat CPU 0 instructions: 64000000 cycles: 54673849 heartbeat IPC: 0.560932 cumulative IPC: 0.565809 (Simulation time: 1 hr 0 min 37 sec) 
Heartbeat CPU 0 instructions: 65000000 cycles: 56460646 heartbeat IPC: 0.559661 cumulative IPC: 0.565395 (Simulation time: 1 hr 1 min 43 sec) 
Heartbeat CPU 0 instructions: 66000001 cycles: 58174864 heartbeat IPC: 0.583357 cumulative IPC: 0.566485 (Simulation time: 1 hr 2 min 42 sec) 
Heartbeat CPU 0 instructions: 67000002 cycles: 59930933 heartbeat IPC: 0.569454 cumulative IPC: 0.566659 (Simulation time: 1 hr 3 min 49 sec) 
Heartbeat CPU 0 instructions: 68000000 cycles: 61716585 heartbeat IPC: 0.560018 cumulative IPC: 0.566286 (Simulation time: 1 hr 4 min 58 sec) 
Heartbeat CPU 0 instructions: 69000001 cycles: 63499236 heartbeat IPC: 0.560963 cumulative IPC: 0.566003 (Simulation time: 1 hr 6 min 0 sec) 
Heartbeat CPU 0 instructions: 70000000 cycles: 65268266 heartbeat IPC: 0.565281 cumulative IPC: 0.565967 (Simulation time: 1 hr 7 min 0 sec) 
Heartbeat CPU 0 instructions: 71000001 cycles: 66983706 heartbeat IPC: 0.582941 cumulative IPC: 0.566753 (Simulation time: 1 hr 7 min 55 sec) 
Heartbeat CPU 0 instructions: 72000000 cycles: 68760645 heartbeat IPC: 0.562765 cumulative IPC: 0.56657 (Simulation time: 1 hr 8 min 50 sec) 
Heartbeat CPU 0 instructions: 73000001 cycles: 70547646 heartbeat IPC: 0.559597 cumulative IPC: 0.566263 (Simulation time: 1 hr 9 min 47 sec) 
Heartbeat CPU 0 instructions: 74000000 cycles: 72327178 heartbeat IPC: 0.561945 cumulative IPC: 0.566082 (Simulation time: 1 hr 10 min 46 sec) 
Heartbeat CPU 0 instructions: 75000002 cycles: 74082436 heartbeat IPC: 0.569718 cumulative IPC: 0.566227 (Simulation time: 1 hr 11 min 41 sec) 
Heartbeat CPU 0 instructions: 76000000 cycles: 75816113 heartbeat IPC: 0.576808 cumulative IPC: 0.566626 (Simulation time: 1 hr 12 min 37 sec) 
Heartbeat CPU 0 instructions: 77000003 cycles: 77593963 heartbeat IPC: 0.562479 cumulative IPC: 0.566472 (Simulation time: 1 hr 13 min 36 sec) 
Heartbeat CPU 0 instructions: 78000000 cycles: 79375491 heartbeat IPC: 0.561314 cumulative IPC: 0.566286 (Simulation time: 1 hr 14 min 29 sec) 
Heartbeat CPU 0 instructions: 79000000 cycles: 81171622 heartbeat IPC: 0.556752 cumulative IPC: 0.565952 (Simulation time: 1 hr 15 min 19 sec) 
Heartbeat CPU 0 instructions: 80000000 cycles: 82890878 heartbeat IPC: 0.581647 cumulative IPC: 0.566461 (Simulation time: 1 hr 15 min 59 sec) 
Heartbeat CPU 0 instructions: 81000003 cycles: 84656092 heartbeat IPC: 0.566505 cumulative IPC: 0.566463 (Simulation time: 1 hr 16 min 45 sec) 
Heartbeat CPU 0 instructions: 82000002 cycles: 86445186 heartbeat IPC: 0.558942 cumulative IPC: 0.566225 (Simulation time: 1 hr 17 min 21 sec) 
Heartbeat CPU 0 instructions: 83000001 cycles: 88229294 heartbeat IPC: 0.560504 cumulative IPC: 0.566049 (Simulation time: 1 hr 18 min 0 sec) 
Heartbeat CPU 0 instructions: 84000000 cycles: 90005264 heartbeat IPC: 0.563072 cumulative IPC: 0.565961 (Simulation time: 1 hr 18 min 34 sec) 
Heartbeat CPU 0 instructions: 85000000 cycles: 91723173 heartbeat IPC: 0.582103 cumulative IPC: 0.56641 (Simulation time: 1 hr 19 min 3 sec) 
Heartbeat CPU 0 instructions: 86000001 cycles: 93508505 heartbeat IPC: 0.56012 cumulative IPC: 0.566234 (Simulation time: 1 hr 19 min 34 sec) 
Heartbeat CPU 0 instructions: 87000000 cycles: 95290574 heartbeat IPC: 0.561145 cumulative IPC: 0.566095 (Simulation time: 1 hr 20 min 7 sec) 
Heartbeat CPU 0 instructions: 88000000 cycles: 97067635 heartbeat IPC: 0.562727 cumulative IPC: 0.566006 (Simulation time: 1 hr 20 min 35 sec) 
Heartbeat CPU 0 instructions: 89000000 cycles: 98818885 heartbeat IPC: 0.571021 cumulative IPC: 0.566133 (Simulation time: 1 hr 21 min 2 sec) 
Heartbeat CPU 0 instructions: 90000000 cycles: 100574005 heartbeat IPC: 0.569762 cumulative IPC: 0.566223 (Simulation time: 1 hr 21 min 30 sec) 
Heartbeat CPU 0 instructions: 91000001 cycles: 102353285 heartbeat IPC: 0.562026 cumulative IPC: 0.56612 (Simulation time: 1 hr 21 min 57 sec) 
Heartbeat CPU 0 instructions: 92000000 cycles: 104136130 heartbeat IPC: 0.560901 cumulative IPC: 0.565995 (Simulation time: 1 hr 22 min 26 sec) 
Heartbeat CPU 0 instructions: 93000003 cycles: 105920537 heartbeat IPC: 0.560412 cumulative IPC: 0.565864 (Simulation time: 1 hr 22 min 52 sec) 
Heartbeat CPU 0 instructions: 94000001 cycles: 107646845 heartbeat IPC: 0.57927 cumulative IPC: 0.566162 (Simulation time: 1 hr 23 min 14 sec) 
Heartbeat CPU 0 instructions: 95000001 cycles: 109427494 heartbeat IPC: 0.561593 cumulative IPC: 0.566059 (Simulation time: 1 hr 23 min 38 sec) 
Heartbeat CPU 0 instructions: 96000000 cycles: 111207659 heartbeat IPC: 0.561745 cumulative IPC: 0.565965 (Simulation time: 1 hr 23 min 59 sec) 
Heartbeat CPU 0 instructions: 97000000 cycles: 112987346 heartbeat IPC: 0.561897 cumulative IPC: 0.565877 (Simulation time: 1 hr 24 min 19 sec) 
Heartbeat CPU 0 instructions: 98000000 cycles: 114747518 heartbeat IPC: 0.568126 cumulative IPC: 0.565924 (Simulation time: 1 hr 24 min 38 sec) 
Heartbeat CPU 0 instructions: 99000000 cycles: 116501725 heartbeat IPC: 0.570058 cumulative IPC: 0.566008 (Simulation time: 1 hr 24 min 57 sec) 
Heartbeat CPU 0 instructions: 100000000 cycles: 118279652 heartbeat IPC: 0.562453 cumulative IPC: 0.565936 (Simulation time: 1 hr 25 min 16 sec) 
Heartbeat CPU 0 instructions: 101000000 cycles: 120057476 heartbeat IPC: 0.562485 cumulative IPC: 0.565868 (Simulation time: 1 hr 25 min 35 sec) 
Heartbeat CPU 0 instructions: 102000003 cycles: 121845992 heartbeat IPC: 0.559124 cumulative IPC: 0.565737 (Simulation time: 1 hr 25 min 52 sec) 
Heartbeat CPU 0 instructions: 103000001 cycles: 123577083 heartbeat IPC: 0.577669 cumulative IPC: 0.565958 (Simulation time: 1 hr 26 min 8 sec) 
Heartbeat CPU 0 instructions: 104000000 cycles: 125361452 heartbeat IPC: 0.560422 cumulative IPC: 0.565854 (Simulation time: 1 hr 26 min 23 sec) 
Heartbeat CPU 0 instructions: 105000002 cycles: 127141276 heartbeat IPC: 0.561854 cumulative IPC: 0.565781 (Simulation time: 1 hr 26 min 37 sec) 
Heartbeat CPU 0 instructions: 106000001 cycles: 128918713 heartbeat IPC: 0.562607 cumulative IPC: 0.565724 (Simulation time: 1 hr 26 min 51 sec) 
Heartbeat CPU 0 instructions: 107000003 cycles: 130678445 heartbeat IPC: 0.568269 cumulative IPC: 0.565768 (Simulation time: 1 hr 27 min 4 sec) 
Heartbeat CPU 0 instructions: 108000000 cycles: 132443556 heartbeat IPC: 0.566535 cumulative IPC: 0.565782 (Simulation time: 1 hr 27 min 16 sec) 
Heartbeat CPU 0 instructions: 109000002 cycles: 134227331 heartbeat IPC: 0.56061 cumulative IPC: 0.565693 (Simulation time: 1 hr 27 min 26 sec) 
Heartbeat CPU 0 instructions: 110000003 cycles: 136006287 heartbeat IPC: 0.562128 cumulative IPC: 0.565633 (Simulation time: 1 hr 27 min 35 sec) 
Heartbeat CPU 0 instructions: 111000000 cycles: 137793589 heartbeat IPC: 0.559501 cumulative IPC: 0.565532 (Simulation time: 1 hr 27 min 45 sec) 
Heartbeat CPU 0 instructions: 112000000 cycles: 139534908 heartbeat IPC: 0.574277 cumulative IPC: 0.565671 (Simulation time: 1 hr 27 min 53 sec) 
Heartbeat CPU 0 instructions: 113000000 cycles: 141313542 heartbeat IPC: 0.562229 cumulative IPC: 0.565616 (Simulation time: 1 hr 28 min 1 sec) 
Heartbeat CPU 0 instructions: 114000000 cycles: 143093008 heartbeat IPC: 0.561966 cumulative IPC: 0.565558 (Simulation time: 1 hr 28 min 9 sec) 
Heartbeat CPU 0 instructions: 115000003 cycles: 144873200 heartbeat IPC: 0.561739 cumulative IPC: 0.565499 (Simulation time: 1 hr 28 min 17 sec) 
Heartbeat CPU 0 instructions: 116000000 cycles: 146632265 heartbeat IPC: 0.568482 cumulative IPC: 0.565544 (Simulation time: 1 hr 28 min 25 sec) 
Heartbeat CPU 0 instructions: 117000000 cycles: 148408961 heartbeat IPC: 0.562842 cumulative IPC: 0.565504 (Simulation time: 1 hr 28 min 32 sec) 
Heartbeat CPU 0 instructions: 118000002 cycles: 150188680 heartbeat IPC: 0.561888 cumulative IPC: 0.56545 (Simulation time: 1 hr 28 min 38 sec) 
Heartbeat CPU 0 instructions: 119000002 cycles: 151972313 heartbeat IPC: 0.560653 cumulative IPC: 0.56538 (Simulation time: 1 hr 28 min 44 sec) 
Heartbeat CPU 0 instructions: 120000000 cycles: 153748446 heartbeat IPC: 0.56302 cumulative IPC: 0.565346 (Simulation time: 1 hr 28 min 50 sec) 
Heartbeat CPU 0 instructions: 121000003 cycles: 155503012 heartbeat IPC: 0.569943 cumulative IPC: 0.56541 (Simulation time: 1 hr 28 min 55 sec) 
Heartbeat CPU 0 instructions: 122000000 cycles: 157282853 heartbeat IPC: 0.561846 cumulative IPC: 0.565361 (Simulation time: 1 hr 29 min 0 sec) 
Heartbeat CPU 0 instructions: 123000000 cycles: 159063173 heartbeat IPC: 0.561697 cumulative IPC: 0.56531 (Simulation time: 1 hr 29 min 5 sec) 
Heartbeat CPU 0 instructions: 124000000 cycles: 160842464 heartbeat IPC: 0.562022 cumulative IPC: 0.565265 (Simulation time: 1 hr 29 min 11 sec) 
Heartbeat CPU 0 instructions: 125000000 cycles: 162606542 heartbeat IPC: 0.566868 cumulative IPC: 0.565287 (Simulation time: 1 hr 29 min 16 sec) 
Heartbeat CPU 0 instructions: 126000003 cycles: 164387261 heartbeat IPC: 0.561573 cumulative IPC: 0.565238 (Simulation time: 1 hr 29 min 21 sec) 
Heartbeat CPU 0 instructions: 127000000 cycles: 166169405 heartbeat IPC: 0.56112 cumulative IPC: 0.565184 (Simulation time: 1 hr 29 min 26 sec) 
Heartbeat CPU 0 instructions: 128000000 cycles: 167947733 heartbeat IPC: 0.562326 cumulative IPC: 0.565147 (Simulation time: 1 hr 29 min 31 sec) 
Heartbeat CPU 0 instructions: 129000002 cycles: 169715754 heartbeat IPC: 0.565605 cumulative IPC: 0.565153 (Simulation time: 1 hr 29 min 36 sec) 
Heartbeat CPU 0 instructions: 130000000 cycles: 171490294 heartbeat IPC: 0.563525 cumulative IPC: 0.565132 (Simulation time: 1 hr 29 min 41 sec) 
Heartbeat CPU 0 instructions: 131000002 cycles: 173268844 heartbeat IPC: 0.562257 cumulative IPC: 0.565097 (Simulation time: 1 hr 29 min 46 sec) 
Heartbeat CPU 0 instructions: 132000000 cycles: 175052627 heartbeat IPC: 0.560605 cumulative IPC: 0.565041 (Simulation time: 1 hr 29 min 51 sec) 
Heartbeat CPU 0 instructions: 133000000 cycles: 176835995 heartbeat IPC: 0.560737 cumulative IPC: 0.564989 (Simulation time: 1 hr 29 min 56 sec) 
Heartbeat CPU 0 instructions: 134000000 cycles: 178597466 heartbeat IPC: 0.567707 cumulative IPC: 0.565021 (Simulation time: 1 hr 30 min 1 sec) 
Heartbeat CPU 0 instructions: 135000000 cycles: 180378998 heartbeat IPC: 0.561315 cumulative IPC: 0.564977 (Simulation time: 1 hr 30 min 6 sec) 
Heartbeat CPU 0 instructions: 136000000 cycles: 182159089 heartbeat IPC: 0.561769 cumulative IPC: 0.56494 (Simulation time: 1 hr 30 min 11 sec) 
Heartbeat CPU 0 instructions: 137000000 cycles: 183941759 heartbeat IPC: 0.560956 cumulative IPC: 0.564894 (Simulation time: 1 hr 30 min 16 sec) 
Heartbeat CPU 0 instructions: 138000000 cycles: 185714381 heartbeat IPC: 0.564136 cumulative IPC: 0.564885 (Simulation time: 1 hr 30 min 21 sec) 
Heartbeat CPU 0 instructions: 139000001 cycles: 187493400 heartbeat IPC: 0.562108 cumulative IPC: 0.564854 (Simulation time: 1 hr 30 min 26 sec) 
Heartbeat CPU 0 instructions: 140000000 cycles: 189270859 heartbeat IPC: 0.5626 cumulative IPC: 0.564829 (Simulation time: 1 hr 30 min 31 sec) 
Heartbeat CPU 0 instructions: 141000001 cycles: 191049090 heartbeat IPC: 0.562357 cumulative IPC: 0.564801 (Simulation time: 1 hr 30 min 37 sec) 
Heartbeat CPU 0 instructions: 142000000 cycles: 192826768 heartbeat IPC: 0.562531 cumulative IPC: 0.564777 (Simulation time: 1 hr 30 min 42 sec) 
Heartbeat CPU 0 instructions: 143000001 cycles: 194607483 heartbeat IPC: 0.561573 cumulative IPC: 0.564742 (Simulation time: 1 hr 30 min 47 sec) 
Heartbeat CPU 0 instructions: 144000000 cycles: 196386738 heartbeat IPC: 0.562032 cumulative IPC: 0.564713 (Simulation time: 1 hr 30 min 52 sec) 
Heartbeat CPU 0 instructions: 145000000 cycles: 198167781 heartbeat IPC: 0.561469 cumulative IPC: 0.564679 (Simulation time: 1 hr 30 min 57 sec) 
Heartbeat CPU 0 instructions: 146000000 cycles: 199958023 heartbeat IPC: 0.558584 cumulative IPC: 0.564614 (Simulation time: 1 hr 31 min 2 sec) 
Heartbeat CPU 0 instructions: 147000003 cycles: 201732733 heartbeat IPC: 0.563474 cumulative IPC: 0.564603 (Simulation time: 1 hr 31 min 7 sec) 
Heartbeat CPU 0 instructions: 148000000 cycles: 203514109 heartbeat IPC: 0.561362 cumulative IPC: 0.564569 (Simulation time: 1 hr 31 min 12 sec) 
Heartbeat CPU 0 instructions: 149000002 cycles: 205292322 heartbeat IPC: 0.562363 cumulative IPC: 0.564547 (Simulation time: 1 hr 31 min 17 sec) 
Heartbeat CPU 0 instructions: 150000002 cycles: 207090186 heartbeat IPC: 0.556216 cumulative IPC: 0.564463 (Simulation time: 1 hr 31 min 22 sec) 
Finished CPU 0 instructions: 100000000 cycles: 177159681 cummulative IPC: 0.564463 (Simulation time: 1 hr 31 min 22 sec) 

ChampSim completed all CPUs

Region of Interest Statistics

CPU 0 cummulative IPC: 0.564463 instructions: 100000000 cycles: 177159681
LLC TOTAL     ACCESS:     134402  HIT:      41485  MISS:      92917
LLC LOAD      ACCESS:      14842  HIT:       3643  MISS:      11199
LLC RFO       ACCESS:       1068  HIT:        156  MISS:        912
LLC PREFETCH  ACCESS:      79255  HIT:       7682  MISS:      71573
LLC WRITEBACK ACCESS:      39237  HIT:      30004  MISS:       9233
OPTgen accesses: 335
OPTgen hits: 186
OPTgen hit rate: 55.5224


