
*** ChampSim Multicore Out-of-Order Simulator ***

Warmup Instructions: 50000000
Simulation Instructions: 100000000
Configuration: 2
Number of CPUs: 1
LLC sets: 2048
LLC ways: 16
Off-chip DRAM Channels: 1 Width: 64-bit Data Rate: 1600 MT/s

CPU 0 runs /datasets/cs240c-wi22-a00-public/data/Assignment2-gz/gcc_56B.trace.gz
CPU 0 L1D next line prefetcher
CPU 0 L2C IP-based stride prefetcher
Initialize Hawkeye state
Heartbeat CPU 0 instructions: 1000003 cycles: 954151 heartbeat IPC: 1.04806 cumulative IPC: 1.04806 (Simulation time: 0 hr 0 min 49 sec) 
Heartbeat CPU 0 instructions: 2000001 cycles: 1898349 heartbeat IPC: 1.0591 cumulative IPC: 1.05355 (Simulation time: 0 hr 1 min 33 sec) 
Heartbeat CPU 0 instructions: 3000001 cycles: 2885593 heartbeat IPC: 1.01292 cumulative IPC: 1.03965 (Simulation time: 0 hr 2 min 13 sec) 
Heartbeat CPU 0 instructions: 4000000 cycles: 3848221 heartbeat IPC: 1.03882 cumulative IPC: 1.03944 (Simulation time: 0 hr 2 min 52 sec) 
Heartbeat CPU 0 instructions: 5000002 cycles: 4737701 heartbeat IPC: 1.12425 cumulative IPC: 1.05536 (Simulation time: 0 hr 3 min 34 sec) 
Heartbeat CPU 0 instructions: 6000000 cycles: 5685656 heartbeat IPC: 1.0549 cumulative IPC: 1.05529 (Simulation time: 0 hr 4 min 14 sec) 
Heartbeat CPU 0 instructions: 7000000 cycles: 6649890 heartbeat IPC: 1.03709 cumulative IPC: 1.05265 (Simulation time: 0 hr 4 min 53 sec) 
Heartbeat CPU 0 instructions: 8000000 cycles: 7611113 heartbeat IPC: 1.04034 cumulative IPC: 1.05109 (Simulation time: 0 hr 5 min 32 sec) 
Heartbeat CPU 0 instructions: 9000000 cycles: 8622586 heartbeat IPC: 0.988657 cumulative IPC: 1.04377 (Simulation time: 0 hr 6 min 11 sec) 
Heartbeat CPU 0 instructions: 10000002 cycles: 9583097 heartbeat IPC: 1.04111 cumulative IPC: 1.0435 (Simulation time: 0 hr 6 min 48 sec) 
Heartbeat CPU 0 instructions: 11000002 cycles: 10472393 heartbeat IPC: 1.12449 cumulative IPC: 1.05038 (Simulation time: 0 hr 7 min 31 sec) 
Heartbeat CPU 0 instructions: 12000000 cycles: 11357924 heartbeat IPC: 1.12926 cumulative IPC: 1.05653 (Simulation time: 0 hr 8 min 13 sec) 
Heartbeat CPU 0 instructions: 13000001 cycles: 12297171 heartbeat IPC: 1.06468 cumulative IPC: 1.05715 (Simulation time: 0 hr 8 min 50 sec) 
Heartbeat CPU 0 instructions: 14000000 cycles: 13290642 heartbeat IPC: 1.00657 cumulative IPC: 1.05337 (Simulation time: 0 hr 9 min 31 sec) 
Heartbeat CPU 0 instructions: 15000003 cycles: 14246129 heartbeat IPC: 1.04659 cumulative IPC: 1.05292 (Simulation time: 0 hr 10 min 13 sec) 
Heartbeat CPU 0 instructions: 16000000 cycles: 15246171 heartbeat IPC: 0.999955 cumulative IPC: 1.04944 (Simulation time: 0 hr 10 min 53 sec) 
Heartbeat CPU 0 instructions: 17000001 cycles: 16221154 heartbeat IPC: 1.02566 cumulative IPC: 1.04801 (Simulation time: 0 hr 11 min 34 sec) 
Heartbeat CPU 0 instructions: 18000000 cycles: 17121983 heartbeat IPC: 1.11009 cumulative IPC: 1.05128 (Simulation time: 0 hr 12 min 16 sec) 
Heartbeat CPU 0 instructions: 19000000 cycles: 18045877 heartbeat IPC: 1.08238 cumulative IPC: 1.05287 (Simulation time: 0 hr 12 min 52 sec) 
Heartbeat CPU 0 instructions: 20000000 cycles: 18990386 heartbeat IPC: 1.05875 cumulative IPC: 1.05316 (Simulation time: 0 hr 13 min 29 sec) 
Heartbeat CPU 0 instructions: 21000000 cycles: 19947017 heartbeat IPC: 1.04534 cumulative IPC: 1.05279 (Simulation time: 0 hr 14 min 5 sec) 
Heartbeat CPU 0 instructions: 22000000 cycles: 20939401 heartbeat IPC: 1.00767 cumulative IPC: 1.05065 (Simulation time: 0 hr 14 min 43 sec) 
Heartbeat CPU 0 instructions: 23000000 cycles: 21860051 heartbeat IPC: 1.08619 cumulative IPC: 1.05215 (Simulation time: 0 hr 15 min 17 sec) 
Heartbeat CPU 0 instructions: 24000000 cycles: 22777462 heartbeat IPC: 1.09002 cumulative IPC: 1.05367 (Simulation time: 0 hr 15 min 56 sec) 
Heartbeat CPU 0 instructions: 25000000 cycles: 23713194 heartbeat IPC: 1.06868 cumulative IPC: 1.05427 (Simulation time: 0 hr 16 min 35 sec) 
Heartbeat CPU 0 instructions: 26000002 cycles: 24633681 heartbeat IPC: 1.08638 cumulative IPC: 1.05547 (Simulation time: 0 hr 17 min 11 sec) 
Heartbeat CPU 0 instructions: 27000000 cycles: 25585993 heartbeat IPC: 1.05007 cumulative IPC: 1.05526 (Simulation time: 0 hr 17 min 49 sec) 
Heartbeat CPU 0 instructions: 28000000 cycles: 26583765 heartbeat IPC: 1.00223 cumulative IPC: 1.05327 (Simulation time: 0 hr 18 min 26 sec) 
Heartbeat CPU 0 instructions: 29000000 cycles: 27583171 heartbeat IPC: 1.00059 cumulative IPC: 1.05137 (Simulation time: 0 hr 19 min 3 sec) 
Heartbeat CPU 0 instructions: 30000000 cycles: 28562056 heartbeat IPC: 1.02157 cumulative IPC: 1.05034 (Simulation time: 0 hr 19 min 40 sec) 
Heartbeat CPU 0 instructions: 31000000 cycles: 29476450 heartbeat IPC: 1.09362 cumulative IPC: 1.05169 (Simulation time: 0 hr 20 min 18 sec) 
Heartbeat CPU 0 instructions: 32000000 cycles: 30387154 heartbeat IPC: 1.09805 cumulative IPC: 1.05308 (Simulation time: 0 hr 20 min 55 sec) 
Heartbeat CPU 0 instructions: 33000002 cycles: 31312871 heartbeat IPC: 1.08025 cumulative IPC: 1.05388 (Simulation time: 0 hr 21 min 30 sec) 
Heartbeat CPU 0 instructions: 34000002 cycles: 32279383 heartbeat IPC: 1.03465 cumulative IPC: 1.0533 (Simulation time: 0 hr 22 min 16 sec) 
Heartbeat CPU 0 instructions: 35000002 cycles: 33244047 heartbeat IPC: 1.03663 cumulative IPC: 1.05282 (Simulation time: 0 hr 22 min 53 sec) 
Heartbeat CPU 0 instructions: 36000000 cycles: 34239319 heartbeat IPC: 1.00475 cumulative IPC: 1.05142 (Simulation time: 0 hr 23 min 34 sec) 
Heartbeat CPU 0 instructions: 37000000 cycles: 35205864 heartbeat IPC: 1.03461 cumulative IPC: 1.05096 (Simulation time: 0 hr 24 min 14 sec) 
Heartbeat CPU 0 instructions: 38000002 cycles: 36155156 heartbeat IPC: 1.05342 cumulative IPC: 1.05103 (Simulation time: 0 hr 24 min 49 sec) 
Heartbeat CPU 0 instructions: 39000000 cycles: 37066136 heartbeat IPC: 1.09772 cumulative IPC: 1.05217 (Simulation time: 0 hr 25 min 31 sec) 
Heartbeat CPU 0 instructions: 40000000 cycles: 38010457 heartbeat IPC: 1.05896 cumulative IPC: 1.05234 (Simulation time: 0 hr 26 min 7 sec) 
Heartbeat CPU 0 instructions: 41000001 cycles: 38985289 heartbeat IPC: 1.02582 cumulative IPC: 1.05168 (Simulation time: 0 hr 26 min 48 sec) 
Heartbeat CPU 0 instructions: 42000003 cycles: 39974542 heartbeat IPC: 1.01087 cumulative IPC: 1.05067 (Simulation time: 0 hr 27 min 28 sec) 
Heartbeat CPU 0 instructions: 43000001 cycles: 40938702 heartbeat IPC: 1.03717 cumulative IPC: 1.05035 (Simulation time: 0 hr 28 min 10 sec) 
Heartbeat CPU 0 instructions: 44000000 cycles: 41869464 heartbeat IPC: 1.07439 cumulative IPC: 1.05089 (Simulation time: 0 hr 28 min 48 sec) 
Heartbeat CPU 0 instructions: 45000000 cycles: 42778763 heartbeat IPC: 1.09975 cumulative IPC: 1.05192 (Simulation time: 0 hr 29 min 23 sec) 
Heartbeat CPU 0 instructions: 46000001 cycles: 43731183 heartbeat IPC: 1.04996 cumulative IPC: 1.05188 (Simulation time: 0 hr 30 min 3 sec) 
Heartbeat CPU 0 instructions: 47000001 cycles: 44686065 heartbeat IPC: 1.04725 cumulative IPC: 1.05178 (Simulation time: 0 hr 30 min 44 sec) 
Heartbeat CPU 0 instructions: 48000000 cycles: 45666145 heartbeat IPC: 1.02032 cumulative IPC: 1.05111 (Simulation time: 0 hr 31 min 21 sec) 
Heartbeat CPU 0 instructions: 49000002 cycles: 46667604 heartbeat IPC: 0.998545 cumulative IPC: 1.04998 (Simulation time: 0 hr 31 min 58 sec) 
Heartbeat CPU 0 instructions: 50000000 cycles: 47652569 heartbeat IPC: 1.01526 cumulative IPC: 1.04926 (Simulation time: 0 hr 32 min 35 sec) 

Warmup complete CPU 0 instructions: 50000001 cycles: 47652571 (Simulation time: 0 hr 32 min 35 sec) 

Heartbeat CPU 0 instructions: 51000000 cycles: 49005368 heartbeat IPC: 0.739208 cumulative IPC: 0.739208 (Simulation time: 0 hr 33 min 10 sec) 
Heartbeat CPU 0 instructions: 52000000 cycles: 50396234 heartbeat IPC: 0.718976 cumulative IPC: 0.728952 (Simulation time: 0 hr 33 min 45 sec) 
Heartbeat CPU 0 instructions: 53000001 cycles: 51732537 heartbeat IPC: 0.748334 cumulative IPC: 0.7353 (Simulation time: 0 hr 34 min 21 sec) 
Heartbeat CPU 0 instructions: 54000000 cycles: 53047769 heartbeat IPC: 0.760321 cumulative IPC: 0.7414 (Simulation time: 0 hr 35 min 9 sec) 
Heartbeat CPU 0 instructions: 55000001 cycles: 54353746 heartbeat IPC: 0.765711 cumulative IPC: 0.746138 (Simulation time: 0 hr 35 min 45 sec) 
Heartbeat CPU 0 instructions: 56000000 cycles: 55678358 heartbeat IPC: 0.754937 cumulative IPC: 0.74759 (Simulation time: 0 hr 36 min 24 sec) 
Heartbeat CPU 0 instructions: 57000001 cycles: 57011484 heartbeat IPC: 0.750117 cumulative IPC: 0.74795 (Simulation time: 0 hr 37 min 1 sec) 
Heartbeat CPU 0 instructions: 58000000 cycles: 58386420 heartbeat IPC: 0.727306 cumulative IPC: 0.745306 (Simulation time: 0 hr 37 min 39 sec) 
Heartbeat CPU 0 instructions: 59000000 cycles: 59779618 heartbeat IPC: 0.717773 cumulative IPC: 0.742143 (Simulation time: 0 hr 38 min 18 sec) 
Heartbeat CPU 0 instructions: 60000000 cycles: 61155456 heartbeat IPC: 0.72683 cumulative IPC: 0.740582 (Simulation time: 0 hr 38 min 56 sec) 
Heartbeat CPU 0 instructions: 61000000 cycles: 62485880 heartbeat IPC: 0.75164 cumulative IPC: 0.741574 (Simulation time: 0 hr 39 min 34 sec) 
Heartbeat CPU 0 instructions: 62000002 cycles: 63846129 heartbeat IPC: 0.735161 cumulative IPC: 0.741035 (Simulation time: 0 hr 40 min 10 sec) 
Heartbeat CPU 0 instructions: 63000003 cycles: 65161190 heartbeat IPC: 0.760422 cumulative IPC: 0.742492 (Simulation time: 0 hr 40 min 48 sec) 
Heartbeat CPU 0 instructions: 64000000 cycles: 66481229 heartbeat IPC: 0.757551 cumulative IPC: 0.743547 (Simulation time: 0 hr 41 min 25 sec) 
Heartbeat CPU 0 instructions: 65000000 cycles: 67823989 heartbeat IPC: 0.744735 cumulative IPC: 0.743626 (Simulation time: 0 hr 42 min 5 sec) 
Heartbeat CPU 0 instructions: 66000002 cycles: 69213487 heartbeat IPC: 0.719686 cumulative IPC: 0.742084 (Simulation time: 0 hr 42 min 42 sec) 
Heartbeat CPU 0 instructions: 67000002 cycles: 70600991 heartbeat IPC: 0.720719 cumulative IPC: 0.740792 (Simulation time: 0 hr 43 min 21 sec) 
Heartbeat CPU 0 instructions: 68000000 cycles: 71951788 heartbeat IPC: 0.740302 cumulative IPC: 0.740765 (Simulation time: 0 hr 43 min 59 sec) 
Heartbeat CPU 0 instructions: 69000000 cycles: 73280891 heartbeat IPC: 0.752387 cumulative IPC: 0.741367 (Simulation time: 0 hr 44 min 46 sec) 
Heartbeat CPU 0 instructions: 70000000 cycles: 74608218 heartbeat IPC: 0.753394 cumulative IPC: 0.74196 (Simulation time: 0 hr 45 min 27 sec) 
Heartbeat CPU 0 instructions: 71000003 cycles: 75949332 heartbeat IPC: 0.745651 cumulative IPC: 0.742134 (Simulation time: 0 hr 46 min 8 sec) 
Heartbeat CPU 0 instructions: 72000000 cycles: 77287057 heartbeat IPC: 0.747536 cumulative IPC: 0.742378 (Simulation time: 0 hr 46 min 53 sec) 
Heartbeat CPU 0 instructions: 73000003 cycles: 78653624 heartbeat IPC: 0.731763 cumulative IPC: 0.74191 (Simulation time: 0 hr 47 min 35 sec) 
Heartbeat CPU 0 instructions: 74000001 cycles: 80051019 heartbeat IPC: 0.715616 cumulative IPC: 0.740776 (Simulation time: 0 hr 48 min 13 sec) 
Heartbeat CPU 0 instructions: 75000003 cycles: 81426427 heartbeat IPC: 0.727058 cumulative IPC: 0.740218 (Simulation time: 0 hr 48 min 52 sec) 
Heartbeat CPU 0 instructions: 76000000 cycles: 82767763 heartbeat IPC: 0.745523 cumulative IPC: 0.74042 (Simulation time: 0 hr 49 min 30 sec) 
Heartbeat CPU 0 instructions: 77000003 cycles: 84101729 heartbeat IPC: 0.749647 cumulative IPC: 0.740758 (Simulation time: 0 hr 50 min 13 sec) 
Heartbeat CPU 0 instructions: 78000001 cycles: 85432330 heartbeat IPC: 0.751539 cumulative IPC: 0.741138 (Simulation time: 0 hr 50 min 51 sec) 
Heartbeat CPU 0 instructions: 79000000 cycles: 86791112 heartbeat IPC: 0.735952 cumulative IPC: 0.740958 (Simulation time: 0 hr 51 min 30 sec) 
Heartbeat CPU 0 instructions: 80000000 cycles: 88137201 heartbeat IPC: 0.742893 cumulative IPC: 0.741022 (Simulation time: 0 hr 52 min 7 sec) 
Heartbeat CPU 0 instructions: 81000002 cycles: 89513586 heartbeat IPC: 0.726542 cumulative IPC: 0.740546 (Simulation time: 0 hr 52 min 45 sec) 
Heartbeat CPU 0 instructions: 82000000 cycles: 90885751 heartbeat IPC: 0.728774 cumulative IPC: 0.740172 (Simulation time: 0 hr 53 min 23 sec) 
Heartbeat CPU 0 instructions: 83000003 cycles: 92217411 heartbeat IPC: 0.750945 cumulative IPC: 0.740494 (Simulation time: 0 hr 54 min 0 sec) 
Heartbeat CPU 0 instructions: 84000000 cycles: 93558953 heartbeat IPC: 0.745409 cumulative IPC: 0.740638 (Simulation time: 0 hr 54 min 37 sec) 
Heartbeat CPU 0 instructions: 85000002 cycles: 94872762 heartbeat IPC: 0.761147 cumulative IPC: 0.741208 (Simulation time: 0 hr 55 min 15 sec) 
Heartbeat CPU 0 instructions: 86000003 cycles: 96176062 heartbeat IPC: 0.767284 cumulative IPC: 0.741909 (Simulation time: 0 hr 55 min 53 sec) 
Heartbeat CPU 0 instructions: 87000000 cycles: 97558216 heartbeat IPC: 0.723506 cumulative IPC: 0.741399 (Simulation time: 0 hr 56 min 33 sec) 
Heartbeat CPU 0 instructions: 88000000 cycles: 98909550 heartbeat IPC: 0.740009 cumulative IPC: 0.741362 (Simulation time: 0 hr 57 min 9 sec) 
Heartbeat CPU 0 instructions: 89000000 cycles: 100269622 heartbeat IPC: 0.735255 cumulative IPC: 0.741205 (Simulation time: 0 hr 57 min 48 sec) 
Heartbeat CPU 0 instructions: 90000000 cycles: 101586842 heartbeat IPC: 0.759175 cumulative IPC: 0.741643 (Simulation time: 0 hr 58 min 30 sec) 
Heartbeat CPU 0 instructions: 91000001 cycles: 102892850 heartbeat IPC: 0.765693 cumulative IPC: 0.742212 (Simulation time: 0 hr 59 min 10 sec) 
Heartbeat CPU 0 instructions: 92000000 cycles: 104209328 heartbeat IPC: 0.759602 cumulative IPC: 0.742617 (Simulation time: 0 hr 59 min 55 sec) 
Heartbeat CPU 0 instructions: 93000003 cycles: 105592236 heartbeat IPC: 0.723116 cumulative IPC: 0.742151 (Simulation time: 1 hr 0 min 35 sec) 
Heartbeat CPU 0 instructions: 94000000 cycles: 106934696 heartbeat IPC: 0.744899 cumulative IPC: 0.742214 (Simulation time: 1 hr 1 min 15 sec) 
Heartbeat CPU 0 instructions: 95000000 cycles: 108286466 heartbeat IPC: 0.739771 cumulative IPC: 0.742159 (Simulation time: 1 hr 1 min 52 sec) 
Heartbeat CPU 0 instructions: 96000000 cycles: 109620158 heartbeat IPC: 0.749798 cumulative IPC: 0.742324 (Simulation time: 1 hr 2 min 29 sec) 
Heartbeat CPU 0 instructions: 97000000 cycles: 110930397 heartbeat IPC: 0.76322 cumulative IPC: 0.742756 (Simulation time: 1 hr 3 min 13 sec) 
Heartbeat CPU 0 instructions: 98000003 cycles: 112240355 heartbeat IPC: 0.763386 cumulative IPC: 0.743175 (Simulation time: 1 hr 3 min 51 sec) 
Heartbeat CPU 0 instructions: 99000000 cycles: 113629124 heartbeat IPC: 0.72006 cumulative IPC: 0.742688 (Simulation time: 1 hr 4 min 29 sec) 
Heartbeat CPU 0 instructions: 100000000 cycles: 114970793 heartbeat IPC: 0.74534 cumulative IPC: 0.742741 (Simulation time: 1 hr 5 min 12 sec) 
Heartbeat CPU 0 instructions: 101000000 cycles: 116318007 heartbeat IPC: 0.742273 cumulative IPC: 0.742732 (Simulation time: 1 hr 5 min 48 sec) 
Heartbeat CPU 0 instructions: 102000001 cycles: 117632351 heartbeat IPC: 0.760837 cumulative IPC: 0.743072 (Simulation time: 1 hr 6 min 24 sec) 
Heartbeat CPU 0 instructions: 103000001 cycles: 118935188 heartbeat IPC: 0.767556 cumulative IPC: 0.743519 (Simulation time: 1 hr 7 min 0 sec) 
Heartbeat CPU 0 instructions: 104000000 cycles: 120238651 heartbeat IPC: 0.767186 cumulative IPC: 0.743944 (Simulation time: 1 hr 7 min 40 sec) 
Heartbeat CPU 0 instructions: 105000002 cycles: 121617759 heartbeat IPC: 0.725108 cumulative IPC: 0.743593 (Simulation time: 1 hr 8 min 14 sec) 
Heartbeat CPU 0 instructions: 106000000 cycles: 123023633 heartbeat IPC: 0.7113 cumulative IPC: 0.742991 (Simulation time: 1 hr 8 min 47 sec) 
Heartbeat CPU 0 instructions: 107000002 cycles: 124414529 heartbeat IPC: 0.718962 cumulative IPC: 0.742555 (Simulation time: 1 hr 9 min 25 sec) 
Heartbeat CPU 0 instructions: 108000000 cycles: 125770892 heartbeat IPC: 0.737264 cumulative IPC: 0.742463 (Simulation time: 1 hr 9 min 58 sec) 
Heartbeat CPU 0 instructions: 109000000 cycles: 127106515 heartbeat IPC: 0.748714 cumulative IPC: 0.742569 (Simulation time: 1 hr 10 min 31 sec) 
Heartbeat CPU 0 instructions: 110000000 cycles: 128434995 heartbeat IPC: 0.75274 cumulative IPC: 0.742736 (Simulation time: 1 hr 11 min 3 sec) 
Heartbeat CPU 0 instructions: 111000000 cycles: 129770828 heartbeat IPC: 0.748597 cumulative IPC: 0.742831 (Simulation time: 1 hr 11 min 37 sec) 
Heartbeat CPU 0 instructions: 112000000 cycles: 131160430 heartbeat IPC: 0.719631 cumulative IPC: 0.742445 (Simulation time: 1 hr 12 min 10 sec) 
Heartbeat CPU 0 instructions: 113000000 cycles: 132532984 heartbeat IPC: 0.728569 cumulative IPC: 0.742221 (Simulation time: 1 hr 12 min 42 sec) 
Heartbeat CPU 0 instructions: 114000001 cycles: 133860674 heartbeat IPC: 0.753189 cumulative IPC: 0.74239 (Simulation time: 1 hr 13 min 15 sec) 
Heartbeat CPU 0 instructions: 115000000 cycles: 135219539 heartbeat IPC: 0.735908 cumulative IPC: 0.742289 (Simulation time: 1 hr 13 min 45 sec) 
Heartbeat CPU 0 instructions: 116000000 cycles: 136537156 heartbeat IPC: 0.758946 cumulative IPC: 0.742536 (Simulation time: 1 hr 14 min 17 sec) 
Heartbeat CPU 0 instructions: 117000000 cycles: 137845010 heartbeat IPC: 0.764611 cumulative IPC: 0.742856 (Simulation time: 1 hr 14 min 46 sec) 
Heartbeat CPU 0 instructions: 118000002 cycles: 139215845 heartbeat IPC: 0.729484 cumulative IPC: 0.742656 (Simulation time: 1 hr 15 min 13 sec) 
Heartbeat CPU 0 instructions: 119000000 cycles: 140621032 heartbeat IPC: 0.711648 cumulative IPC: 0.742187 (Simulation time: 1 hr 15 min 41 sec) 
Heartbeat CPU 0 instructions: 120000000 cycles: 142051132 heartbeat IPC: 0.699252 cumulative IPC: 0.741537 (Simulation time: 1 hr 16 min 8 sec) 
Heartbeat CPU 0 instructions: 121000000 cycles: 143406111 heartbeat IPC: 0.738019 cumulative IPC: 0.741487 (Simulation time: 1 hr 16 min 34 sec) 
Heartbeat CPU 0 instructions: 122000003 cycles: 144741024 heartbeat IPC: 0.749115 cumulative IPC: 0.741592 (Simulation time: 1 hr 17 min 1 sec) 
Heartbeat CPU 0 instructions: 123000003 cycles: 146068690 heartbeat IPC: 0.753201 cumulative IPC: 0.741748 (Simulation time: 1 hr 17 min 24 sec) 
Heartbeat CPU 0 instructions: 124000000 cycles: 147407750 heartbeat IPC: 0.74679 cumulative IPC: 0.741816 (Simulation time: 1 hr 17 min 45 sec) 
Heartbeat CPU 0 instructions: 125000001 cycles: 148795134 heartbeat IPC: 0.720782 cumulative IPC: 0.741528 (Simulation time: 1 hr 18 min 8 sec) 
Heartbeat CPU 0 instructions: 126000000 cycles: 150124919 heartbeat IPC: 0.752001 cumulative IPC: 0.741664 (Simulation time: 1 hr 18 min 30 sec) 
Heartbeat CPU 0 instructions: 127000003 cycles: 151465462 heartbeat IPC: 0.745969 cumulative IPC: 0.741719 (Simulation time: 1 hr 18 min 52 sec) 
Heartbeat CPU 0 instructions: 128000000 cycles: 152777722 heartbeat IPC: 0.762042 cumulative IPC: 0.741973 (Simulation time: 1 hr 19 min 15 sec) 
Heartbeat CPU 0 instructions: 129000003 cycles: 154080152 heartbeat IPC: 0.767798 cumulative IPC: 0.742289 (Simulation time: 1 hr 19 min 38 sec) 
Heartbeat CPU 0 instructions: 130000000 cycles: 155376530 heartbeat IPC: 0.771378 cumulative IPC: 0.742639 (Simulation time: 1 hr 20 min 0 sec) 
Heartbeat CPU 0 instructions: 131000000 cycles: 156752842 heartbeat IPC: 0.726579 cumulative IPC: 0.742436 (Simulation time: 1 hr 20 min 21 sec) 
Heartbeat CPU 0 instructions: 132000000 cycles: 158152373 heartbeat IPC: 0.714525 cumulative IPC: 0.742083 (Simulation time: 1 hr 20 min 40 sec) 
Heartbeat CPU 0 instructions: 133000003 cycles: 159529314 heartbeat IPC: 0.72625 cumulative IPC: 0.741888 (Simulation time: 1 hr 21 min 3 sec) 
Heartbeat CPU 0 instructions: 134000000 cycles: 160876929 heartbeat IPC: 0.742049 cumulative IPC: 0.74189 (Simulation time: 1 hr 21 min 21 sec) 
Heartbeat CPU 0 instructions: 135000002 cycles: 162197413 heartbeat IPC: 0.7573 cumulative IPC: 0.742067 (Simulation time: 1 hr 21 min 40 sec) 
Heartbeat CPU 0 instructions: 136000000 cycles: 163504233 heartbeat IPC: 0.765215 cumulative IPC: 0.742329 (Simulation time: 1 hr 22 min 1 sec) 
Heartbeat CPU 0 instructions: 137000003 cycles: 164837729 heartbeat IPC: 0.749911 cumulative IPC: 0.742415 (Simulation time: 1 hr 22 min 20 sec) 
Heartbeat CPU 0 instructions: 138000003 cycles: 166189010 heartbeat IPC: 0.740039 cumulative IPC: 0.742388 (Simulation time: 1 hr 22 min 39 sec) 
Heartbeat CPU 0 instructions: 139000000 cycles: 167578023 heartbeat IPC: 0.719934 cumulative IPC: 0.742128 (Simulation time: 1 hr 22 min 58 sec) 
Heartbeat CPU 0 instructions: 140000000 cycles: 168902449 heartbeat IPC: 0.755044 cumulative IPC: 0.742269 (Simulation time: 1 hr 23 min 17 sec) 
Heartbeat CPU 0 instructions: 141000001 cycles: 170223334 heartbeat IPC: 0.757069 cumulative IPC: 0.742428 (Simulation time: 1 hr 23 min 35 sec) 
Heartbeat CPU 0 instructions: 142000000 cycles: 171524172 heartbeat IPC: 0.768734 cumulative IPC: 0.742705 (Simulation time: 1 hr 23 min 53 sec) 
Heartbeat CPU 0 instructions: 143000003 cycles: 172849203 heartbeat IPC: 0.754702 cumulative IPC: 0.742832 (Simulation time: 1 hr 24 min 10 sec) 
Heartbeat CPU 0 instructions: 144000000 cycles: 174194271 heartbeat IPC: 0.743455 cumulative IPC: 0.742838 (Simulation time: 1 hr 24 min 26 sec) 
Heartbeat CPU 0 instructions: 145000001 cycles: 175586166 heartbeat IPC: 0.718446 cumulative IPC: 0.742573 (Simulation time: 1 hr 24 min 40 sec) 
Heartbeat CPU 0 instructions: 146000000 cycles: 176993232 heartbeat IPC: 0.710698 cumulative IPC: 0.742226 (Simulation time: 1 hr 24 min 54 sec) 
Heartbeat CPU 0 instructions: 147000001 cycles: 178349544 heartbeat IPC: 0.737294 cumulative IPC: 0.742175 (Simulation time: 1 hr 25 min 7 sec) 
Heartbeat CPU 0 instructions: 148000000 cycles: 179675724 heartbeat IPC: 0.754045 cumulative IPC: 0.742294 (Simulation time: 1 hr 25 min 22 sec) 
Heartbeat CPU 0 instructions: 149000000 cycles: 180991008 heartbeat IPC: 0.760292 cumulative IPC: 0.742472 (Simulation time: 1 hr 25 min 36 sec) 
Heartbeat CPU 0 instructions: 150000000 cycles: 182312741 heartbeat IPC: 0.756582 cumulative IPC: 0.74261 (Simulation time: 1 hr 25 min 49 sec) 
Finished CPU 0 instructions: 100000000 cycles: 134660179 cummulative IPC: 0.74261 (Simulation time: 1 hr 25 min 49 sec) 

ChampSim completed all CPUs

Region of Interest Statistics

CPU 0 cummulative IPC: 0.74261 instructions: 100000000 cycles: 134660179
LLC TOTAL     ACCESS:   21168196  HIT:   21092307  MISS:      75889
LLC LOAD      ACCESS:     165328  HIT:     129234  MISS:      36094
LLC RFO       ACCESS:   10374956  HIT:   10369310  MISS:       5646
LLC PREFETCH  ACCESS:     183350  HIT:     149568  MISS:      33782
LLC WRITEBACK ACCESS:   10444562  HIT:   10444195  MISS:        367
OPTgen accesses: 250930
OPTgen hits: 252077
OPTgen hit rate: 100.457


