
*** ChampSim Multicore Out-of-Order Simulator ***

Warmup Instructions: 50000000
Simulation Instructions: 100000000
Configuration: 2
Number of CPUs: 1
LLC sets: 2048
LLC ways: 16
Off-chip DRAM Channels: 1 Width: 64-bit Data Rate: 1600 MT/s

CPU 0 runs /datasets/cs240c-wi22-a00-public/data/Assignment2-gz/calculix_3812B.trace.gz
CPU 0 L1D next line prefetcher
CPU 0 L2C IP-based stride prefetcher
Initialize Hawkeye state
Heartbeat CPU 0 instructions: 1000001 cycles: 478689 heartbeat IPC: 2.08904 cumulative IPC: 2.08904 (Simulation time: 0 hr 0 min 41 sec) 
Heartbeat CPU 0 instructions: 2000002 cycles: 956483 heartbeat IPC: 2.09295 cumulative IPC: 2.091 (Simulation time: 0 hr 1 min 13 sec) 
Heartbeat CPU 0 instructions: 3000002 cycles: 1434999 heartbeat IPC: 2.08979 cumulative IPC: 2.0906 (Simulation time: 0 hr 1 min 42 sec) 
Heartbeat CPU 0 instructions: 4000000 cycles: 1907482 heartbeat IPC: 2.11647 cumulative IPC: 2.09701 (Simulation time: 0 hr 2 min 11 sec) 
Heartbeat CPU 0 instructions: 5000000 cycles: 2356307 heartbeat IPC: 2.22804 cumulative IPC: 2.12196 (Simulation time: 0 hr 2 min 37 sec) 
Heartbeat CPU 0 instructions: 6000003 cycles: 2761688 heartbeat IPC: 2.46682 cumulative IPC: 2.17259 (Simulation time: 0 hr 2 min 59 sec) 
Heartbeat CPU 0 instructions: 7000002 cycles: 3154798 heartbeat IPC: 2.54381 cumulative IPC: 2.21884 (Simulation time: 0 hr 3 min 21 sec) 
Heartbeat CPU 0 instructions: 8000000 cycles: 3547939 heartbeat IPC: 2.54361 cumulative IPC: 2.25483 (Simulation time: 0 hr 3 min 44 sec) 
Heartbeat CPU 0 instructions: 9000000 cycles: 3940928 heartbeat IPC: 2.5446 cumulative IPC: 2.28373 (Simulation time: 0 hr 4 min 7 sec) 
Heartbeat CPU 0 instructions: 10000003 cycles: 4334017 heartbeat IPC: 2.54396 cumulative IPC: 2.30733 (Simulation time: 0 hr 4 min 27 sec) 
Heartbeat CPU 0 instructions: 11000000 cycles: 4726964 heartbeat IPC: 2.54486 cumulative IPC: 2.32708 (Simulation time: 0 hr 4 min 48 sec) 
Heartbeat CPU 0 instructions: 12000000 cycles: 5120150 heartbeat IPC: 2.54333 cumulative IPC: 2.34368 (Simulation time: 0 hr 5 min 12 sec) 
Heartbeat CPU 0 instructions: 13000003 cycles: 5513237 heartbeat IPC: 2.54397 cumulative IPC: 2.35796 (Simulation time: 0 hr 5 min 33 sec) 
Heartbeat CPU 0 instructions: 14000001 cycles: 5942143 heartbeat IPC: 2.33151 cumulative IPC: 2.35605 (Simulation time: 0 hr 6 min 0 sec) 
Heartbeat CPU 0 instructions: 15000000 cycles: 6335382 heartbeat IPC: 2.54298 cumulative IPC: 2.36766 (Simulation time: 0 hr 6 min 21 sec) 
Heartbeat CPU 0 instructions: 16000000 cycles: 6728574 heartbeat IPC: 2.54329 cumulative IPC: 2.37792 (Simulation time: 0 hr 6 min 42 sec) 
Heartbeat CPU 0 instructions: 17000002 cycles: 7121750 heartbeat IPC: 2.5434 cumulative IPC: 2.38705 (Simulation time: 0 hr 7 min 3 sec) 
Heartbeat CPU 0 instructions: 18000001 cycles: 7515077 heartbeat IPC: 2.54241 cumulative IPC: 2.39519 (Simulation time: 0 hr 7 min 24 sec) 
Heartbeat CPU 0 instructions: 19000001 cycles: 7908294 heartbeat IPC: 2.54313 cumulative IPC: 2.40254 (Simulation time: 0 hr 7 min 48 sec) 
Heartbeat CPU 0 instructions: 20000000 cycles: 8301268 heartbeat IPC: 2.5447 cumulative IPC: 2.40927 (Simulation time: 0 hr 8 min 10 sec) 
Heartbeat CPU 0 instructions: 21000000 cycles: 8694479 heartbeat IPC: 2.54316 cumulative IPC: 2.41533 (Simulation time: 0 hr 8 min 31 sec) 
Heartbeat CPU 0 instructions: 22000003 cycles: 9087728 heartbeat IPC: 2.54293 cumulative IPC: 2.42085 (Simulation time: 0 hr 8 min 50 sec) 
Heartbeat CPU 0 instructions: 23000002 cycles: 9480995 heartbeat IPC: 2.5428 cumulative IPC: 2.42591 (Simulation time: 0 hr 9 min 10 sec) 
Heartbeat CPU 0 instructions: 24000000 cycles: 9874253 heartbeat IPC: 2.54285 cumulative IPC: 2.43056 (Simulation time: 0 hr 9 min 30 sec) 
Heartbeat CPU 0 instructions: 25000003 cycles: 10262723 heartbeat IPC: 2.57421 cumulative IPC: 2.436 (Simulation time: 0 hr 9 min 54 sec) 
Heartbeat CPU 0 instructions: 26000003 cycles: 10649332 heartbeat IPC: 2.58659 cumulative IPC: 2.44147 (Simulation time: 0 hr 10 min 17 sec) 
Heartbeat CPU 0 instructions: 27000000 cycles: 11035434 heartbeat IPC: 2.58998 cumulative IPC: 2.44666 (Simulation time: 0 hr 10 min 40 sec) 
Heartbeat CPU 0 instructions: 28000000 cycles: 11422756 heartbeat IPC: 2.58183 cumulative IPC: 2.45125 (Simulation time: 0 hr 11 min 4 sec) 
Heartbeat CPU 0 instructions: 29000003 cycles: 11815304 heartbeat IPC: 2.54747 cumulative IPC: 2.45444 (Simulation time: 0 hr 11 min 27 sec) 
Heartbeat CPU 0 instructions: 30000001 cycles: 12202094 heartbeat IPC: 2.58538 cumulative IPC: 2.45859 (Simulation time: 0 hr 11 min 53 sec) 
Heartbeat CPU 0 instructions: 31000001 cycles: 12567509 heartbeat IPC: 2.73661 cumulative IPC: 2.46668 (Simulation time: 0 hr 12 min 19 sec) 
Heartbeat CPU 0 instructions: 32000000 cycles: 13033830 heartbeat IPC: 2.14444 cumulative IPC: 2.45515 (Simulation time: 0 hr 12 min 50 sec) 
Heartbeat CPU 0 instructions: 33000003 cycles: 13513411 heartbeat IPC: 2.08516 cumulative IPC: 2.44202 (Simulation time: 0 hr 13 min 22 sec) 
Heartbeat CPU 0 instructions: 34000000 cycles: 13993161 heartbeat IPC: 2.08441 cumulative IPC: 2.42976 (Simulation time: 0 hr 13 min 50 sec) 
Heartbeat CPU 0 instructions: 35000000 cycles: 14471852 heartbeat IPC: 2.08903 cumulative IPC: 2.41849 (Simulation time: 0 hr 14 min 18 sec) 
Heartbeat CPU 0 instructions: 36000000 cycles: 14948720 heartbeat IPC: 2.09702 cumulative IPC: 2.40823 (Simulation time: 0 hr 14 min 50 sec) 
Heartbeat CPU 0 instructions: 37000003 cycles: 15427171 heartbeat IPC: 2.09008 cumulative IPC: 2.39837 (Simulation time: 0 hr 15 min 20 sec) 
Heartbeat CPU 0 instructions: 38000003 cycles: 15900976 heartbeat IPC: 2.11057 cumulative IPC: 2.38979 (Simulation time: 0 hr 15 min 49 sec) 
Heartbeat CPU 0 instructions: 39000001 cycles: 16324329 heartbeat IPC: 2.36209 cumulative IPC: 2.38907 (Simulation time: 0 hr 16 min 15 sec) 
Heartbeat CPU 0 instructions: 40000000 cycles: 16759420 heartbeat IPC: 2.29837 cumulative IPC: 2.38672 (Simulation time: 0 hr 16 min 43 sec) 
Heartbeat CPU 0 instructions: 41000002 cycles: 17202703 heartbeat IPC: 2.2559 cumulative IPC: 2.38335 (Simulation time: 0 hr 17 min 9 sec) 
Heartbeat CPU 0 instructions: 42000003 cycles: 17578923 heartbeat IPC: 2.65802 cumulative IPC: 2.38923 (Simulation time: 0 hr 17 min 34 sec) 
Heartbeat CPU 0 instructions: 43000000 cycles: 17974087 heartbeat IPC: 2.53059 cumulative IPC: 2.39233 (Simulation time: 0 hr 18 min 1 sec) 
Heartbeat CPU 0 instructions: 44000000 cycles: 18451874 heartbeat IPC: 2.09298 cumulative IPC: 2.38458 (Simulation time: 0 hr 18 min 33 sec) 
Heartbeat CPU 0 instructions: 45000002 cycles: 18927213 heartbeat IPC: 2.10377 cumulative IPC: 2.37753 (Simulation time: 0 hr 19 min 3 sec) 
Heartbeat CPU 0 instructions: 46000002 cycles: 19405117 heartbeat IPC: 2.09247 cumulative IPC: 2.37051 (Simulation time: 0 hr 19 min 31 sec) 
Heartbeat CPU 0 instructions: 47000002 cycles: 19841085 heartbeat IPC: 2.29375 cumulative IPC: 2.36882 (Simulation time: 0 hr 19 min 56 sec) 
Heartbeat CPU 0 instructions: 48000000 cycles: 20234999 heartbeat IPC: 2.53862 cumulative IPC: 2.37213 (Simulation time: 0 hr 20 min 16 sec) 
Heartbeat CPU 0 instructions: 49000001 cycles: 20628492 heartbeat IPC: 2.54134 cumulative IPC: 2.37536 (Simulation time: 0 hr 20 min 38 sec) 
Heartbeat CPU 0 instructions: 50000000 cycles: 21023588 heartbeat IPC: 2.53103 cumulative IPC: 2.37828 (Simulation time: 0 hr 21 min 2 sec) 

Warmup complete CPU 0 instructions: 50000004 cycles: 21023589 (Simulation time: 0 hr 21 min 2 sec) 

Heartbeat CPU 0 instructions: 51000000 cycles: 21625318 heartbeat IPC: 1.66187 cumulative IPC: 1.66187 (Simulation time: 0 hr 21 min 27 sec) 
Heartbeat CPU 0 instructions: 52000000 cycles: 22210545 heartbeat IPC: 1.70874 cumulative IPC: 1.68498 (Simulation time: 0 hr 21 min 52 sec) 
Heartbeat CPU 0 instructions: 53000000 cycles: 22671224 heartbeat IPC: 2.17071 cumulative IPC: 1.82079 (Simulation time: 0 hr 22 min 15 sec) 
Heartbeat CPU 0 instructions: 54000003 cycles: 23117514 heartbeat IPC: 2.2407 cumulative IPC: 1.91029 (Simulation time: 0 hr 22 min 40 sec) 
Heartbeat CPU 0 instructions: 55000001 cycles: 23557046 heartbeat IPC: 2.27514 cumulative IPC: 1.97359 (Simulation time: 0 hr 23 min 4 sec) 
Heartbeat CPU 0 instructions: 56000000 cycles: 23996906 heartbeat IPC: 2.27345 cumulative IPC: 2.01795 (Simulation time: 0 hr 23 min 28 sec) 
Heartbeat CPU 0 instructions: 57000003 cycles: 24437547 heartbeat IPC: 2.26943 cumulative IPC: 2.05041 (Simulation time: 0 hr 23 min 54 sec) 
Heartbeat CPU 0 instructions: 58000000 cycles: 24898825 heartbeat IPC: 2.16788 cumulative IPC: 2.06439 (Simulation time: 0 hr 24 min 19 sec) 
Heartbeat CPU 0 instructions: 59000001 cycles: 25481119 heartbeat IPC: 1.71735 cumulative IPC: 2.01905 (Simulation time: 0 hr 24 min 45 sec) 
Heartbeat CPU 0 instructions: 60000000 cycles: 25917542 heartbeat IPC: 2.29135 cumulative IPC: 2.04334 (Simulation time: 0 hr 25 min 11 sec) 
Heartbeat CPU 0 instructions: 61000003 cycles: 26355225 heartbeat IPC: 2.28477 cumulative IPC: 2.06316 (Simulation time: 0 hr 25 min 38 sec) 
Heartbeat CPU 0 instructions: 62000002 cycles: 26792277 heartbeat IPC: 2.28805 cumulative IPC: 2.0802 (Simulation time: 0 hr 26 min 6 sec) 
Heartbeat CPU 0 instructions: 63000003 cycles: 27230396 heartbeat IPC: 2.28249 cumulative IPC: 2.09447 (Simulation time: 0 hr 26 min 33 sec) 
Heartbeat CPU 0 instructions: 64000000 cycles: 27667903 heartbeat IPC: 2.28567 cumulative IPC: 2.10706 (Simulation time: 0 hr 26 min 58 sec) 
Heartbeat CPU 0 instructions: 65000000 cycles: 28297587 heartbeat IPC: 1.5881 cumulative IPC: 2.06214 (Simulation time: 0 hr 27 min 24 sec) 
Heartbeat CPU 0 instructions: 66000002 cycles: 28858970 heartbeat IPC: 1.78132 cumulative IPC: 2.04202 (Simulation time: 0 hr 27 min 49 sec) 
Heartbeat CPU 0 instructions: 67000002 cycles: 29296776 heartbeat IPC: 2.28412 cumulative IPC: 2.05483 (Simulation time: 0 hr 28 min 12 sec) 
Heartbeat CPU 0 instructions: 68000000 cycles: 29733180 heartbeat IPC: 2.29145 cumulative IPC: 2.06669 (Simulation time: 0 hr 28 min 37 sec) 
Heartbeat CPU 0 instructions: 69000001 cycles: 30285210 heartbeat IPC: 1.8115 cumulative IPC: 2.05148 (Simulation time: 0 hr 29 min 4 sec) 
Heartbeat CPU 0 instructions: 70000000 cycles: 30723739 heartbeat IPC: 2.28035 cumulative IPC: 2.06182 (Simulation time: 0 hr 29 min 29 sec) 
Heartbeat CPU 0 instructions: 71000000 cycles: 31164227 heartbeat IPC: 2.27021 cumulative IPC: 2.07088 (Simulation time: 0 hr 29 min 55 sec) 
Heartbeat CPU 0 instructions: 72000000 cycles: 31645490 heartbeat IPC: 2.07787 cumulative IPC: 2.07119 (Simulation time: 0 hr 30 min 22 sec) 
Heartbeat CPU 0 instructions: 73000001 cycles: 32209136 heartbeat IPC: 1.77417 cumulative IPC: 2.05622 (Simulation time: 0 hr 30 min 47 sec) 
Heartbeat CPU 0 instructions: 74000002 cycles: 32851419 heartbeat IPC: 1.55695 cumulative IPC: 2.02911 (Simulation time: 0 hr 31 min 14 sec) 
Heartbeat CPU 0 instructions: 75000000 cycles: 33398396 heartbeat IPC: 1.82823 cumulative IPC: 2.02023 (Simulation time: 0 hr 31 min 39 sec) 
Heartbeat CPU 0 instructions: 76000000 cycles: 34145234 heartbeat IPC: 1.33898 cumulative IPC: 1.98146 (Simulation time: 0 hr 32 min 10 sec) 
Heartbeat CPU 0 instructions: 77000000 cycles: 34866197 heartbeat IPC: 1.38703 cumulative IPC: 1.9505 (Simulation time: 0 hr 32 min 41 sec) 
Heartbeat CPU 0 instructions: 78000003 cycles: 35584973 heartbeat IPC: 1.39126 cumulative IPC: 1.92289 (Simulation time: 0 hr 33 min 11 sec) 
Heartbeat CPU 0 instructions: 79000000 cycles: 36295874 heartbeat IPC: 1.40666 cumulative IPC: 1.89886 (Simulation time: 0 hr 33 min 41 sec) 
Heartbeat CPU 0 instructions: 80000000 cycles: 36980956 heartbeat IPC: 1.45968 cumulative IPC: 1.88001 (Simulation time: 0 hr 34 min 11 sec) 
Heartbeat CPU 0 instructions: 81000001 cycles: 37645288 heartbeat IPC: 1.50527 cumulative IPC: 1.86503 (Simulation time: 0 hr 34 min 40 sec) 
Heartbeat CPU 0 instructions: 82000002 cycles: 38288246 heartbeat IPC: 1.55531 cumulative IPC: 1.8535 (Simulation time: 0 hr 35 min 10 sec) 
Heartbeat CPU 0 instructions: 83000002 cycles: 39144803 heartbeat IPC: 1.16746 cumulative IPC: 1.82107 (Simulation time: 0 hr 35 min 39 sec) 
Heartbeat CPU 0 instructions: 84000000 cycles: 39735655 heartbeat IPC: 1.69247 cumulative IPC: 1.81701 (Simulation time: 0 hr 36 min 7 sec) 
Heartbeat CPU 0 instructions: 85000000 cycles: 40191014 heartbeat IPC: 2.19607 cumulative IPC: 1.82601 (Simulation time: 0 hr 36 min 33 sec) 
Heartbeat CPU 0 instructions: 86000001 cycles: 40643610 heartbeat IPC: 2.20948 cumulative IPC: 1.83486 (Simulation time: 0 hr 36 min 57 sec) 
Heartbeat CPU 0 instructions: 87000002 cycles: 41099251 heartbeat IPC: 2.19471 cumulative IPC: 1.84303 (Simulation time: 0 hr 37 min 22 sec) 
Heartbeat CPU 0 instructions: 88000000 cycles: 41550648 heartbeat IPC: 2.21534 cumulative IPC: 1.85121 (Simulation time: 0 hr 37 min 47 sec) 
Heartbeat CPU 0 instructions: 89000003 cycles: 42000193 heartbeat IPC: 2.22448 cumulative IPC: 1.85921 (Simulation time: 0 hr 38 min 14 sec) 
Heartbeat CPU 0 instructions: 90000003 cycles: 42450166 heartbeat IPC: 2.22236 cumulative IPC: 1.86684 (Simulation time: 0 hr 38 min 39 sec) 
Heartbeat CPU 0 instructions: 91000003 cycles: 42916806 heartbeat IPC: 2.14298 cumulative IPC: 1.87273 (Simulation time: 0 hr 39 min 3 sec) 
Heartbeat CPU 0 instructions: 92000000 cycles: 43415216 heartbeat IPC: 2.00637 cumulative IPC: 1.8757 (Simulation time: 0 hr 39 min 28 sec) 
Heartbeat CPU 0 instructions: 93000000 cycles: 43861109 heartbeat IPC: 2.24269 cumulative IPC: 1.88287 (Simulation time: 0 hr 39 min 52 sec) 
Heartbeat CPU 0 instructions: 94000003 cycles: 44306249 heartbeat IPC: 2.24649 cumulative IPC: 1.88982 (Simulation time: 0 hr 40 min 16 sec) 
Heartbeat CPU 0 instructions: 95000001 cycles: 44936228 heartbeat IPC: 1.58735 cumulative IPC: 1.88185 (Simulation time: 0 hr 40 min 48 sec) 
Heartbeat CPU 0 instructions: 96000000 cycles: 45540583 heartbeat IPC: 1.65465 cumulative IPC: 1.87625 (Simulation time: 0 hr 41 min 14 sec) 
Heartbeat CPU 0 instructions: 97000000 cycles: 46009938 heartbeat IPC: 2.13058 cumulative IPC: 1.88103 (Simulation time: 0 hr 41 min 39 sec) 
Heartbeat CPU 0 instructions: 98000003 cycles: 46450178 heartbeat IPC: 2.2715 cumulative IPC: 1.88779 (Simulation time: 0 hr 42 min 4 sec) 
Heartbeat CPU 0 instructions: 99000000 cycles: 46889824 heartbeat IPC: 2.27455 cumulative IPC: 1.89436 (Simulation time: 0 hr 42 min 27 sec) 
Heartbeat CPU 0 instructions: 100000000 cycles: 47330089 heartbeat IPC: 2.27136 cumulative IPC: 1.90067 (Simulation time: 0 hr 42 min 48 sec) 
Heartbeat CPU 0 instructions: 101000003 cycles: 47769673 heartbeat IPC: 2.27488 cumulative IPC: 1.90682 (Simulation time: 0 hr 43 min 10 sec) 
Heartbeat CPU 0 instructions: 102000002 cycles: 48319053 heartbeat IPC: 1.82023 cumulative IPC: 1.90508 (Simulation time: 0 hr 43 min 37 sec) 
Heartbeat CPU 0 instructions: 103000000 cycles: 48762469 heartbeat IPC: 2.25521 cumulative IPC: 1.91068 (Simulation time: 0 hr 44 min 1 sec) 
Heartbeat CPU 0 instructions: 104000000 cycles: 49200236 heartbeat IPC: 2.28432 cumulative IPC: 1.91648 (Simulation time: 0 hr 44 min 32 sec) 
Heartbeat CPU 0 instructions: 105000000 cycles: 49637662 heartbeat IPC: 2.2861 cumulative IPC: 1.92213 (Simulation time: 0 hr 44 min 57 sec) 
Heartbeat CPU 0 instructions: 106000003 cycles: 50074748 heartbeat IPC: 2.28789 cumulative IPC: 1.92763 (Simulation time: 0 hr 45 min 22 sec) 
Heartbeat CPU 0 instructions: 107000003 cycles: 50512709 heartbeat IPC: 2.28331 cumulative IPC: 1.93292 (Simulation time: 0 hr 45 min 47 sec) 
Heartbeat CPU 0 instructions: 108000000 cycles: 51025614 heartbeat IPC: 1.94967 cumulative IPC: 1.9332 (Simulation time: 0 hr 46 min 14 sec) 
Heartbeat CPU 0 instructions: 109000002 cycles: 51670593 heartbeat IPC: 1.55044 cumulative IPC: 1.92515 (Simulation time: 0 hr 46 min 40 sec) 
Heartbeat CPU 0 instructions: 110000003 cycles: 52105304 heartbeat IPC: 2.30038 cumulative IPC: 1.9304 (Simulation time: 0 hr 47 min 4 sec) 
Heartbeat CPU 0 instructions: 111000001 cycles: 52541057 heartbeat IPC: 2.29487 cumulative IPC: 1.93543 (Simulation time: 0 hr 47 min 28 sec) 
Heartbeat CPU 0 instructions: 112000000 cycles: 53026675 heartbeat IPC: 2.05923 cumulative IPC: 1.93731 (Simulation time: 0 hr 47 min 53 sec) 
Heartbeat CPU 0 instructions: 113000003 cycles: 53500129 heartbeat IPC: 2.11214 cumulative IPC: 1.93986 (Simulation time: 0 hr 48 min 19 sec) 
Heartbeat CPU 0 instructions: 114000003 cycles: 53937024 heartbeat IPC: 2.28888 cumulative IPC: 1.94449 (Simulation time: 0 hr 48 min 42 sec) 
Heartbeat CPU 0 instructions: 115000002 cycles: 54372411 heartbeat IPC: 2.2968 cumulative IPC: 1.94909 (Simulation time: 0 hr 49 min 7 sec) 
Heartbeat CPU 0 instructions: 116000000 cycles: 54874202 heartbeat IPC: 1.99286 cumulative IPC: 1.94974 (Simulation time: 0 hr 49 min 33 sec) 
Heartbeat CPU 0 instructions: 117000000 cycles: 55429900 heartbeat IPC: 1.79954 cumulative IPC: 1.94732 (Simulation time: 0 hr 50 min 0 sec) 
Heartbeat CPU 0 instructions: 118000001 cycles: 56055493 heartbeat IPC: 1.59848 cumulative IPC: 1.94109 (Simulation time: 0 hr 50 min 28 sec) 
Heartbeat CPU 0 instructions: 119000003 cycles: 56800610 heartbeat IPC: 1.34207 cumulative IPC: 1.92861 (Simulation time: 0 hr 50 min 58 sec) 
Heartbeat CPU 0 instructions: 120000000 cycles: 57517593 heartbeat IPC: 1.39473 cumulative IPC: 1.91812 (Simulation time: 0 hr 51 min 31 sec) 
Heartbeat CPU 0 instructions: 121000001 cycles: 58232578 heartbeat IPC: 1.39863 cumulative IPC: 1.90814 (Simulation time: 0 hr 52 min 2 sec) 
Heartbeat CPU 0 instructions: 122000002 cycles: 58938397 heartbeat IPC: 1.4168 cumulative IPC: 1.89899 (Simulation time: 0 hr 52 min 34 sec) 
Heartbeat CPU 0 instructions: 123000002 cycles: 59620843 heartbeat IPC: 1.46532 cumulative IPC: 1.89133 (Simulation time: 0 hr 53 min 2 sec) 
Heartbeat CPU 0 instructions: 124000000 cycles: 60284346 heartbeat IPC: 1.50715 cumulative IPC: 1.88483 (Simulation time: 0 hr 53 min 30 sec) 
Heartbeat CPU 0 instructions: 125000002 cycles: 60932504 heartbeat IPC: 1.54284 cumulative IPC: 1.87928 (Simulation time: 0 hr 54 min 1 sec) 
Heartbeat CPU 0 instructions: 126000001 cycles: 61864285 heartbeat IPC: 1.07321 cumulative IPC: 1.86089 (Simulation time: 0 hr 54 min 33 sec) 
Heartbeat CPU 0 instructions: 127000003 cycles: 62442470 heartbeat IPC: 1.72955 cumulative IPC: 1.85906 (Simulation time: 0 hr 54 min 59 sec) 
Heartbeat CPU 0 instructions: 128000000 cycles: 62902882 heartbeat IPC: 2.17196 cumulative IPC: 1.8625 (Simulation time: 0 hr 55 min 24 sec) 
Heartbeat CPU 0 instructions: 129000002 cycles: 63355697 heartbeat IPC: 2.20841 cumulative IPC: 1.8662 (Simulation time: 0 hr 55 min 49 sec) 
Heartbeat CPU 0 instructions: 130000001 cycles: 63804324 heartbeat IPC: 2.22902 cumulative IPC: 1.87 (Simulation time: 0 hr 56 min 14 sec) 
Heartbeat CPU 0 instructions: 131000000 cycles: 64252775 heartbeat IPC: 2.2299 cumulative IPC: 1.87373 (Simulation time: 0 hr 56 min 38 sec) 
Heartbeat CPU 0 instructions: 132000000 cycles: 64706368 heartbeat IPC: 2.20462 cumulative IPC: 1.87717 (Simulation time: 0 hr 57 min 3 sec) 
Heartbeat CPU 0 instructions: 133000000 cycles: 65161903 heartbeat IPC: 2.19522 cumulative IPC: 1.88045 (Simulation time: 0 hr 57 min 28 sec) 
Heartbeat CPU 0 instructions: 134000000 cycles: 65694408 heartbeat IPC: 1.87792 cumulative IPC: 1.88042 (Simulation time: 0 hr 57 min 56 sec) 
Heartbeat CPU 0 instructions: 135000003 cycles: 66203662 heartbeat IPC: 1.96366 cumulative IPC: 1.88136 (Simulation time: 0 hr 58 min 21 sec) 
Heartbeat CPU 0 instructions: 136000000 cycles: 66657947 heartbeat IPC: 2.20125 cumulative IPC: 1.88454 (Simulation time: 0 hr 58 min 47 sec) 
Heartbeat CPU 0 instructions: 137000002 cycles: 67109641 heartbeat IPC: 2.21389 cumulative IPC: 1.88777 (Simulation time: 0 hr 59 min 12 sec) 
Heartbeat CPU 0 instructions: 138000002 cycles: 67562619 heartbeat IPC: 2.20761 cumulative IPC: 1.89089 (Simulation time: 0 hr 59 min 36 sec) 
Heartbeat CPU 0 instructions: 139000000 cycles: 68019130 heartbeat IPC: 2.19052 cumulative IPC: 1.8938 (Simulation time: 1 hr 0 min 1 sec) 
Heartbeat CPU 0 instructions: 140000000 cycles: 68470825 heartbeat IPC: 2.21388 cumulative IPC: 1.89684 (Simulation time: 1 hr 0 min 29 sec) 
Heartbeat CPU 0 instructions: 141000000 cycles: 68923769 heartbeat IPC: 2.20778 cumulative IPC: 1.89978 (Simulation time: 1 hr 0 min 54 sec) 
Heartbeat CPU 0 instructions: 142000003 cycles: 69437694 heartbeat IPC: 1.94582 cumulative IPC: 1.90027 (Simulation time: 1 hr 1 min 18 sec) 
Heartbeat CPU 0 instructions: 143000002 cycles: 69881358 heartbeat IPC: 2.25396 cumulative IPC: 1.90348 (Simulation time: 1 hr 1 min 42 sec) 
Heartbeat CPU 0 instructions: 144000000 cycles: 70332933 heartbeat IPC: 2.21447 cumulative IPC: 1.90633 (Simulation time: 1 hr 2 min 6 sec) 
Heartbeat CPU 0 instructions: 145000001 cycles: 70991536 heartbeat IPC: 1.51837 cumulative IPC: 1.90122 (Simulation time: 1 hr 2 min 35 sec) 
Heartbeat CPU 0 instructions: 146000003 cycles: 71602795 heartbeat IPC: 1.63597 cumulative IPC: 1.89801 (Simulation time: 1 hr 3 min 6 sec) 
Heartbeat CPU 0 instructions: 147000002 cycles: 72052770 heartbeat IPC: 2.22234 cumulative IPC: 1.90087 (Simulation time: 1 hr 3 min 30 sec) 
Heartbeat CPU 0 instructions: 148000000 cycles: 72490479 heartbeat IPC: 2.28462 cumulative IPC: 1.90414 (Simulation time: 1 hr 3 min 54 sec) 
Heartbeat CPU 0 instructions: 149000002 cycles: 72930026 heartbeat IPC: 2.27507 cumulative IPC: 1.90728 (Simulation time: 1 hr 4 min 20 sec) 
Heartbeat CPU 0 instructions: 150000003 cycles: 73369146 heartbeat IPC: 2.27728 cumulative IPC: 1.91038 (Simulation time: 1 hr 4 min 49 sec) 
Finished CPU 0 instructions: 100000003 cycles: 52345558 cummulative IPC: 1.91038 (Simulation time: 1 hr 4 min 49 sec) 

ChampSim completed all CPUs

Region of Interest Statistics

CPU 0 cummulative IPC: 1.91038 instructions: 100000003 cycles: 52345558
LLC TOTAL     ACCESS:    1256065  HIT:    1164064  MISS:      92001
LLC LOAD      ACCESS:     149570  HIT:     140196  MISS:       9374
LLC RFO       ACCESS:      37524  HIT:      12809  MISS:      24715
LLC PREFETCH  ACCESS:     776629  HIT:     725357  MISS:      51272
LLC WRITEBACK ACCESS:     292342  HIT:     285702  MISS:       6640
OPTgen accesses: 4736
OPTgen hits: 12855
OPTgen hit rate: 271.432


