
*** ChampSim Multicore Out-of-Order Simulator ***

Warmup Instructions: 50000000
Simulation Instructions: 100000000
Configuration: 2
Number of CPUs: 1
LLC sets: 2048
LLC ways: 16
Off-chip DRAM Channels: 1 Width: 64-bit Data Rate: 1600 MT/s

CPU 0 runs /datasets/cs240c-wi22-a00-public/data/Assignment2-gz/bzip2_183B.trace.gz
CPU 0 L1D next line prefetcher
CPU 0 L2C IP-based stride prefetcher
Initialize Hawkeye state
Heartbeat CPU 0 instructions: 1000000 cycles: 447972 heartbeat IPC: 2.23228 cumulative IPC: 2.23228 (Simulation time: 0 hr 0 min 36 sec) 
Heartbeat CPU 0 instructions: 2000001 cycles: 951246 heartbeat IPC: 1.98699 cumulative IPC: 2.10251 (Simulation time: 0 hr 1 min 15 sec) 
Heartbeat CPU 0 instructions: 3000001 cycles: 1457934 heartbeat IPC: 1.9736 cumulative IPC: 2.05771 (Simulation time: 0 hr 1 min 53 sec) 
Heartbeat CPU 0 instructions: 4000000 cycles: 1928638 heartbeat IPC: 2.12448 cumulative IPC: 2.074 (Simulation time: 0 hr 2 min 31 sec) 
Heartbeat CPU 0 instructions: 5000000 cycles: 2425967 heartbeat IPC: 2.01074 cumulative IPC: 2.06103 (Simulation time: 0 hr 3 min 4 sec) 
Heartbeat CPU 0 instructions: 6000001 cycles: 2887581 heartbeat IPC: 2.16631 cumulative IPC: 2.07786 (Simulation time: 0 hr 3 min 36 sec) 
Heartbeat CPU 0 instructions: 7000002 cycles: 3343462 heartbeat IPC: 2.19356 cumulative IPC: 2.09364 (Simulation time: 0 hr 4 min 12 sec) 
Heartbeat CPU 0 instructions: 8000000 cycles: 3813053 heartbeat IPC: 2.12951 cumulative IPC: 2.09806 (Simulation time: 0 hr 4 min 43 sec) 
Heartbeat CPU 0 instructions: 9000003 cycles: 4278336 heartbeat IPC: 2.14924 cumulative IPC: 2.10362 (Simulation time: 0 hr 5 min 17 sec) 
Heartbeat CPU 0 instructions: 10000000 cycles: 4746844 heartbeat IPC: 2.13443 cumulative IPC: 2.10666 (Simulation time: 0 hr 5 min 52 sec) 
Heartbeat CPU 0 instructions: 11000000 cycles: 5209584 heartbeat IPC: 2.16104 cumulative IPC: 2.11149 (Simulation time: 0 hr 6 min 24 sec) 
Heartbeat CPU 0 instructions: 12000000 cycles: 5685202 heartbeat IPC: 2.10253 cumulative IPC: 2.11074 (Simulation time: 0 hr 6 min 58 sec) 
Heartbeat CPU 0 instructions: 13000003 cycles: 6152353 heartbeat IPC: 2.14064 cumulative IPC: 2.11301 (Simulation time: 0 hr 7 min 27 sec) 
Heartbeat CPU 0 instructions: 14000003 cycles: 6651720 heartbeat IPC: 2.00254 cumulative IPC: 2.10472 (Simulation time: 0 hr 8 min 2 sec) 
Heartbeat CPU 0 instructions: 15000002 cycles: 7120876 heartbeat IPC: 2.13148 cumulative IPC: 2.10648 (Simulation time: 0 hr 8 min 35 sec) 
Heartbeat CPU 0 instructions: 16000000 cycles: 7634950 heartbeat IPC: 1.94524 cumulative IPC: 2.09563 (Simulation time: 0 hr 9 min 9 sec) 
Heartbeat CPU 0 instructions: 17000000 cycles: 8128968 heartbeat IPC: 2.02422 cumulative IPC: 2.09129 (Simulation time: 0 hr 9 min 43 sec) 
Heartbeat CPU 0 instructions: 18000001 cycles: 8693177 heartbeat IPC: 1.77239 cumulative IPC: 2.07059 (Simulation time: 0 hr 10 min 20 sec) 
Heartbeat CPU 0 instructions: 19000000 cycles: 9204799 heartbeat IPC: 1.95457 cumulative IPC: 2.06414 (Simulation time: 0 hr 10 min 50 sec) 
Heartbeat CPU 0 instructions: 20000000 cycles: 9694798 heartbeat IPC: 2.04082 cumulative IPC: 2.06296 (Simulation time: 0 hr 11 min 23 sec) 
Heartbeat CPU 0 instructions: 21000003 cycles: 10143629 heartbeat IPC: 2.22802 cumulative IPC: 2.07027 (Simulation time: 0 hr 11 min 59 sec) 
Heartbeat CPU 0 instructions: 22000003 cycles: 10608587 heartbeat IPC: 2.15073 cumulative IPC: 2.07379 (Simulation time: 0 hr 12 min 31 sec) 
Heartbeat CPU 0 instructions: 23000002 cycles: 11089842 heartbeat IPC: 2.0779 cumulative IPC: 2.07397 (Simulation time: 0 hr 13 min 4 sec) 
Heartbeat CPU 0 instructions: 24000000 cycles: 11586228 heartbeat IPC: 2.01456 cumulative IPC: 2.07142 (Simulation time: 0 hr 13 min 36 sec) 
Heartbeat CPU 0 instructions: 25000001 cycles: 12038868 heartbeat IPC: 2.20926 cumulative IPC: 2.07661 (Simulation time: 0 hr 14 min 7 sec) 
Heartbeat CPU 0 instructions: 26000003 cycles: 12531329 heartbeat IPC: 2.03062 cumulative IPC: 2.0748 (Simulation time: 0 hr 14 min 40 sec) 
Heartbeat CPU 0 instructions: 27000000 cycles: 13048440 heartbeat IPC: 1.93382 cumulative IPC: 2.06921 (Simulation time: 0 hr 15 min 14 sec) 
Heartbeat CPU 0 instructions: 28000000 cycles: 13507975 heartbeat IPC: 2.17611 cumulative IPC: 2.07285 (Simulation time: 0 hr 15 min 47 sec) 
Heartbeat CPU 0 instructions: 29000000 cycles: 13996805 heartbeat IPC: 2.0457 cumulative IPC: 2.0719 (Simulation time: 0 hr 16 min 26 sec) 
Heartbeat CPU 0 instructions: 30000000 cycles: 14450132 heartbeat IPC: 2.20591 cumulative IPC: 2.07611 (Simulation time: 0 hr 16 min 59 sec) 
Heartbeat CPU 0 instructions: 31000002 cycles: 14909186 heartbeat IPC: 2.1784 cumulative IPC: 2.07926 (Simulation time: 0 hr 17 min 32 sec) 
Heartbeat CPU 0 instructions: 32000000 cycles: 15367906 heartbeat IPC: 2.17997 cumulative IPC: 2.08226 (Simulation time: 0 hr 18 min 5 sec) 
Heartbeat CPU 0 instructions: 33000001 cycles: 15838732 heartbeat IPC: 2.12393 cumulative IPC: 2.0835 (Simulation time: 0 hr 18 min 40 sec) 
Heartbeat CPU 0 instructions: 34000001 cycles: 16348640 heartbeat IPC: 1.96114 cumulative IPC: 2.07968 (Simulation time: 0 hr 19 min 11 sec) 
Heartbeat CPU 0 instructions: 35000002 cycles: 16857504 heartbeat IPC: 1.96516 cumulative IPC: 2.07623 (Simulation time: 0 hr 19 min 43 sec) 
Heartbeat CPU 0 instructions: 36000000 cycles: 17330145 heartbeat IPC: 2.11577 cumulative IPC: 2.07731 (Simulation time: 0 hr 20 min 15 sec) 
Heartbeat CPU 0 instructions: 37000002 cycles: 17806453 heartbeat IPC: 2.09949 cumulative IPC: 2.0779 (Simulation time: 0 hr 20 min 47 sec) 
Heartbeat CPU 0 instructions: 38000001 cycles: 18249466 heartbeat IPC: 2.25727 cumulative IPC: 2.08225 (Simulation time: 0 hr 21 min 19 sec) 
Heartbeat CPU 0 instructions: 39000001 cycles: 18714248 heartbeat IPC: 2.15155 cumulative IPC: 2.08397 (Simulation time: 0 hr 21 min 52 sec) 
Heartbeat CPU 0 instructions: 40000000 cycles: 19224229 heartbeat IPC: 1.96086 cumulative IPC: 2.08071 (Simulation time: 0 hr 22 min 28 sec) 
Heartbeat CPU 0 instructions: 41000000 cycles: 19683518 heartbeat IPC: 2.17728 cumulative IPC: 2.08296 (Simulation time: 0 hr 23 min 2 sec) 
Heartbeat CPU 0 instructions: 42000000 cycles: 20163621 heartbeat IPC: 2.08289 cumulative IPC: 2.08296 (Simulation time: 0 hr 23 min 33 sec) 
Heartbeat CPU 0 instructions: 43000001 cycles: 20623115 heartbeat IPC: 2.17631 cumulative IPC: 2.08504 (Simulation time: 0 hr 24 min 3 sec) 
Heartbeat CPU 0 instructions: 44000000 cycles: 21114157 heartbeat IPC: 2.03648 cumulative IPC: 2.08391 (Simulation time: 0 hr 24 min 34 sec) 
Heartbeat CPU 0 instructions: 45000000 cycles: 21572975 heartbeat IPC: 2.17951 cumulative IPC: 2.08594 (Simulation time: 0 hr 25 min 5 sec) 
Heartbeat CPU 0 instructions: 46000000 cycles: 22064825 heartbeat IPC: 2.03314 cumulative IPC: 2.08477 (Simulation time: 0 hr 25 min 35 sec) 
Heartbeat CPU 0 instructions: 47000002 cycles: 22566796 heartbeat IPC: 1.99215 cumulative IPC: 2.08271 (Simulation time: 0 hr 26 min 10 sec) 
Heartbeat CPU 0 instructions: 48000000 cycles: 22999383 heartbeat IPC: 2.31167 cumulative IPC: 2.08701 (Simulation time: 0 hr 26 min 41 sec) 
Heartbeat CPU 0 instructions: 49000003 cycles: 23457705 heartbeat IPC: 2.18188 cumulative IPC: 2.08887 (Simulation time: 0 hr 27 min 13 sec) 
Heartbeat CPU 0 instructions: 50000001 cycles: 23889456 heartbeat IPC: 2.31615 cumulative IPC: 2.09297 (Simulation time: 0 hr 27 min 44 sec) 

Warmup complete CPU 0 instructions: 50000001 cycles: 23889456 (Simulation time: 0 hr 27 min 44 sec) 

Heartbeat CPU 0 instructions: 51000000 cycles: 24919105 heartbeat IPC: 0.971204 cumulative IPC: 0.971204 (Simulation time: 0 hr 28 min 10 sec) 
Heartbeat CPU 0 instructions: 52000000 cycles: 25937764 heartbeat IPC: 0.981683 cumulative IPC: 0.976415 (Simulation time: 0 hr 28 min 40 sec) 
Heartbeat CPU 0 instructions: 53000001 cycles: 26903584 heartbeat IPC: 1.03539 cumulative IPC: 0.995313 (Simulation time: 0 hr 29 min 10 sec) 
Heartbeat CPU 0 instructions: 54000001 cycles: 27910720 heartbeat IPC: 0.992915 cumulative IPC: 0.994712 (Simulation time: 0 hr 29 min 40 sec) 
Heartbeat CPU 0 instructions: 55000001 cycles: 29128082 heartbeat IPC: 0.821448 cumulative IPC: 0.954449 (Simulation time: 0 hr 30 min 11 sec) 
Heartbeat CPU 0 instructions: 56000000 cycles: 30311435 heartbeat IPC: 0.845056 cumulative IPC: 0.934291 (Simulation time: 0 hr 30 min 40 sec) 
Heartbeat CPU 0 instructions: 57000003 cycles: 31682352 heartbeat IPC: 0.729441 cumulative IPC: 0.898254 (Simulation time: 0 hr 31 min 10 sec) 
Heartbeat CPU 0 instructions: 58000001 cycles: 33260415 heartbeat IPC: 0.633687 cumulative IPC: 0.853701 (Simulation time: 0 hr 31 min 37 sec) 
Heartbeat CPU 0 instructions: 59000003 cycles: 34567641 heartbeat IPC: 0.76498 cumulative IPC: 0.84284 (Simulation time: 0 hr 32 min 5 sec) 
Heartbeat CPU 0 instructions: 60000000 cycles: 36141870 heartbeat IPC: 0.63523 cumulative IPC: 0.816166 (Simulation time: 0 hr 32 min 36 sec) 
Heartbeat CPU 0 instructions: 61000003 cycles: 37857395 heartbeat IPC: 0.582914 cumulative IPC: 0.787518 (Simulation time: 0 hr 33 min 3 sec) 
Heartbeat CPU 0 instructions: 62000002 cycles: 39402812 heartbeat IPC: 0.647074 cumulative IPC: 0.773527 (Simulation time: 0 hr 33 min 30 sec) 
Heartbeat CPU 0 instructions: 63000003 cycles: 40781327 heartbeat IPC: 0.725419 cumulative IPC: 0.769601 (Simulation time: 0 hr 34 min 0 sec) 
Heartbeat CPU 0 instructions: 64000000 cycles: 42348434 heartbeat IPC: 0.638117 cumulative IPC: 0.758438 (Simulation time: 0 hr 34 min 31 sec) 
Heartbeat CPU 0 instructions: 65000003 cycles: 43607426 heartbeat IPC: 0.794289 cumulative IPC: 0.760728 (Simulation time: 0 hr 35 min 0 sec) 
Heartbeat CPU 0 instructions: 66000000 cycles: 44925589 heartbeat IPC: 0.758629 cumulative IPC: 0.760596 (Simulation time: 0 hr 35 min 31 sec) 
Heartbeat CPU 0 instructions: 67000000 cycles: 45861601 heartbeat IPC: 1.06836 cumulative IPC: 0.773707 (Simulation time: 0 hr 36 min 0 sec) 
Heartbeat CPU 0 instructions: 68000000 cycles: 47262791 heartbeat IPC: 0.713679 cumulative IPC: 0.770108 (Simulation time: 0 hr 36 min 32 sec) 
Heartbeat CPU 0 instructions: 69000000 cycles: 48836516 heartbeat IPC: 0.635435 cumulative IPC: 0.761613 (Simulation time: 0 hr 36 min 58 sec) 
Heartbeat CPU 0 instructions: 70000002 cycles: 50299398 heartbeat IPC: 0.683583 cumulative IPC: 0.757291 (Simulation time: 0 hr 37 min 28 sec) 
Heartbeat CPU 0 instructions: 71000000 cycles: 51859643 heartbeat IPC: 0.640924 cumulative IPC: 0.750799 (Simulation time: 0 hr 37 min 59 sec) 
Heartbeat CPU 0 instructions: 72000000 cycles: 53232506 heartbeat IPC: 0.728405 cumulative IPC: 0.749752 (Simulation time: 0 hr 38 min 23 sec) 
Heartbeat CPU 0 instructions: 73000001 cycles: 54517655 heartbeat IPC: 0.778121 cumulative IPC: 0.750942 (Simulation time: 0 hr 38 min 49 sec) 
Heartbeat CPU 0 instructions: 74000000 cycles: 55659340 heartbeat IPC: 0.875897 cumulative IPC: 0.755432 (Simulation time: 0 hr 39 min 18 sec) 
Heartbeat CPU 0 instructions: 75000001 cycles: 57072606 heartbeat IPC: 0.707582 cumulative IPC: 0.753394 (Simulation time: 0 hr 39 min 47 sec) 
Heartbeat CPU 0 instructions: 76000000 cycles: 58209529 heartbeat IPC: 0.879566 cumulative IPC: 0.757574 (Simulation time: 0 hr 40 min 14 sec) 
Heartbeat CPU 0 instructions: 77000003 cycles: 59387520 heartbeat IPC: 0.848905 cumulative IPC: 0.760605 (Simulation time: 0 hr 40 min 41 sec) 
Heartbeat CPU 0 instructions: 78000000 cycles: 60719422 heartbeat IPC: 0.750804 cumulative IPC: 0.76025 (Simulation time: 0 hr 41 min 7 sec) 
Heartbeat CPU 0 instructions: 79000000 cycles: 62066461 heartbeat IPC: 0.742369 cumulative IPC: 0.75962 (Simulation time: 0 hr 41 min 36 sec) 
Heartbeat CPU 0 instructions: 80000000 cycles: 63453821 heartbeat IPC: 0.720793 cumulative IPC: 0.758258 (Simulation time: 0 hr 42 min 3 sec) 
Heartbeat CPU 0 instructions: 81000000 cycles: 65143920 heartbeat IPC: 0.591681 cumulative IPC: 0.751434 (Simulation time: 0 hr 42 min 33 sec) 
Heartbeat CPU 0 instructions: 82000002 cycles: 66689841 heartbeat IPC: 0.646865 cumulative IPC: 0.747657 (Simulation time: 0 hr 43 min 2 sec) 
Heartbeat CPU 0 instructions: 83000000 cycles: 67845442 heartbeat IPC: 0.865349 cumulative IPC: 0.750751 (Simulation time: 0 hr 43 min 37 sec) 
Heartbeat CPU 0 instructions: 84000000 cycles: 68803948 heartbeat IPC: 1.04329 cumulative IPC: 0.756994 (Simulation time: 0 hr 44 min 3 sec) 
Heartbeat CPU 0 instructions: 85000002 cycles: 69850643 heartbeat IPC: 0.95539 cumulative IPC: 0.761512 (Simulation time: 0 hr 44 min 30 sec) 
Heartbeat CPU 0 instructions: 86000002 cycles: 70826087 heartbeat IPC: 1.02517 cumulative IPC: 0.766992 (Simulation time: 0 hr 44 min 57 sec) 
Heartbeat CPU 0 instructions: 87000001 cycles: 71827040 heartbeat IPC: 0.999047 cumulative IPC: 0.771837 (Simulation time: 0 hr 45 min 26 sec) 
Heartbeat CPU 0 instructions: 88000000 cycles: 73122889 heartbeat IPC: 0.771694 cumulative IPC: 0.771833 (Simulation time: 0 hr 45 min 55 sec) 
Heartbeat CPU 0 instructions: 89000000 cycles: 74637574 heartbeat IPC: 0.660203 cumulative IPC: 0.768501 (Simulation time: 0 hr 46 min 28 sec) 
Heartbeat CPU 0 instructions: 90000002 cycles: 76124816 heartbeat IPC: 0.672387 cumulative IPC: 0.765765 (Simulation time: 0 hr 46 min 56 sec) 
Heartbeat CPU 0 instructions: 91000000 cycles: 77821119 heartbeat IPC: 0.589516 cumulative IPC: 0.760221 (Simulation time: 0 hr 47 min 29 sec) 
Heartbeat CPU 0 instructions: 92000000 cycles: 79314795 heartbeat IPC: 0.669489 cumulative IPC: 0.757776 (Simulation time: 0 hr 47 min 56 sec) 
Heartbeat CPU 0 instructions: 93000001 cycles: 80569158 heartbeat IPC: 0.797218 cumulative IPC: 0.758649 (Simulation time: 0 hr 48 min 26 sec) 
Heartbeat CPU 0 instructions: 94000000 cycles: 82303667 heartbeat IPC: 0.576531 cumulative IPC: 0.753241 (Simulation time: 0 hr 48 min 55 sec) 
Heartbeat CPU 0 instructions: 95000002 cycles: 83910813 heartbeat IPC: 0.622222 cumulative IPC: 0.749733 (Simulation time: 0 hr 49 min 24 sec) 
Heartbeat CPU 0 instructions: 96000000 cycles: 85516762 heartbeat IPC: 0.622684 cumulative IPC: 0.746422 (Simulation time: 0 hr 49 min 55 sec) 
Heartbeat CPU 0 instructions: 97000000 cycles: 86916079 heartbeat IPC: 0.714634 cumulative IPC: 0.745717 (Simulation time: 0 hr 50 min 21 sec) 
Heartbeat CPU 0 instructions: 98000000 cycles: 88198614 heartbeat IPC: 0.779706 cumulative IPC: 0.746394 (Simulation time: 0 hr 50 min 49 sec) 
Heartbeat CPU 0 instructions: 99000003 cycles: 89328675 heartbeat IPC: 0.884911 cumulative IPC: 0.748786 (Simulation time: 0 hr 51 min 28 sec) 
Heartbeat CPU 0 instructions: 100000000 cycles: 90804658 heartbeat IPC: 0.677513 cumulative IPC: 0.747214 (Simulation time: 0 hr 51 min 58 sec) 
Heartbeat CPU 0 instructions: 101000000 cycles: 92312434 heartbeat IPC: 0.663229 cumulative IPC: 0.745364 (Simulation time: 0 hr 52 min 26 sec) 
Heartbeat CPU 0 instructions: 102000001 cycles: 94010953 heartbeat IPC: 0.588749 cumulative IPC: 0.74157 (Simulation time: 0 hr 52 min 57 sec) 
Heartbeat CPU 0 instructions: 103000002 cycles: 95340661 heartbeat IPC: 0.752046 cumulative IPC: 0.741765 (Simulation time: 0 hr 53 min 35 sec) 
Heartbeat CPU 0 instructions: 104000000 cycles: 97047119 heartbeat IPC: 0.586008 cumulative IPC: 0.738132 (Simulation time: 0 hr 54 min 5 sec) 
Heartbeat CPU 0 instructions: 105000002 cycles: 98028813 heartbeat IPC: 1.01865 cumulative IPC: 0.741846 (Simulation time: 0 hr 54 min 36 sec) 
Heartbeat CPU 0 instructions: 106000000 cycles: 99567763 heartbeat IPC: 0.649792 cumulative IPC: 0.739974 (Simulation time: 0 hr 55 min 9 sec) 
Heartbeat CPU 0 instructions: 107000002 cycles: 101128986 heartbeat IPC: 0.640525 cumulative IPC: 0.737964 (Simulation time: 0 hr 55 min 36 sec) 
Heartbeat CPU 0 instructions: 108000000 cycles: 102476378 heartbeat IPC: 0.742173 cumulative IPC: 0.738036 (Simulation time: 0 hr 56 min 9 sec) 
Heartbeat CPU 0 instructions: 109000002 cycles: 104182497 heartbeat IPC: 0.586127 cumulative IPC: 0.734808 (Simulation time: 0 hr 56 min 37 sec) 
Heartbeat CPU 0 instructions: 110000000 cycles: 105419854 heartbeat IPC: 0.808173 cumulative IPC: 0.735922 (Simulation time: 0 hr 57 min 6 sec) 
Heartbeat CPU 0 instructions: 111000001 cycles: 106885337 heartbeat IPC: 0.68237 cumulative IPC: 0.734976 (Simulation time: 0 hr 57 min 34 sec) 
Heartbeat CPU 0 instructions: 112000000 cycles: 107994524 heartbeat IPC: 0.90156 cumulative IPC: 0.737173 (Simulation time: 0 hr 58 min 3 sec) 
Heartbeat CPU 0 instructions: 113000001 cycles: 108998334 heartbeat IPC: 0.996205 cumulative IPC: 0.740228 (Simulation time: 0 hr 58 min 29 sec) 
Heartbeat CPU 0 instructions: 114000001 cycles: 109894532 heartbeat IPC: 1.11582 cumulative IPC: 0.744142 (Simulation time: 0 hr 58 min 56 sec) 
Heartbeat CPU 0 instructions: 115000002 cycles: 110821365 heartbeat IPC: 1.07894 cumulative IPC: 0.747712 (Simulation time: 0 hr 59 min 22 sec) 
Heartbeat CPU 0 instructions: 116000000 cycles: 111948199 heartbeat IPC: 0.88744 cumulative IPC: 0.7495 (Simulation time: 0 hr 59 min 54 sec) 
Heartbeat CPU 0 instructions: 117000003 cycles: 113545910 heartbeat IPC: 0.625897 cumulative IPC: 0.747297 (Simulation time: 1 hr 0 min 22 sec) 
Heartbeat CPU 0 instructions: 118000003 cycles: 114881788 heartbeat IPC: 0.748571 cumulative IPC: 0.747316 (Simulation time: 1 hr 0 min 50 sec) 
Heartbeat CPU 0 instructions: 119000000 cycles: 115874804 heartbeat IPC: 1.00703 cumulative IPC: 0.750119 (Simulation time: 1 hr 1 min 18 sec) 
Heartbeat CPU 0 instructions: 120000000 cycles: 116938508 heartbeat IPC: 0.940111 cumulative IPC: 0.752291 (Simulation time: 1 hr 1 min 44 sec) 
Heartbeat CPU 0 instructions: 121000001 cycles: 118491338 heartbeat IPC: 0.643986 cumulative IPC: 0.750514 (Simulation time: 1 hr 2 min 12 sec) 
Heartbeat CPU 0 instructions: 122000002 cycles: 119747240 heartbeat IPC: 0.796241 cumulative IPC: 0.751113 (Simulation time: 1 hr 2 min 45 sec) 
Heartbeat CPU 0 instructions: 123000000 cycles: 121385459 heartbeat IPC: 0.610418 cumulative IPC: 0.748749 (Simulation time: 1 hr 3 min 13 sec) 
Heartbeat CPU 0 instructions: 124000000 cycles: 122802880 heartbeat IPC: 0.705507 cumulative IPC: 0.748129 (Simulation time: 1 hr 3 min 41 sec) 
Heartbeat CPU 0 instructions: 125000003 cycles: 124147037 heartbeat IPC: 0.743963 cumulative IPC: 0.748073 (Simulation time: 1 hr 4 min 9 sec) 
Heartbeat CPU 0 instructions: 126000000 cycles: 125163610 heartbeat IPC: 0.983694 cumulative IPC: 0.750438 (Simulation time: 1 hr 4 min 42 sec) 
Heartbeat CPU 0 instructions: 127000001 cycles: 126776165 heartbeat IPC: 0.620135 cumulative IPC: 0.748396 (Simulation time: 1 hr 5 min 10 sec) 
Heartbeat CPU 0 instructions: 128000000 cycles: 128405821 heartbeat IPC: 0.613626 cumulative IPC: 0.746295 (Simulation time: 1 hr 5 min 35 sec) 
Heartbeat CPU 0 instructions: 129000000 cycles: 130083353 heartbeat IPC: 0.596114 cumulative IPC: 0.743922 (Simulation time: 1 hr 6 min 2 sec) 
Heartbeat CPU 0 instructions: 130000002 cycles: 131328403 heartbeat IPC: 0.803182 cumulative IPC: 0.744609 (Simulation time: 1 hr 6 min 36 sec) 
Heartbeat CPU 0 instructions: 131000000 cycles: 132359284 heartbeat IPC: 0.970042 cumulative IPC: 0.746751 (Simulation time: 1 hr 7 min 7 sec) 
Heartbeat CPU 0 instructions: 132000000 cycles: 133560493 heartbeat IPC: 0.832495 cumulative IPC: 0.747691 (Simulation time: 1 hr 7 min 43 sec) 
Heartbeat CPU 0 instructions: 133000001 cycles: 134505582 heartbeat IPC: 1.0581 cumulative IPC: 0.750343 (Simulation time: 1 hr 8 min 15 sec) 
Heartbeat CPU 0 instructions: 134000000 cycles: 135570634 heartbeat IPC: 0.93892 cumulative IPC: 0.752141 (Simulation time: 1 hr 8 min 44 sec) 
Heartbeat CPU 0 instructions: 135000002 cycles: 136482534 heartbeat IPC: 1.09661 cumulative IPC: 0.754931 (Simulation time: 1 hr 9 min 13 sec) 
Heartbeat CPU 0 instructions: 136000000 cycles: 137388574 heartbeat IPC: 1.1037 cumulative IPC: 0.757715 (Simulation time: 1 hr 9 min 38 sec) 
Heartbeat CPU 0 instructions: 137000000 cycles: 138294914 heartbeat IPC: 1.10334 cumulative IPC: 0.760453 (Simulation time: 1 hr 10 min 2 sec) 
Heartbeat CPU 0 instructions: 138000000 cycles: 139112553 heartbeat IPC: 1.22303 cumulative IPC: 0.763736 (Simulation time: 1 hr 10 min 23 sec) 
Heartbeat CPU 0 instructions: 139000002 cycles: 139891075 heartbeat IPC: 1.28449 cumulative IPC: 0.767231 (Simulation time: 1 hr 10 min 47 sec) 
Heartbeat CPU 0 instructions: 140000000 cycles: 140645222 heartbeat IPC: 1.326 cumulative IPC: 0.77084 (Simulation time: 1 hr 11 min 9 sec) 
Heartbeat CPU 0 instructions: 141000003 cycles: 141440344 heartbeat IPC: 1.25767 cumulative IPC: 0.774133 (Simulation time: 1 hr 11 min 37 sec) 
Heartbeat CPU 0 instructions: 142000003 cycles: 142234767 heartbeat IPC: 1.25878 cumulative IPC: 0.777386 (Simulation time: 1 hr 11 min 58 sec) 
Heartbeat CPU 0 instructions: 143000002 cycles: 143024490 heartbeat IPC: 1.26627 cumulative IPC: 0.780627 (Simulation time: 1 hr 12 min 19 sec) 
Heartbeat CPU 0 instructions: 144000000 cycles: 143792155 heartbeat IPC: 1.30265 cumulative IPC: 0.783969 (Simulation time: 1 hr 12 min 40 sec) 
Heartbeat CPU 0 instructions: 145000002 cycles: 144511988 heartbeat IPC: 1.38921 cumulative IPC: 0.787581 (Simulation time: 1 hr 13 min 0 sec) 
Heartbeat CPU 0 instructions: 146000002 cycles: 145238074 heartbeat IPC: 1.37725 cumulative IPC: 0.791109 (Simulation time: 1 hr 13 min 21 sec) 
Heartbeat CPU 0 instructions: 147000003 cycles: 145963869 heartbeat IPC: 1.3778 cumulative IPC: 0.794597 (Simulation time: 1 hr 13 min 41 sec) 
Heartbeat CPU 0 instructions: 148000000 cycles: 146698578 heartbeat IPC: 1.36108 cumulative IPC: 0.797986 (Simulation time: 1 hr 14 min 1 sec) 
Heartbeat CPU 0 instructions: 149000003 cycles: 147452939 heartbeat IPC: 1.32563 cumulative IPC: 0.801208 (Simulation time: 1 hr 14 min 21 sec) 
Heartbeat CPU 0 instructions: 150000000 cycles: 148284017 heartbeat IPC: 1.20325 cumulative IPC: 0.803894 (Simulation time: 1 hr 14 min 43 sec) 
Finished CPU 0 instructions: 100000003 cycles: 124394563 cummulative IPC: 0.803894 (Simulation time: 1 hr 14 min 43 sec) 

ChampSim completed all CPUs

Region of Interest Statistics

CPU 0 cummulative IPC: 0.803894 instructions: 100000003 cycles: 124394563
LLC TOTAL     ACCESS:    1933487  HIT:    1764712  MISS:     168775
LLC LOAD      ACCESS:     554428  HIT:     534141  MISS:      20287
LLC RFO       ACCESS:     322488  HIT:     259245  MISS:      63243
LLC PREFETCH  ACCESS:     708251  HIT:     625640  MISS:      82611
LLC WRITEBACK ACCESS:     348320  HIT:     345686  MISS:       2634
OPTgen accesses: 18295
OPTgen hits: 21449
OPTgen hit rate: 117.24


