
*** ChampSim Multicore Out-of-Order Simulator ***

Warmup Instructions: 50000000
Simulation Instructions: 100000000
Configuration: 2
Number of CPUs: 1
LLC sets: 2048
LLC ways: 16
Off-chip DRAM Channels: 1 Width: 64-bit Data Rate: 1600 MT/s

CPU 0 runs /datasets/cs240c-wi22-a00-public/data/Assignment2-gz/cactusADM_1039B.trace.gz
CPU 0 L1D next line prefetcher
CPU 0 L2C IP-based stride prefetcher
Initialize Hawkeye state
Heartbeat CPU 0 instructions: 1000000 cycles: 595518 heartbeat IPC: 1.67921 cumulative IPC: 1.67921 (Simulation time: 0 hr 0 min 41 sec) 
Heartbeat CPU 0 instructions: 2000002 cycles: 1190937 heartbeat IPC: 1.67949 cumulative IPC: 1.67935 (Simulation time: 0 hr 1 min 28 sec) 
Heartbeat CPU 0 instructions: 3000003 cycles: 1786622 heartbeat IPC: 1.67874 cumulative IPC: 1.67915 (Simulation time: 0 hr 2 min 17 sec) 
Heartbeat CPU 0 instructions: 4000000 cycles: 2382046 heartbeat IPC: 1.67947 cumulative IPC: 1.67923 (Simulation time: 0 hr 3 min 7 sec) 
Heartbeat CPU 0 instructions: 5000001 cycles: 2977457 heartbeat IPC: 1.67951 cumulative IPC: 1.67929 (Simulation time: 0 hr 4 min 10 sec) 
Heartbeat CPU 0 instructions: 6000002 cycles: 3572930 heartbeat IPC: 1.67934 cumulative IPC: 1.67929 (Simulation time: 0 hr 5 min 3 sec) 
Heartbeat CPU 0 instructions: 7000000 cycles: 4168306 heartbeat IPC: 1.67961 cumulative IPC: 1.67934 (Simulation time: 0 hr 6 min 6 sec) 
Heartbeat CPU 0 instructions: 8000000 cycles: 4763681 heartbeat IPC: 1.67961 cumulative IPC: 1.67937 (Simulation time: 0 hr 7 min 2 sec) 
Heartbeat CPU 0 instructions: 9000002 cycles: 5359336 heartbeat IPC: 1.67883 cumulative IPC: 1.67931 (Simulation time: 0 hr 8 min 4 sec) 
Heartbeat CPU 0 instructions: 10000003 cycles: 5974113 heartbeat IPC: 1.62661 cumulative IPC: 1.67389 (Simulation time: 0 hr 8 min 51 sec) 
Heartbeat CPU 0 instructions: 11000002 cycles: 6713119 heartbeat IPC: 1.35317 cumulative IPC: 1.63858 (Simulation time: 0 hr 9 min 35 sec) 
Heartbeat CPU 0 instructions: 12000000 cycles: 7308556 heartbeat IPC: 1.67944 cumulative IPC: 1.64191 (Simulation time: 0 hr 10 min 17 sec) 
Heartbeat CPU 0 instructions: 13000002 cycles: 7904062 heartbeat IPC: 1.67925 cumulative IPC: 1.64472 (Simulation time: 0 hr 10 min 53 sec) 
Heartbeat CPU 0 instructions: 14000000 cycles: 8499708 heartbeat IPC: 1.67885 cumulative IPC: 1.64712 (Simulation time: 0 hr 11 min 33 sec) 
Heartbeat CPU 0 instructions: 15000000 cycles: 9094766 heartbeat IPC: 1.68051 cumulative IPC: 1.6493 (Simulation time: 0 hr 12 min 12 sec) 
Heartbeat CPU 0 instructions: 16000000 cycles: 9690358 heartbeat IPC: 1.679 cumulative IPC: 1.65113 (Simulation time: 0 hr 12 min 47 sec) 
Heartbeat CPU 0 instructions: 17000003 cycles: 10285948 heartbeat IPC: 1.67901 cumulative IPC: 1.65274 (Simulation time: 0 hr 13 min 24 sec) 
Heartbeat CPU 0 instructions: 18000001 cycles: 10881482 heartbeat IPC: 1.67916 cumulative IPC: 1.65419 (Simulation time: 0 hr 14 min 2 sec) 
Heartbeat CPU 0 instructions: 19000002 cycles: 11476857 heartbeat IPC: 1.67962 cumulative IPC: 1.65551 (Simulation time: 0 hr 14 min 40 sec) 
Heartbeat CPU 0 instructions: 20000000 cycles: 12072295 heartbeat IPC: 1.67943 cumulative IPC: 1.65669 (Simulation time: 0 hr 15 min 18 sec) 
Heartbeat CPU 0 instructions: 21000002 cycles: 12667982 heartbeat IPC: 1.67874 cumulative IPC: 1.65772 (Simulation time: 0 hr 15 min 56 sec) 
Heartbeat CPU 0 instructions: 22000002 cycles: 13263411 heartbeat IPC: 1.67946 cumulative IPC: 1.6587 (Simulation time: 0 hr 16 min 37 sec) 
Heartbeat CPU 0 instructions: 23000002 cycles: 13858854 heartbeat IPC: 1.67942 cumulative IPC: 1.65959 (Simulation time: 0 hr 17 min 14 sec) 
Heartbeat CPU 0 instructions: 24000000 cycles: 14614918 heartbeat IPC: 1.32264 cumulative IPC: 1.64216 (Simulation time: 0 hr 18 min 0 sec) 
Heartbeat CPU 0 instructions: 25000002 cycles: 15210197 heartbeat IPC: 1.67989 cumulative IPC: 1.64363 (Simulation time: 0 hr 18 min 46 sec) 
Heartbeat CPU 0 instructions: 26000001 cycles: 15805306 heartbeat IPC: 1.68036 cumulative IPC: 1.64502 (Simulation time: 0 hr 19 min 24 sec) 
Heartbeat CPU 0 instructions: 27000000 cycles: 16400559 heartbeat IPC: 1.67996 cumulative IPC: 1.64629 (Simulation time: 0 hr 20 min 1 sec) 
Heartbeat CPU 0 instructions: 28000000 cycles: 16995796 heartbeat IPC: 1.68 cumulative IPC: 1.64747 (Simulation time: 0 hr 20 min 38 sec) 
Heartbeat CPU 0 instructions: 29000000 cycles: 17591266 heartbeat IPC: 1.67935 cumulative IPC: 1.64855 (Simulation time: 0 hr 21 min 19 sec) 
Heartbeat CPU 0 instructions: 30000002 cycles: 18186432 heartbeat IPC: 1.68021 cumulative IPC: 1.64958 (Simulation time: 0 hr 21 min 59 sec) 
Heartbeat CPU 0 instructions: 31000001 cycles: 18781952 heartbeat IPC: 1.6792 cumulative IPC: 1.65052 (Simulation time: 0 hr 22 min 43 sec) 
Heartbeat CPU 0 instructions: 32000000 cycles: 19376902 heartbeat IPC: 1.68081 cumulative IPC: 1.65145 (Simulation time: 0 hr 23 min 23 sec) 
Heartbeat CPU 0 instructions: 33000001 cycles: 19972314 heartbeat IPC: 1.67951 cumulative IPC: 1.65229 (Simulation time: 0 hr 24 min 0 sec) 
Heartbeat CPU 0 instructions: 34000003 cycles: 20567369 heartbeat IPC: 1.68052 cumulative IPC: 1.6531 (Simulation time: 0 hr 24 min 39 sec) 
Heartbeat CPU 0 instructions: 35000001 cycles: 21162763 heartbeat IPC: 1.67956 cumulative IPC: 1.65385 (Simulation time: 0 hr 25 min 13 sec) 
Heartbeat CPU 0 instructions: 36000000 cycles: 21758154 heartbeat IPC: 1.67957 cumulative IPC: 1.65455 (Simulation time: 0 hr 25 min 50 sec) 
Heartbeat CPU 0 instructions: 37000002 cycles: 22515133 heartbeat IPC: 1.32104 cumulative IPC: 1.64334 (Simulation time: 0 hr 26 min 36 sec) 
Heartbeat CPU 0 instructions: 38000000 cycles: 23110279 heartbeat IPC: 1.68026 cumulative IPC: 1.64429 (Simulation time: 0 hr 27 min 17 sec) 
Heartbeat CPU 0 instructions: 39000002 cycles: 23705483 heartbeat IPC: 1.6801 cumulative IPC: 1.64519 (Simulation time: 0 hr 27 min 54 sec) 
Heartbeat CPU 0 instructions: 40000000 cycles: 24300721 heartbeat IPC: 1.68 cumulative IPC: 1.64604 (Simulation time: 0 hr 28 min 32 sec) 
Heartbeat CPU 0 instructions: 41000003 cycles: 24896153 heartbeat IPC: 1.67946 cumulative IPC: 1.64684 (Simulation time: 0 hr 29 min 10 sec) 
Heartbeat CPU 0 instructions: 42000001 cycles: 25491319 heartbeat IPC: 1.6802 cumulative IPC: 1.64762 (Simulation time: 0 hr 29 min 51 sec) 
Heartbeat CPU 0 instructions: 43000000 cycles: 26086696 heartbeat IPC: 1.67961 cumulative IPC: 1.64835 (Simulation time: 0 hr 30 min 30 sec) 
Heartbeat CPU 0 instructions: 44000000 cycles: 26681784 heartbeat IPC: 1.68042 cumulative IPC: 1.64907 (Simulation time: 0 hr 31 min 10 sec) 
Heartbeat CPU 0 instructions: 45000000 cycles: 27277260 heartbeat IPC: 1.67933 cumulative IPC: 1.64973 (Simulation time: 0 hr 31 min 48 sec) 
Heartbeat CPU 0 instructions: 46000003 cycles: 27872445 heartbeat IPC: 1.68015 cumulative IPC: 1.65038 (Simulation time: 0 hr 32 min 26 sec) 
Heartbeat CPU 0 instructions: 47000002 cycles: 28467570 heartbeat IPC: 1.68032 cumulative IPC: 1.651 (Simulation time: 0 hr 33 min 4 sec) 
Heartbeat CPU 0 instructions: 48000000 cycles: 29062562 heartbeat IPC: 1.68069 cumulative IPC: 1.65161 (Simulation time: 0 hr 33 min 41 sec) 
Heartbeat CPU 0 instructions: 49000001 cycles: 29657962 heartbeat IPC: 1.67954 cumulative IPC: 1.65217 (Simulation time: 0 hr 34 min 20 sec) 
Heartbeat CPU 0 instructions: 50000000 cycles: 30414986 heartbeat IPC: 1.32096 cumulative IPC: 1.64393 (Simulation time: 0 hr 35 min 3 sec) 

Warmup complete CPU 0 instructions: 50000004 cycles: 30414987 (Simulation time: 0 hr 35 min 3 sec) 

Heartbeat CPU 0 instructions: 51000003 cycles: 32178938 heartbeat IPC: 0.566911 cumulative IPC: 0.566909 (Simulation time: 0 hr 35 min 43 sec) 
Heartbeat CPU 0 instructions: 52000000 cycles: 33951619 heartbeat IPC: 0.564116 cumulative IPC: 0.565509 (Simulation time: 0 hr 36 min 25 sec) 
Heartbeat CPU 0 instructions: 53000003 cycles: 35722775 heartbeat IPC: 0.564605 cumulative IPC: 0.565207 (Simulation time: 0 hr 37 min 16 sec) 
Heartbeat CPU 0 instructions: 54000002 cycles: 37439451 heartbeat IPC: 0.582521 cumulative IPC: 0.569438 (Simulation time: 0 hr 38 min 3 sec) 
Heartbeat CPU 0 instructions: 55000001 cycles: 39166728 heartbeat IPC: 0.578945 cumulative IPC: 0.571315 (Simulation time: 0 hr 38 min 42 sec) 
Heartbeat CPU 0 instructions: 56000000 cycles: 40938229 heartbeat IPC: 0.564492 cumulative IPC: 0.570166 (Simulation time: 0 hr 39 min 21 sec) 
Heartbeat CPU 0 instructions: 57000000 cycles: 42713124 heartbeat IPC: 0.563414 cumulative IPC: 0.569192 (Simulation time: 0 hr 40 min 0 sec) 
Heartbeat CPU 0 instructions: 58000000 cycles: 44479676 heartbeat IPC: 0.566074 cumulative IPC: 0.5688 (Simulation time: 0 hr 40 min 41 sec) 
Heartbeat CPU 0 instructions: 59000002 cycles: 46167480 heartbeat IPC: 0.592487 cumulative IPC: 0.571338 (Simulation time: 0 hr 41 min 20 sec) 
Heartbeat CPU 0 instructions: 60000000 cycles: 47927400 heartbeat IPC: 0.568206 cumulative IPC: 0.571023 (Simulation time: 0 hr 41 min 58 sec) 
Heartbeat CPU 0 instructions: 61000001 cycles: 49701873 heartbeat IPC: 0.563548 cumulative IPC: 0.570336 (Simulation time: 0 hr 42 min 41 sec) 
Heartbeat CPU 0 instructions: 62000000 cycles: 51476408 heartbeat IPC: 0.563527 cumulative IPC: 0.569762 (Simulation time: 0 hr 43 min 26 sec) 
Heartbeat CPU 0 instructions: 63000001 cycles: 57679441 heartbeat IPC: 0.161212 cumulative IPC: 0.476811 (Simulation time: 0 hr 44 min 18 sec) 
Heartbeat CPU 0 instructions: 64000000 cycles: 59947695 heartbeat IPC: 0.440867 cumulative IPC: 0.474051 (Simulation time: 0 hr 45 min 1 sec) 
Heartbeat CPU 0 instructions: 65000002 cycles: 61719331 heartbeat IPC: 0.564451 cumulative IPC: 0.479167 (Simulation time: 0 hr 45 min 44 sec) 
Heartbeat CPU 0 instructions: 66000001 cycles: 63490777 heartbeat IPC: 0.56451 cumulative IPC: 0.483737 (Simulation time: 0 hr 46 min 26 sec) 
Heartbeat CPU 0 instructions: 67000003 cycles: 65257035 heartbeat IPC: 0.56617 cumulative IPC: 0.487916 (Simulation time: 0 hr 47 min 6 sec) 
Heartbeat CPU 0 instructions: 68000000 cycles: 66983263 heartbeat IPC: 0.579296 cumulative IPC: 0.49223 (Simulation time: 0 hr 47 min 44 sec) 
Heartbeat CPU 0 instructions: 69000003 cycles: 68761321 heartbeat IPC: 0.562413 cumulative IPC: 0.495484 (Simulation time: 0 hr 48 min 30 sec) 
Heartbeat CPU 0 instructions: 70000002 cycles: 70533105 heartbeat IPC: 0.564402 cumulative IPC: 0.498528 (Simulation time: 0 hr 49 min 9 sec) 
Heartbeat CPU 0 instructions: 71000000 cycles: 72305340 heartbeat IPC: 0.564258 cumulative IPC: 0.501309 (Simulation time: 0 hr 49 min 50 sec) 
Heartbeat CPU 0 instructions: 72000000 cycles: 74052879 heartbeat IPC: 0.572233 cumulative IPC: 0.504149 (Simulation time: 0 hr 50 min 31 sec) 
Heartbeat CPU 0 instructions: 73000001 cycles: 75753550 heartbeat IPC: 0.588004 cumulative IPC: 0.507294 (Simulation time: 0 hr 51 min 13 sec) 
Heartbeat CPU 0 instructions: 74000003 cycles: 77521535 heartbeat IPC: 0.565617 cumulative IPC: 0.509483 (Simulation time: 0 hr 51 min 59 sec) 
Heartbeat CPU 0 instructions: 75000002 cycles: 79295599 heartbeat IPC: 0.563677 cumulative IPC: 0.51145 (Simulation time: 0 hr 52 min 44 sec) 
Heartbeat CPU 0 instructions: 76000000 cycles: 84555963 heartbeat IPC: 0.190101 cumulative IPC: 0.480228 (Simulation time: 0 hr 53 min 31 sec) 
Heartbeat CPU 0 instructions: 77000001 cycles: 87717756 heartbeat IPC: 0.316277 cumulative IPC: 0.471181 (Simulation time: 0 hr 54 min 14 sec) 
Heartbeat CPU 0 instructions: 78000000 cycles: 89466256 heartbeat IPC: 0.571918 cumulative IPC: 0.474164 (Simulation time: 0 hr 54 min 55 sec) 
Heartbeat CPU 0 instructions: 79000002 cycles: 91236695 heartbeat IPC: 0.564833 cumulative IPC: 0.476803 (Simulation time: 0 hr 55 min 36 sec) 
Heartbeat CPU 0 instructions: 80000000 cycles: 93006939 heartbeat IPC: 0.564893 cumulative IPC: 0.479295 (Simulation time: 0 hr 56 min 17 sec) 
Heartbeat CPU 0 instructions: 81000002 cycles: 94755092 heartbeat IPC: 0.572033 cumulative IPC: 0.481815 (Simulation time: 0 hr 56 min 58 sec) 
Heartbeat CPU 0 instructions: 82000002 cycles: 96449631 heartbeat IPC: 0.590131 cumulative IPC: 0.484594 (Simulation time: 0 hr 57 min 39 sec) 
Heartbeat CPU 0 instructions: 83000003 cycles: 98215251 heartbeat IPC: 0.566374 cumulative IPC: 0.486724 (Simulation time: 0 hr 58 min 20 sec) 
Heartbeat CPU 0 instructions: 84000000 cycles: 99984247 heartbeat IPC: 0.565291 cumulative IPC: 0.488722 (Simulation time: 0 hr 59 min 0 sec) 
Heartbeat CPU 0 instructions: 85000002 cycles: 101754390 heartbeat IPC: 0.564927 cumulative IPC: 0.490612 (Simulation time: 0 hr 59 min 42 sec) 
Heartbeat CPU 0 instructions: 86000003 cycles: 103468310 heartbeat IPC: 0.583458 cumulative IPC: 0.492791 (Simulation time: 1 hr 0 min 22 sec) 
Heartbeat CPU 0 instructions: 87000000 cycles: 105210275 heartbeat IPC: 0.574063 cumulative IPC: 0.494684 (Simulation time: 1 hr 1 min 4 sec) 
Heartbeat CPU 0 instructions: 88000000 cycles: 106980102 heartbeat IPC: 0.565027 cumulative IPC: 0.49631 (Simulation time: 1 hr 1 min 46 sec) 
Heartbeat CPU 0 instructions: 89000001 cycles: 111306925 heartbeat IPC: 0.231117 cumulative IPC: 0.482125 (Simulation time: 1 hr 2 min 33 sec) 
Heartbeat CPU 0 instructions: 90000002 cycles: 115424912 heartbeat IPC: 0.242837 cumulative IPC: 0.470533 (Simulation time: 1 hr 3 min 24 sec) 
Heartbeat CPU 0 instructions: 91000000 cycles: 117118244 heartbeat IPC: 0.59055 cumulative IPC: 0.472877 (Simulation time: 1 hr 4 min 10 sec) 
Heartbeat CPU 0 instructions: 92000000 cycles: 118880650 heartbeat IPC: 0.567406 cumulative IPC: 0.47476 (Simulation time: 1 hr 4 min 54 sec) 
Heartbeat CPU 0 instructions: 93000001 cycles: 120651234 heartbeat IPC: 0.564786 cumulative IPC: 0.476527 (Simulation time: 1 hr 5 min 31 sec) 
Heartbeat CPU 0 instructions: 94000003 cycles: 122425126 heartbeat IPC: 0.563733 cumulative IPC: 0.478208 (Simulation time: 1 hr 6 min 11 sec) 
Heartbeat CPU 0 instructions: 95000001 cycles: 124144423 heartbeat IPC: 0.581632 cumulative IPC: 0.480105 (Simulation time: 1 hr 6 min 50 sec) 
Heartbeat CPU 0 instructions: 96000000 cycles: 125864461 heartbeat IPC: 0.581382 cumulative IPC: 0.48193 (Simulation time: 1 hr 7 min 36 sec) 
Heartbeat CPU 0 instructions: 97000002 cycles: 127632624 heartbeat IPC: 0.56556 cumulative IPC: 0.483451 (Simulation time: 1 hr 8 min 16 sec) 
Heartbeat CPU 0 instructions: 98000000 cycles: 129405901 heartbeat IPC: 0.563927 cumulative IPC: 0.484893 (Simulation time: 1 hr 8 min 56 sec) 
Heartbeat CPU 0 instructions: 99000002 cycles: 131173711 heartbeat IPC: 0.565673 cumulative IPC: 0.48631 (Simulation time: 1 hr 9 min 34 sec) 
Heartbeat CPU 0 instructions: 100000000 cycles: 132864599 heartbeat IPC: 0.591404 cumulative IPC: 0.488045 (Simulation time: 1 hr 10 min 12 sec) 
Heartbeat CPU 0 instructions: 101000002 cycles: 134619865 heartbeat IPC: 0.569715 cumulative IPC: 0.48942 (Simulation time: 1 hr 10 min 51 sec) 
Heartbeat CPU 0 instructions: 102000000 cycles: 137966253 heartbeat IPC: 0.298829 cumulative IPC: 0.48349 (Simulation time: 1 hr 11 min 29 sec) 
Heartbeat CPU 0 instructions: 103000002 cycles: 143078150 heartbeat IPC: 0.195622 cumulative IPC: 0.470429 (Simulation time: 1 hr 12 min 9 sec) 
Heartbeat CPU 0 instructions: 104000000 cycles: 144803163 heartbeat IPC: 0.579705 cumulative IPC: 0.472077 (Simulation time: 1 hr 12 min 43 sec) 
Heartbeat CPU 0 instructions: 105000002 cycles: 146518181 heartbeat IPC: 0.583085 cumulative IPC: 0.473716 (Simulation time: 1 hr 13 min 16 sec) 
Heartbeat CPU 0 instructions: 106000001 cycles: 148290318 heartbeat IPC: 0.56429 cumulative IPC: 0.475078 (Simulation time: 1 hr 13 min 52 sec) 
Heartbeat CPU 0 instructions: 107000003 cycles: 150060316 heartbeat IPC: 0.564974 cumulative IPC: 0.476408 (Simulation time: 1 hr 14 min 25 sec) 
Heartbeat CPU 0 instructions: 108000000 cycles: 151828774 heartbeat IPC: 0.565463 cumulative IPC: 0.477705 (Simulation time: 1 hr 14 min 56 sec) 
Heartbeat CPU 0 instructions: 109000003 cycles: 153525451 heartbeat IPC: 0.589389 cumulative IPC: 0.479244 (Simulation time: 1 hr 15 min 25 sec) 
Heartbeat CPU 0 instructions: 110000002 cycles: 155274850 heartbeat IPC: 0.571624 cumulative IPC: 0.480539 (Simulation time: 1 hr 15 min 55 sec) 
Heartbeat CPU 0 instructions: 111000002 cycles: 157046316 heartbeat IPC: 0.564504 cumulative IPC: 0.481713 (Simulation time: 1 hr 16 min 23 sec) 
Heartbeat CPU 0 instructions: 112000000 cycles: 158817591 heartbeat IPC: 0.564564 cumulative IPC: 0.482856 (Simulation time: 1 hr 16 min 50 sec) 
Heartbeat CPU 0 instructions: 113000002 cycles: 160574644 heartbeat IPC: 0.569136 cumulative IPC: 0.484021 (Simulation time: 1 hr 17 min 16 sec) 
Heartbeat CPU 0 instructions: 114000002 cycles: 162266948 heartbeat IPC: 0.59091 cumulative IPC: 0.485393 (Simulation time: 1 hr 17 min 39 sec) 
Heartbeat CPU 0 instructions: 115000001 cycles: 164701011 heartbeat IPC: 0.410835 cumulative IPC: 0.484041 (Simulation time: 1 hr 18 min 2 sec) 
Heartbeat CPU 0 instructions: 116000000 cycles: 170713214 heartbeat IPC: 0.166328 cumulative IPC: 0.470426 (Simulation time: 1 hr 18 min 30 sec) 
Heartbeat CPU 0 instructions: 117000003 cycles: 172484480 heartbeat IPC: 0.56457 cumulative IPC: 0.4716 (Simulation time: 1 hr 18 min 53 sec) 
Heartbeat CPU 0 instructions: 118000001 cycles: 174185342 heartbeat IPC: 0.587936 cumulative IPC: 0.472976 (Simulation time: 1 hr 19 min 19 sec) 
Heartbeat CPU 0 instructions: 119000001 cycles: 175927824 heartbeat IPC: 0.573894 cumulative IPC: 0.474185 (Simulation time: 1 hr 19 min 43 sec) 
Heartbeat CPU 0 instructions: 120000000 cycles: 177699320 heartbeat IPC: 0.564494 cumulative IPC: 0.475271 (Simulation time: 1 hr 20 min 6 sec) 
Heartbeat CPU 0 instructions: 121000000 cycles: 179472881 heartbeat IPC: 0.563837 cumulative IPC: 0.476325 (Simulation time: 1 hr 20 min 29 sec) 
Heartbeat CPU 0 instructions: 122000003 cycles: 181232494 heartbeat IPC: 0.568308 cumulative IPC: 0.477398 (Simulation time: 1 hr 20 min 51 sec) 
Heartbeat CPU 0 instructions: 123000002 cycles: 182922596 heartbeat IPC: 0.59168 cumulative IPC: 0.478665 (Simulation time: 1 hr 21 min 12 sec) 
Heartbeat CPU 0 instructions: 124000000 cycles: 184691137 heartbeat IPC: 0.565437 cumulative IPC: 0.479659 (Simulation time: 1 hr 21 min 32 sec) 
Heartbeat CPU 0 instructions: 125000001 cycles: 186461132 heartbeat IPC: 0.564974 cumulative IPC: 0.480627 (Simulation time: 1 hr 21 min 54 sec) 
Heartbeat CPU 0 instructions: 126000000 cycles: 188231950 heartbeat IPC: 0.56471 cumulative IPC: 0.481571 (Simulation time: 1 hr 22 min 14 sec) 
Heartbeat CPU 0 instructions: 127000003 cycles: 189957444 heartbeat IPC: 0.579546 cumulative IPC: 0.48263 (Simulation time: 1 hr 22 min 34 sec) 
Heartbeat CPU 0 instructions: 128000000 cycles: 191731672 heartbeat IPC: 0.563624 cumulative IPC: 0.483521 (Simulation time: 1 hr 22 min 54 sec) 
Heartbeat CPU 0 instructions: 129000001 cycles: 198599558 heartbeat IPC: 0.145605 cumulative IPC: 0.469722 (Simulation time: 1 hr 23 min 18 sec) 
Heartbeat CPU 0 instructions: 130000002 cycles: 208134368 heartbeat IPC: 0.104879 cumulative IPC: 0.450148 (Simulation time: 1 hr 23 min 43 sec) 
Heartbeat CPU 0 instructions: 131000002 cycles: 212085780 heartbeat IPC: 0.253074 cumulative IPC: 0.445861 (Simulation time: 1 hr 24 min 4 sec) 
Heartbeat CPU 0 instructions: 132000000 cycles: 213864108 heartbeat IPC: 0.562325 cumulative IPC: 0.44699 (Simulation time: 1 hr 24 min 20 sec) 
Heartbeat CPU 0 instructions: 133000000 cycles: 215565025 heartbeat IPC: 0.587918 cumulative IPC: 0.448285 (Simulation time: 1 hr 24 min 35 sec) 
Heartbeat CPU 0 instructions: 134000003 cycles: 217335383 heartbeat IPC: 0.564859 cumulative IPC: 0.449389 (Simulation time: 1 hr 24 min 49 sec) 
Heartbeat CPU 0 instructions: 135000002 cycles: 219121807 heartbeat IPC: 0.559777 cumulative IPC: 0.450434 (Simulation time: 1 hr 25 min 4 sec) 
Heartbeat CPU 0 instructions: 136000000 cycles: 220913331 heartbeat IPC: 0.558183 cumulative IPC: 0.451447 (Simulation time: 1 hr 25 min 18 sec) 
Heartbeat CPU 0 instructions: 137000001 cycles: 222665982 heartbeat IPC: 0.570565 cumulative IPC: 0.452533 (Simulation time: 1 hr 25 min 32 sec) 
Heartbeat CPU 0 instructions: 138000001 cycles: 224379130 heartbeat IPC: 0.583721 cumulative IPC: 0.453692 (Simulation time: 1 hr 25 min 47 sec) 
Heartbeat CPU 0 instructions: 139000003 cycles: 226159097 heartbeat IPC: 0.561809 cumulative IPC: 0.454675 (Simulation time: 1 hr 26 min 1 sec) 
Heartbeat CPU 0 instructions: 140000000 cycles: 227948954 heartbeat IPC: 0.558702 cumulative IPC: 0.455618 (Simulation time: 1 hr 26 min 15 sec) 
Heartbeat CPU 0 instructions: 141000003 cycles: 229734353 heartbeat IPC: 0.560101 cumulative IPC: 0.456554 (Simulation time: 1 hr 26 min 28 sec) 
Heartbeat CPU 0 instructions: 142000003 cycles: 231455312 heartbeat IPC: 0.581071 cumulative IPC: 0.45762 (Simulation time: 1 hr 26 min 41 sec) 
Heartbeat CPU 0 instructions: 143000002 cycles: 235348016 heartbeat IPC: 0.256891 cumulative IPC: 0.453807 (Simulation time: 1 hr 26 min 54 sec) 
Heartbeat CPU 0 instructions: 144000000 cycles: 240303603 heartbeat IPC: 0.201792 cumulative IPC: 0.447857 (Simulation time: 1 hr 27 min 6 sec) 
Heartbeat CPU 0 instructions: 145000003 cycles: 242043621 heartbeat IPC: 0.574708 cumulative IPC: 0.4489 (Simulation time: 1 hr 27 min 17 sec) 
Heartbeat CPU 0 instructions: 146000001 cycles: 243747388 heartbeat IPC: 0.586934 cumulative IPC: 0.450002 (Simulation time: 1 hr 27 min 25 sec) 
Heartbeat CPU 0 instructions: 147000001 cycles: 245411365 heartbeat IPC: 0.60097 cumulative IPC: 0.45117 (Simulation time: 1 hr 27 min 32 sec) 
Heartbeat CPU 0 instructions: 148000000 cycles: 247148186 heartbeat IPC: 0.575764 cumulative IPC: 0.452169 (Simulation time: 1 hr 27 min 39 sec) 
Heartbeat CPU 0 instructions: 149000000 cycles: 248885876 heartbeat IPC: 0.575477 cumulative IPC: 0.45315 (Simulation time: 1 hr 27 min 47 sec) 
Heartbeat CPU 0 instructions: 150000002 cycles: 250623507 heartbeat IPC: 0.575497 cumulative IPC: 0.454115 (Simulation time: 1 hr 27 min 55 sec) 
Finished CPU 0 instructions: 100000002 cycles: 220208521 cummulative IPC: 0.454115 (Simulation time: 1 hr 27 min 55 sec) 

ChampSim completed all CPUs

Region of Interest Statistics

CPU 0 cummulative IPC: 0.454115 instructions: 100000002 cycles: 220208521
LLC TOTAL     ACCESS:    1242638  HIT:     325741  MISS:     916897
LLC LOAD      ACCESS:      28201  HIT:       3184  MISS:      25017
LLC RFO       ACCESS:     290712  HIT:      85532  MISS:     205180
LLC PREFETCH  ACCESS:     631331  HIT:     108034  MISS:     523297
LLC WRITEBACK ACCESS:     292394  HIT:     128991  MISS:     163403
OPTgen accesses: 7334
OPTgen hits: 2625
OPTgen hit rate: 35.7922


