
*** ChampSim Multicore Out-of-Order Simulator ***

Warmup Instructions: 50000000
Simulation Instructions: 100000000
Configuration: 2
Number of CPUs: 1
LLC sets: 2048
LLC ways: 16
Off-chip DRAM Channels: 1 Width: 64-bit Data Rate: 1600 MT/s

CPU 0 runs /datasets/cs240c-wi22-a00-public/data/Assignment2-gz/omnetpp_4B.trace.gz
CPU 0 L1D next line prefetcher
CPU 0 L2C IP-based stride prefetcher
Initialize Hawkeye state
Heartbeat CPU 0 instructions: 1000001 cycles: 566981 heartbeat IPC: 1.76373 cumulative IPC: 1.76373 (Simulation time: 0 hr 0 min 31 sec) 
Heartbeat CPU 0 instructions: 2000001 cycles: 1135674 heartbeat IPC: 1.75842 cumulative IPC: 1.76107 (Simulation time: 0 hr 1 min 1 sec) 
Heartbeat CPU 0 instructions: 3000001 cycles: 1722678 heartbeat IPC: 1.70357 cumulative IPC: 1.74148 (Simulation time: 0 hr 1 min 30 sec) 
Heartbeat CPU 0 instructions: 4000000 cycles: 2292033 heartbeat IPC: 1.75637 cumulative IPC: 1.74518 (Simulation time: 0 hr 1 min 57 sec) 
Heartbeat CPU 0 instructions: 5000000 cycles: 2866274 heartbeat IPC: 1.74143 cumulative IPC: 1.74442 (Simulation time: 0 hr 2 min 24 sec) 
Heartbeat CPU 0 instructions: 6000000 cycles: 3442515 heartbeat IPC: 1.73539 cumulative IPC: 1.74291 (Simulation time: 0 hr 2 min 53 sec) 
Heartbeat CPU 0 instructions: 7000000 cycles: 4011853 heartbeat IPC: 1.75643 cumulative IPC: 1.74483 (Simulation time: 0 hr 3 min 21 sec) 
Heartbeat CPU 0 instructions: 8000000 cycles: 4565403 heartbeat IPC: 1.80652 cumulative IPC: 1.75231 (Simulation time: 0 hr 3 min 50 sec) 
Heartbeat CPU 0 instructions: 9000001 cycles: 5147571 heartbeat IPC: 1.71772 cumulative IPC: 1.7484 (Simulation time: 0 hr 4 min 21 sec) 
Heartbeat CPU 0 instructions: 10000000 cycles: 5701630 heartbeat IPC: 1.80486 cumulative IPC: 1.75388 (Simulation time: 0 hr 4 min 50 sec) 
Heartbeat CPU 0 instructions: 11000000 cycles: 6288849 heartbeat IPC: 1.70294 cumulative IPC: 1.74913 (Simulation time: 0 hr 5 min 21 sec) 
Heartbeat CPU 0 instructions: 12000000 cycles: 6939931 heartbeat IPC: 1.5359 cumulative IPC: 1.72912 (Simulation time: 0 hr 5 min 48 sec) 
Heartbeat CPU 0 instructions: 13000002 cycles: 7587117 heartbeat IPC: 1.54515 cumulative IPC: 1.71343 (Simulation time: 0 hr 6 min 15 sec) 
Heartbeat CPU 0 instructions: 14000000 cycles: 8237618 heartbeat IPC: 1.53727 cumulative IPC: 1.69952 (Simulation time: 0 hr 6 min 41 sec) 
Heartbeat CPU 0 instructions: 15000000 cycles: 8891149 heartbeat IPC: 1.53015 cumulative IPC: 1.68707 (Simulation time: 0 hr 7 min 7 sec) 
Heartbeat CPU 0 instructions: 16000000 cycles: 9461624 heartbeat IPC: 1.75293 cumulative IPC: 1.69104 (Simulation time: 0 hr 7 min 37 sec) 
Heartbeat CPU 0 instructions: 17000000 cycles: 10043642 heartbeat IPC: 1.71816 cumulative IPC: 1.69261 (Simulation time: 0 hr 8 min 6 sec) 
Heartbeat CPU 0 instructions: 18000000 cycles: 10615175 heartbeat IPC: 1.74968 cumulative IPC: 1.69569 (Simulation time: 0 hr 8 min 36 sec) 
Heartbeat CPU 0 instructions: 19000002 cycles: 11183975 heartbeat IPC: 1.75809 cumulative IPC: 1.69886 (Simulation time: 0 hr 9 min 6 sec) 
Heartbeat CPU 0 instructions: 20000000 cycles: 11731730 heartbeat IPC: 1.82563 cumulative IPC: 1.70478 (Simulation time: 0 hr 9 min 35 sec) 
Heartbeat CPU 0 instructions: 21000000 cycles: 12279967 heartbeat IPC: 1.82403 cumulative IPC: 1.7101 (Simulation time: 0 hr 10 min 6 sec) 
Heartbeat CPU 0 instructions: 22000001 cycles: 12832944 heartbeat IPC: 1.8084 cumulative IPC: 1.71434 (Simulation time: 0 hr 10 min 32 sec) 
Heartbeat CPU 0 instructions: 23000000 cycles: 13414563 heartbeat IPC: 1.71934 cumulative IPC: 1.71455 (Simulation time: 0 hr 11 min 0 sec) 
Heartbeat CPU 0 instructions: 24000000 cycles: 13984372 heartbeat IPC: 1.75497 cumulative IPC: 1.7162 (Simulation time: 0 hr 11 min 30 sec) 
Heartbeat CPU 0 instructions: 25000000 cycles: 14547264 heartbeat IPC: 1.77654 cumulative IPC: 1.71854 (Simulation time: 0 hr 11 min 58 sec) 
Heartbeat CPU 0 instructions: 26000001 cycles: 15116856 heartbeat IPC: 1.75564 cumulative IPC: 1.71993 (Simulation time: 0 hr 12 min 28 sec) 
Heartbeat CPU 0 instructions: 27000001 cycles: 15683574 heartbeat IPC: 1.76455 cumulative IPC: 1.72155 (Simulation time: 0 hr 12 min 58 sec) 
Heartbeat CPU 0 instructions: 28000000 cycles: 16252815 heartbeat IPC: 1.75672 cumulative IPC: 1.72278 (Simulation time: 0 hr 13 min 28 sec) 
Heartbeat CPU 0 instructions: 29000000 cycles: 16839222 heartbeat IPC: 1.7053 cumulative IPC: 1.72217 (Simulation time: 0 hr 13 min 57 sec) 
Heartbeat CPU 0 instructions: 30000000 cycles: 17410024 heartbeat IPC: 1.75192 cumulative IPC: 1.72315 (Simulation time: 0 hr 14 min 26 sec) 
Heartbeat CPU 0 instructions: 31000000 cycles: 17985641 heartbeat IPC: 1.73727 cumulative IPC: 1.7236 (Simulation time: 0 hr 14 min 57 sec) 
Heartbeat CPU 0 instructions: 32000000 cycles: 18555488 heartbeat IPC: 1.75486 cumulative IPC: 1.72456 (Simulation time: 0 hr 15 min 27 sec) 
Heartbeat CPU 0 instructions: 33000000 cycles: 19114147 heartbeat IPC: 1.79 cumulative IPC: 1.72647 (Simulation time: 0 hr 15 min 57 sec) 
Heartbeat CPU 0 instructions: 34000001 cycles: 19666809 heartbeat IPC: 1.80943 cumulative IPC: 1.7288 (Simulation time: 0 hr 16 min 26 sec) 
Heartbeat CPU 0 instructions: 35000001 cycles: 20247878 heartbeat IPC: 1.72097 cumulative IPC: 1.72858 (Simulation time: 0 hr 16 min 57 sec) 
Heartbeat CPU 0 instructions: 36000000 cycles: 20803627 heartbeat IPC: 1.79937 cumulative IPC: 1.73047 (Simulation time: 0 hr 17 min 25 sec) 
Heartbeat CPU 0 instructions: 37000001 cycles: 21375886 heartbeat IPC: 1.74746 cumulative IPC: 1.73092 (Simulation time: 0 hr 17 min 53 sec) 
Heartbeat CPU 0 instructions: 38000001 cycles: 21936431 heartbeat IPC: 1.78398 cumulative IPC: 1.73228 (Simulation time: 0 hr 18 min 23 sec) 
Heartbeat CPU 0 instructions: 39000001 cycles: 22549303 heartbeat IPC: 1.63166 cumulative IPC: 1.72954 (Simulation time: 0 hr 18 min 52 sec) 
Heartbeat CPU 0 instructions: 40000000 cycles: 23198308 heartbeat IPC: 1.54082 cumulative IPC: 1.72426 (Simulation time: 0 hr 19 min 19 sec) 
Heartbeat CPU 0 instructions: 41000001 cycles: 23847264 heartbeat IPC: 1.54094 cumulative IPC: 1.71927 (Simulation time: 0 hr 19 min 44 sec) 
Heartbeat CPU 0 instructions: 42000001 cycles: 24494188 heartbeat IPC: 1.54578 cumulative IPC: 1.71469 (Simulation time: 0 hr 20 min 10 sec) 
Heartbeat CPU 0 instructions: 43000000 cycles: 25162852 heartbeat IPC: 1.49552 cumulative IPC: 1.70887 (Simulation time: 0 hr 20 min 40 sec) 
Heartbeat CPU 0 instructions: 44000000 cycles: 25726687 heartbeat IPC: 1.77357 cumulative IPC: 1.71029 (Simulation time: 0 hr 21 min 8 sec) 
Heartbeat CPU 0 instructions: 45000000 cycles: 26290454 heartbeat IPC: 1.77378 cumulative IPC: 1.71165 (Simulation time: 0 hr 21 min 39 sec) 
Heartbeat CPU 0 instructions: 46000000 cycles: 26836686 heartbeat IPC: 1.83072 cumulative IPC: 1.71407 (Simulation time: 0 hr 22 min 7 sec) 
Heartbeat CPU 0 instructions: 47000000 cycles: 27382892 heartbeat IPC: 1.83081 cumulative IPC: 1.7164 (Simulation time: 0 hr 22 min 35 sec) 
Heartbeat CPU 0 instructions: 48000000 cycles: 27934443 heartbeat IPC: 1.81307 cumulative IPC: 1.71831 (Simulation time: 0 hr 23 min 3 sec) 
Heartbeat CPU 0 instructions: 49000002 cycles: 28515364 heartbeat IPC: 1.72141 cumulative IPC: 1.71837 (Simulation time: 0 hr 23 min 32 sec) 
Heartbeat CPU 0 instructions: 50000000 cycles: 29085399 heartbeat IPC: 1.75427 cumulative IPC: 1.71908 (Simulation time: 0 hr 24 min 0 sec) 

Warmup complete CPU 0 instructions: 50000002 cycles: 29085400 (Simulation time: 0 hr 24 min 0 sec) 

Heartbeat CPU 0 instructions: 51000003 cycles: 31985747 heartbeat IPC: 0.344787 cumulative IPC: 0.344787 (Simulation time: 0 hr 24 min 36 sec) 
Heartbeat CPU 0 instructions: 52000000 cycles: 34870079 heartbeat IPC: 0.3467 cumulative IPC: 0.345741 (Simulation time: 0 hr 25 min 7 sec) 
Heartbeat CPU 0 instructions: 53000003 cycles: 37773720 heartbeat IPC: 0.344396 cumulative IPC: 0.345291 (Simulation time: 0 hr 25 min 41 sec) 
Heartbeat CPU 0 instructions: 54000001 cycles: 40646316 heartbeat IPC: 0.348116 cumulative IPC: 0.345993 (Simulation time: 0 hr 26 min 13 sec) 
Heartbeat CPU 0 instructions: 55000001 cycles: 43661108 heartbeat IPC: 0.331698 cumulative IPC: 0.343036 (Simulation time: 0 hr 26 min 48 sec) 
Heartbeat CPU 0 instructions: 56000000 cycles: 46533269 heartbeat IPC: 0.34817 cumulative IPC: 0.343881 (Simulation time: 0 hr 27 min 24 sec) 
Heartbeat CPU 0 instructions: 57000003 cycles: 49386251 heartbeat IPC: 0.350511 cumulative IPC: 0.344813 (Simulation time: 0 hr 27 min 57 sec) 
Heartbeat CPU 0 instructions: 58000001 cycles: 52479400 heartbeat IPC: 0.323294 cumulative IPC: 0.341968 (Simulation time: 0 hr 28 min 30 sec) 
Heartbeat CPU 0 instructions: 59000001 cycles: 55894883 heartbeat IPC: 0.292784 cumulative IPC: 0.335702 (Simulation time: 0 hr 29 min 3 sec) 
Heartbeat CPU 0 instructions: 60000000 cycles: 58987242 heartbeat IPC: 0.323377 cumulative IPC: 0.334428 (Simulation time: 0 hr 29 min 40 sec) 
Heartbeat CPU 0 instructions: 61000001 cycles: 62116830 heartbeat IPC: 0.319531 cumulative IPC: 0.333016 (Simulation time: 0 hr 30 min 13 sec) 
Heartbeat CPU 0 instructions: 62000000 cycles: 65559025 heartbeat IPC: 0.290512 cumulative IPC: 0.329005 (Simulation time: 0 hr 30 min 49 sec) 
Heartbeat CPU 0 instructions: 63000001 cycles: 68489051 heartbeat IPC: 0.341294 cumulative IPC: 0.329919 (Simulation time: 0 hr 31 min 22 sec) 
Heartbeat CPU 0 instructions: 64000000 cycles: 71394563 heartbeat IPC: 0.344173 cumulative IPC: 0.330898 (Simulation time: 0 hr 31 min 53 sec) 
Heartbeat CPU 0 instructions: 65000001 cycles: 74290919 heartbeat IPC: 0.345262 cumulative IPC: 0.331818 (Simulation time: 0 hr 32 min 23 sec) 
Heartbeat CPU 0 instructions: 66000002 cycles: 78591005 heartbeat IPC: 0.232554 cumulative IPC: 0.323196 (Simulation time: 0 hr 33 min 0 sec) 
Heartbeat CPU 0 instructions: 67000001 cycles: 80264074 heartbeat IPC: 0.597703 cumulative IPC: 0.33217 (Simulation time: 0 hr 33 min 28 sec) 
Heartbeat CPU 0 instructions: 68000000 cycles: 81388029 heartbeat IPC: 0.889714 cumulative IPC: 0.344151 (Simulation time: 0 hr 33 min 51 sec) 
Heartbeat CPU 0 instructions: 69000003 cycles: 82530038 heartbeat IPC: 0.875652 cumulative IPC: 0.355508 (Simulation time: 0 hr 34 min 15 sec) 
Heartbeat CPU 0 instructions: 70000000 cycles: 83650283 heartbeat IPC: 0.892659 cumulative IPC: 0.366536 (Simulation time: 0 hr 34 min 40 sec) 
Heartbeat CPU 0 instructions: 71000001 cycles: 84823212 heartbeat IPC: 0.852567 cumulative IPC: 0.376764 (Simulation time: 0 hr 35 min 6 sec) 
Heartbeat CPU 0 instructions: 72000000 cycles: 88248805 heartbeat IPC: 0.29192 cumulative IPC: 0.371851 (Simulation time: 0 hr 35 min 39 sec) 
Heartbeat CPU 0 instructions: 73000000 cycles: 91766664 heartbeat IPC: 0.284264 cumulative IPC: 0.366936 (Simulation time: 0 hr 36 min 14 sec) 
Heartbeat CPU 0 instructions: 74000001 cycles: 95234820 heartbeat IPC: 0.288338 cumulative IPC: 0.362815 (Simulation time: 0 hr 36 min 47 sec) 
Heartbeat CPU 0 instructions: 75000001 cycles: 98212730 heartbeat IPC: 0.335806 cumulative IPC: 0.361651 (Simulation time: 0 hr 37 min 18 sec) 
Heartbeat CPU 0 instructions: 76000000 cycles: 101090812 heartbeat IPC: 0.347453 cumulative IPC: 0.361084 (Simulation time: 0 hr 37 min 48 sec) 
Heartbeat CPU 0 instructions: 77000000 cycles: 104004360 heartbeat IPC: 0.343224 cumulative IPC: 0.360389 (Simulation time: 0 hr 38 min 20 sec) 
Heartbeat CPU 0 instructions: 78000001 cycles: 106914711 heartbeat IPC: 0.343602 cumulative IPC: 0.359762 (Simulation time: 0 hr 38 min 51 sec) 
Heartbeat CPU 0 instructions: 79000001 cycles: 109822662 heartbeat IPC: 0.343885 cumulative IPC: 0.35919 (Simulation time: 0 hr 39 min 24 sec) 
Heartbeat CPU 0 instructions: 80000000 cycles: 112704329 heartbeat IPC: 0.347021 cumulative IPC: 0.35877 (Simulation time: 0 hr 39 min 56 sec) 
Heartbeat CPU 0 instructions: 81000002 cycles: 115659793 heartbeat IPC: 0.338357 cumulative IPC: 0.358074 (Simulation time: 0 hr 40 min 30 sec) 
Heartbeat CPU 0 instructions: 82000001 cycles: 118526621 heartbeat IPC: 0.348817 cumulative IPC: 0.357777 (Simulation time: 0 hr 41 min 8 sec) 
Heartbeat CPU 0 instructions: 83000002 cycles: 121460831 heartbeat IPC: 0.340808 cumulative IPC: 0.357238 (Simulation time: 0 hr 41 min 40 sec) 
Heartbeat CPU 0 instructions: 84000000 cycles: 124424475 heartbeat IPC: 0.337422 cumulative IPC: 0.356622 (Simulation time: 0 hr 42 min 14 sec) 
Heartbeat CPU 0 instructions: 85000002 cycles: 127880204 heartbeat IPC: 0.289375 cumulative IPC: 0.35427 (Simulation time: 0 hr 42 min 48 sec) 
Heartbeat CPU 0 instructions: 86000002 cycles: 131331647 heartbeat IPC: 0.289734 cumulative IPC: 0.352091 (Simulation time: 0 hr 43 min 22 sec) 
Heartbeat CPU 0 instructions: 87000000 cycles: 134435122 heartbeat IPC: 0.322219 cumulative IPC: 0.351211 (Simulation time: 0 hr 43 min 56 sec) 
Heartbeat CPU 0 instructions: 88000000 cycles: 137543988 heartbeat IPC: 0.321661 cumulative IPC: 0.350364 (Simulation time: 0 hr 44 min 31 sec) 
Heartbeat CPU 0 instructions: 89000002 cycles: 140732602 heartbeat IPC: 0.313617 cumulative IPC: 0.349315 (Simulation time: 0 hr 45 min 3 sec) 
Heartbeat CPU 0 instructions: 90000001 cycles: 143585292 heartbeat IPC: 0.350546 cumulative IPC: 0.349345 (Simulation time: 0 hr 45 min 36 sec) 
Heartbeat CPU 0 instructions: 91000001 cycles: 146463030 heartbeat IPC: 0.347495 cumulative IPC: 0.3493 (Simulation time: 0 hr 46 min 9 sec) 
Heartbeat CPU 0 instructions: 92000000 cycles: 149428933 heartbeat IPC: 0.337165 cumulative IPC: 0.349001 (Simulation time: 0 hr 46 min 44 sec) 
Heartbeat CPU 0 instructions: 93000000 cycles: 152320985 heartbeat IPC: 0.345775 cumulative IPC: 0.348925 (Simulation time: 0 hr 47 min 17 sec) 
Heartbeat CPU 0 instructions: 94000000 cycles: 157010638 heartbeat IPC: 0.213235 cumulative IPC: 0.343951 (Simulation time: 0 hr 47 min 57 sec) 
Heartbeat CPU 0 instructions: 95000000 cycles: 158201015 heartbeat IPC: 0.84007 cumulative IPC: 0.348525 (Simulation time: 0 hr 48 min 21 sec) 
Heartbeat CPU 0 instructions: 96000000 cycles: 159343996 heartbeat IPC: 0.874905 cumulative IPC: 0.353144 (Simulation time: 0 hr 48 min 46 sec) 
Heartbeat CPU 0 instructions: 97000002 cycles: 160462699 heartbeat IPC: 0.893894 cumulative IPC: 0.357748 (Simulation time: 0 hr 49 min 12 sec) 
Heartbeat CPU 0 instructions: 98000001 cycles: 161604636 heartbeat IPC: 0.875704 cumulative IPC: 0.362212 (Simulation time: 0 hr 49 min 40 sec) 
Heartbeat CPU 0 instructions: 99000002 cycles: 163514789 heartbeat IPC: 0.523519 cumulative IPC: 0.364504 (Simulation time: 0 hr 50 min 12 sec) 
Heartbeat CPU 0 instructions: 100000000 cycles: 167041095 heartbeat IPC: 0.283582 cumulative IPC: 0.362435 (Simulation time: 0 hr 50 min 46 sec) 
Heartbeat CPU 0 instructions: 101000002 cycles: 170221599 heartbeat IPC: 0.314416 cumulative IPC: 0.361353 (Simulation time: 0 hr 51 min 21 sec) 
Heartbeat CPU 0 instructions: 102000001 cycles: 173322671 heartbeat IPC: 0.322469 cumulative IPC: 0.360517 (Simulation time: 0 hr 51 min 58 sec) 
Heartbeat CPU 0 instructions: 103000000 cycles: 176222413 heartbeat IPC: 0.344858 cumulative IPC: 0.360208 (Simulation time: 0 hr 52 min 33 sec) 
Heartbeat CPU 0 instructions: 104000000 cycles: 179108070 heartbeat IPC: 0.346542 cumulative IPC: 0.359946 (Simulation time: 0 hr 53 min 5 sec) 
Heartbeat CPU 0 instructions: 105000001 cycles: 181968387 heartbeat IPC: 0.349612 cumulative IPC: 0.359752 (Simulation time: 0 hr 53 min 41 sec) 
Heartbeat CPU 0 instructions: 106000000 cycles: 184945446 heartbeat IPC: 0.335902 cumulative IPC: 0.359297 (Simulation time: 0 hr 54 min 17 sec) 
Heartbeat CPU 0 instructions: 107000002 cycles: 187827066 heartbeat IPC: 0.347028 cumulative IPC: 0.359074 (Simulation time: 0 hr 54 min 49 sec) 
Heartbeat CPU 0 instructions: 108000000 cycles: 190720142 heartbeat IPC: 0.345652 cumulative IPC: 0.358834 (Simulation time: 0 hr 55 min 19 sec) 
Heartbeat CPU 0 instructions: 109000002 cycles: 193621352 heartbeat IPC: 0.344684 cumulative IPC: 0.358584 (Simulation time: 0 hr 55 min 50 sec) 
Heartbeat CPU 0 instructions: 110000001 cycles: 196559539 heartbeat IPC: 0.340346 cumulative IPC: 0.358264 (Simulation time: 0 hr 56 min 21 sec) 
Heartbeat CPU 0 instructions: 111000001 cycles: 199645373 heartbeat IPC: 0.324062 cumulative IPC: 0.357645 (Simulation time: 0 hr 56 min 53 sec) 
Heartbeat CPU 0 instructions: 112000000 cycles: 203056961 heartbeat IPC: 0.293118 cumulative IPC: 0.35638 (Simulation time: 0 hr 57 min 25 sec) 
Heartbeat CPU 0 instructions: 113000002 cycles: 206174035 heartbeat IPC: 0.320814 cumulative IPC: 0.355754 (Simulation time: 0 hr 57 min 59 sec) 
Heartbeat CPU 0 instructions: 114000001 cycles: 209594832 heartbeat IPC: 0.292329 cumulative IPC: 0.354552 (Simulation time: 0 hr 58 min 31 sec) 
Heartbeat CPU 0 instructions: 115000001 cycles: 212794450 heartbeat IPC: 0.312537 cumulative IPC: 0.35382 (Simulation time: 0 hr 59 min 4 sec) 
Heartbeat CPU 0 instructions: 116000000 cycles: 215753835 heartbeat IPC: 0.337908 cumulative IPC: 0.353568 (Simulation time: 0 hr 59 min 40 sec) 
Heartbeat CPU 0 instructions: 117000001 cycles: 218641388 heartbeat IPC: 0.346314 cumulative IPC: 0.353458 (Simulation time: 1 hr 0 min 14 sec) 
Heartbeat CPU 0 instructions: 118000000 cycles: 221629063 heartbeat IPC: 0.334708 cumulative IPC: 0.353167 (Simulation time: 1 hr 0 min 50 sec) 
Heartbeat CPU 0 instructions: 119000001 cycles: 224544603 heartbeat IPC: 0.34299 cumulative IPC: 0.353015 (Simulation time: 1 hr 1 min 21 sec) 
Heartbeat CPU 0 instructions: 120000000 cycles: 227469206 heartbeat IPC: 0.341926 cumulative IPC: 0.352851 (Simulation time: 1 hr 1 min 53 sec) 
Heartbeat CPU 0 instructions: 121000003 cycles: 230405986 heartbeat IPC: 0.34051 cumulative IPC: 0.352671 (Simulation time: 1 hr 2 min 25 sec) 
Heartbeat CPU 0 instructions: 122000000 cycles: 235109369 heartbeat IPC: 0.212612 cumulative IPC: 0.349474 (Simulation time: 1 hr 3 min 7 sec) 
Heartbeat CPU 0 instructions: 123000001 cycles: 236276346 heartbeat IPC: 0.856916 cumulative IPC: 0.352332 (Simulation time: 1 hr 3 min 32 sec) 
Heartbeat CPU 0 instructions: 124000000 cycles: 237398322 heartbeat IPC: 0.891284 cumulative IPC: 0.355235 (Simulation time: 1 hr 3 min 58 sec) 
Heartbeat CPU 0 instructions: 125000000 cycles: 238539989 heartbeat IPC: 0.875912 cumulative IPC: 0.358073 (Simulation time: 1 hr 4 min 25 sec) 
Heartbeat CPU 0 instructions: 126000001 cycles: 239771581 heartbeat IPC: 0.811958 cumulative IPC: 0.360726 (Simulation time: 1 hr 4 min 54 sec) 
Heartbeat CPU 0 instructions: 127000000 cycles: 241799938 heartbeat IPC: 0.493009 cumulative IPC: 0.361987 (Simulation time: 1 hr 5 min 21 sec) 
Heartbeat CPU 0 instructions: 128000000 cycles: 245298976 heartbeat IPC: 0.285793 cumulative IPC: 0.360754 (Simulation time: 1 hr 5 min 51 sec) 
Heartbeat CPU 0 instructions: 129000001 cycles: 248500378 heartbeat IPC: 0.312363 cumulative IPC: 0.360048 (Simulation time: 1 hr 6 min 22 sec) 
Heartbeat CPU 0 instructions: 130000000 cycles: 251413172 heartbeat IPC: 0.343313 cumulative IPC: 0.359829 (Simulation time: 1 hr 6 min 56 sec) 
Heartbeat CPU 0 instructions: 131000001 cycles: 254329497 heartbeat IPC: 0.342898 cumulative IPC: 0.35961 (Simulation time: 1 hr 7 min 26 sec) 
Heartbeat CPU 0 instructions: 132000000 cycles: 257276476 heartbeat IPC: 0.33933 cumulative IPC: 0.359348 (Simulation time: 1 hr 7 min 55 sec) 
Heartbeat CPU 0 instructions: 133000000 cycles: 260226361 heartbeat IPC: 0.338996 cumulative IPC: 0.359088 (Simulation time: 1 hr 8 min 28 sec) 
Heartbeat CPU 0 instructions: 134000000 cycles: 263158377 heartbeat IPC: 0.341062 cumulative IPC: 0.358862 (Simulation time: 1 hr 8 min 57 sec) 
Heartbeat CPU 0 instructions: 135000000 cycles: 266072779 heartbeat IPC: 0.343124 cumulative IPC: 0.358669 (Simulation time: 1 hr 9 min 31 sec) 
Heartbeat CPU 0 instructions: 136000000 cycles: 268987714 heartbeat IPC: 0.343061 cumulative IPC: 0.358479 (Simulation time: 1 hr 9 min 57 sec) 
Heartbeat CPU 0 instructions: 137000000 cycles: 271861480 heartbeat IPC: 0.347975 cumulative IPC: 0.358355 (Simulation time: 1 hr 10 min 24 sec) 
Heartbeat CPU 0 instructions: 138000001 cycles: 275187346 heartbeat IPC: 0.300674 cumulative IPC: 0.357575 (Simulation time: 1 hr 10 min 54 sec) 
Heartbeat CPU 0 instructions: 139000000 cycles: 277969063 heartbeat IPC: 0.35949 cumulative IPC: 0.357597 (Simulation time: 1 hr 11 min 21 sec) 
Heartbeat CPU 0 instructions: 140000000 cycles: 281432571 heartbeat IPC: 0.288725 cumulative IPC: 0.356652 (Simulation time: 1 hr 11 min 52 sec) 
Heartbeat CPU 0 instructions: 141000002 cycles: 284887236 heartbeat IPC: 0.289464 cumulative IPC: 0.355744 (Simulation time: 1 hr 12 min 21 sec) 
Heartbeat CPU 0 instructions: 142000001 cycles: 288219913 heartbeat IPC: 0.300059 cumulative IPC: 0.355028 (Simulation time: 1 hr 12 min 49 sec) 
Heartbeat CPU 0 instructions: 143000001 cycles: 291163782 heartbeat IPC: 0.339689 cumulative IPC: 0.354856 (Simulation time: 1 hr 13 min 16 sec) 
Heartbeat CPU 0 instructions: 144000000 cycles: 294141476 heartbeat IPC: 0.33583 cumulative IPC: 0.354642 (Simulation time: 1 hr 13 min 43 sec) 
Heartbeat CPU 0 instructions: 145000001 cycles: 297038070 heartbeat IPC: 0.345233 cumulative IPC: 0.35454 (Simulation time: 1 hr 14 min 8 sec) 
Heartbeat CPU 0 instructions: 146000000 cycles: 299980750 heartbeat IPC: 0.339826 cumulative IPC: 0.35438 (Simulation time: 1 hr 14 min 34 sec) 
Heartbeat CPU 0 instructions: 147000001 cycles: 302932982 heartbeat IPC: 0.338727 cumulative IPC: 0.354212 (Simulation time: 1 hr 14 min 59 sec) 
Heartbeat CPU 0 instructions: 148000000 cycles: 305878008 heartbeat IPC: 0.339555 cumulative IPC: 0.354056 (Simulation time: 1 hr 15 min 23 sec) 
Heartbeat CPU 0 instructions: 149000002 cycles: 308776337 heartbeat IPC: 0.345027 cumulative IPC: 0.353962 (Simulation time: 1 hr 15 min 45 sec) 
Heartbeat CPU 0 instructions: 150000001 cycles: 313447278 heartbeat IPC: 0.214089 cumulative IPC: 0.351665 (Simulation time: 1 hr 16 min 13 sec) 
Finished CPU 0 instructions: 100000000 cycles: 284361881 cummulative IPC: 0.351665 (Simulation time: 1 hr 16 min 13 sec) 

ChampSim completed all CPUs

Region of Interest Statistics

CPU 0 cummulative IPC: 0.351665 instructions: 100000000 cycles: 284361881
LLC TOTAL     ACCESS:    4942031  HIT:    2179136  MISS:    2762895
LLC LOAD      ACCESS:    2311843  HIT:    1806267  MISS:     505576
LLC RFO       ACCESS:      24975  HIT:       7184  MISS:      17791
LLC PREFETCH  ACCESS:    2523911  HIT:     295179  MISS:    2228732
LLC WRITEBACK ACCESS:      81302  HIT:      70506  MISS:      10796
OPTgen accesses: 53258
OPTgen hits: 51428
OPTgen hit rate: 96.5639


