
*** ChampSim Multicore Out-of-Order Simulator ***

Warmup Instructions: 50000000
Simulation Instructions: 100000000
Configuration: 2
Number of CPUs: 1
LLC sets: 2048
LLC ways: 16
Off-chip DRAM Channels: 1 Width: 64-bit Data Rate: 1600 MT/s

CPU 0 runs /datasets/cs240c-wi22-a00-public/data/Assignment2-gz/perlbench_53B.trace.gz
CPU 0 L1D next line prefetcher
CPU 0 L2C IP-based stride prefetcher
Initialize Hawkeye state
Heartbeat CPU 0 instructions: 1000000 cycles: 615801 heartbeat IPC: 1.6239 cumulative IPC: 1.6239 (Simulation time: 0 hr 0 min 50 sec) 
Heartbeat CPU 0 instructions: 2000001 cycles: 1252973 heartbeat IPC: 1.56944 cumulative IPC: 1.5962 (Simulation time: 0 hr 1 min 41 sec) 
Heartbeat CPU 0 instructions: 3000002 cycles: 1908460 heartbeat IPC: 1.52558 cumulative IPC: 1.57195 (Simulation time: 0 hr 2 min 31 sec) 
Heartbeat CPU 0 instructions: 4000000 cycles: 2523963 heartbeat IPC: 1.62468 cumulative IPC: 1.58481 (Simulation time: 0 hr 3 min 27 sec) 
Heartbeat CPU 0 instructions: 5000001 cycles: 3151965 heartbeat IPC: 1.59235 cumulative IPC: 1.58631 (Simulation time: 0 hr 4 min 28 sec) 
Heartbeat CPU 0 instructions: 6000001 cycles: 3767465 heartbeat IPC: 1.6247 cumulative IPC: 1.59258 (Simulation time: 0 hr 5 min 27 sec) 
Heartbeat CPU 0 instructions: 7000002 cycles: 4390334 heartbeat IPC: 1.60548 cumulative IPC: 1.59441 (Simulation time: 0 hr 6 min 29 sec) 
Heartbeat CPU 0 instructions: 8000000 cycles: 5000735 heartbeat IPC: 1.63826 cumulative IPC: 1.59976 (Simulation time: 0 hr 7 min 31 sec) 
Heartbeat CPU 0 instructions: 9000000 cycles: 5652459 heartbeat IPC: 1.53439 cumulative IPC: 1.59223 (Simulation time: 0 hr 8 min 39 sec) 
Heartbeat CPU 0 instructions: 10000001 cycles: 6287748 heartbeat IPC: 1.57409 cumulative IPC: 1.59039 (Simulation time: 0 hr 9 min 36 sec) 
Heartbeat CPU 0 instructions: 11000000 cycles: 6904523 heartbeat IPC: 1.62134 cumulative IPC: 1.59316 (Simulation time: 0 hr 10 min 39 sec) 
Heartbeat CPU 0 instructions: 12000000 cycles: 7561737 heartbeat IPC: 1.52157 cumulative IPC: 1.58694 (Simulation time: 0 hr 11 min 46 sec) 
Heartbeat CPU 0 instructions: 13000000 cycles: 8151497 heartbeat IPC: 1.69561 cumulative IPC: 1.5948 (Simulation time: 0 hr 12 min 35 sec) 
Heartbeat CPU 0 instructions: 14000000 cycles: 8768408 heartbeat IPC: 1.62098 cumulative IPC: 1.59664 (Simulation time: 0 hr 13 min 31 sec) 
Heartbeat CPU 0 instructions: 15000001 cycles: 9380499 heartbeat IPC: 1.63375 cumulative IPC: 1.59906 (Simulation time: 0 hr 14 min 26 sec) 
Heartbeat CPU 0 instructions: 16000000 cycles: 9994616 heartbeat IPC: 1.62835 cumulative IPC: 1.60086 (Simulation time: 0 hr 15 min 31 sec) 
Heartbeat CPU 0 instructions: 17000002 cycles: 10626805 heartbeat IPC: 1.58181 cumulative IPC: 1.59973 (Simulation time: 0 hr 16 min 29 sec) 
Heartbeat CPU 0 instructions: 18000002 cycles: 11287230 heartbeat IPC: 1.51418 cumulative IPC: 1.59472 (Simulation time: 0 hr 17 min 30 sec) 
Heartbeat CPU 0 instructions: 19000001 cycles: 11894312 heartbeat IPC: 1.64722 cumulative IPC: 1.5974 (Simulation time: 0 hr 18 min 28 sec) 
Heartbeat CPU 0 instructions: 20000000 cycles: 12569770 heartbeat IPC: 1.48048 cumulative IPC: 1.59112 (Simulation time: 0 hr 19 min 27 sec) 
Heartbeat CPU 0 instructions: 21000000 cycles: 13182273 heartbeat IPC: 1.63265 cumulative IPC: 1.59305 (Simulation time: 0 hr 20 min 27 sec) 
Heartbeat CPU 0 instructions: 22000000 cycles: 13737997 heartbeat IPC: 1.79945 cumulative IPC: 1.6014 (Simulation time: 0 hr 21 min 20 sec) 
Heartbeat CPU 0 instructions: 23000001 cycles: 14277078 heartbeat IPC: 1.85501 cumulative IPC: 1.61097 (Simulation time: 0 hr 22 min 12 sec) 
Heartbeat CPU 0 instructions: 24000000 cycles: 14899941 heartbeat IPC: 1.60549 cumulative IPC: 1.61074 (Simulation time: 0 hr 23 min 9 sec) 
Heartbeat CPU 0 instructions: 25000000 cycles: 15452252 heartbeat IPC: 1.81057 cumulative IPC: 1.61789 (Simulation time: 0 hr 24 min 4 sec) 
Heartbeat CPU 0 instructions: 26000001 cycles: 16005853 heartbeat IPC: 1.80636 cumulative IPC: 1.62441 (Simulation time: 0 hr 25 min 0 sec) 
Heartbeat CPU 0 instructions: 27000001 cycles: 16597951 heartbeat IPC: 1.68891 cumulative IPC: 1.62671 (Simulation time: 0 hr 25 min 55 sec) 
Heartbeat CPU 0 instructions: 28000000 cycles: 17240708 heartbeat IPC: 1.5558 cumulative IPC: 1.62406 (Simulation time: 0 hr 26 min 54 sec) 
Heartbeat CPU 0 instructions: 29000000 cycles: 17852018 heartbeat IPC: 1.63583 cumulative IPC: 1.62447 (Simulation time: 0 hr 27 min 55 sec) 
Heartbeat CPU 0 instructions: 30000000 cycles: 18407002 heartbeat IPC: 1.80185 cumulative IPC: 1.62981 (Simulation time: 0 hr 28 min 49 sec) 
Heartbeat CPU 0 instructions: 31000001 cycles: 18958322 heartbeat IPC: 1.81383 cumulative IPC: 1.63517 (Simulation time: 0 hr 29 min 41 sec) 
Heartbeat CPU 0 instructions: 32000000 cycles: 19515042 heartbeat IPC: 1.79623 cumulative IPC: 1.63976 (Simulation time: 0 hr 30 min 31 sec) 
Heartbeat CPU 0 instructions: 33000003 cycles: 20104463 heartbeat IPC: 1.69659 cumulative IPC: 1.64143 (Simulation time: 0 hr 31 min 34 sec) 
Heartbeat CPU 0 instructions: 34000001 cycles: 20713047 heartbeat IPC: 1.64316 cumulative IPC: 1.64148 (Simulation time: 0 hr 32 min 30 sec) 
Heartbeat CPU 0 instructions: 35000001 cycles: 21324417 heartbeat IPC: 1.63567 cumulative IPC: 1.64131 (Simulation time: 0 hr 33 min 28 sec) 
Heartbeat CPU 0 instructions: 36000000 cycles: 21979641 heartbeat IPC: 1.52619 cumulative IPC: 1.63788 (Simulation time: 0 hr 34 min 20 sec) 
Heartbeat CPU 0 instructions: 37000002 cycles: 22613372 heartbeat IPC: 1.57796 cumulative IPC: 1.6362 (Simulation time: 0 hr 35 min 9 sec) 
Heartbeat CPU 0 instructions: 38000000 cycles: 23233423 heartbeat IPC: 1.61277 cumulative IPC: 1.63557 (Simulation time: 0 hr 35 min 52 sec) 
Heartbeat CPU 0 instructions: 39000001 cycles: 23863538 heartbeat IPC: 1.58701 cumulative IPC: 1.63429 (Simulation time: 0 hr 36 min 39 sec) 
Heartbeat CPU 0 instructions: 40000000 cycles: 24486707 heartbeat IPC: 1.6047 cumulative IPC: 1.63354 (Simulation time: 0 hr 37 min 20 sec) 
Heartbeat CPU 0 instructions: 41000002 cycles: 25110665 heartbeat IPC: 1.60268 cumulative IPC: 1.63277 (Simulation time: 0 hr 38 min 4 sec) 
Heartbeat CPU 0 instructions: 42000000 cycles: 25724456 heartbeat IPC: 1.62922 cumulative IPC: 1.63269 (Simulation time: 0 hr 38 min 41 sec) 
Heartbeat CPU 0 instructions: 43000002 cycles: 26364304 heartbeat IPC: 1.56287 cumulative IPC: 1.63099 (Simulation time: 0 hr 39 min 22 sec) 
Heartbeat CPU 0 instructions: 44000000 cycles: 27024796 heartbeat IPC: 1.51402 cumulative IPC: 1.62813 (Simulation time: 0 hr 40 min 4 sec) 
Heartbeat CPU 0 instructions: 45000001 cycles: 27483331 heartbeat IPC: 2.18086 cumulative IPC: 1.63736 (Simulation time: 0 hr 40 min 30 sec) 
Heartbeat CPU 0 instructions: 46000000 cycles: 28033996 heartbeat IPC: 1.81598 cumulative IPC: 1.64086 (Simulation time: 0 hr 41 min 3 sec) 
Heartbeat CPU 0 instructions: 47000002 cycles: 28571849 heartbeat IPC: 1.85925 cumulative IPC: 1.64498 (Simulation time: 0 hr 41 min 36 sec) 
Heartbeat CPU 0 instructions: 48000000 cycles: 29109680 heartbeat IPC: 1.85932 cumulative IPC: 1.64894 (Simulation time: 0 hr 42 min 11 sec) 
Heartbeat CPU 0 instructions: 49000000 cycles: 29710496 heartbeat IPC: 1.6644 cumulative IPC: 1.64925 (Simulation time: 0 hr 42 min 46 sec) 
Heartbeat CPU 0 instructions: 50000002 cycles: 30241798 heartbeat IPC: 1.88217 cumulative IPC: 1.65334 (Simulation time: 0 hr 43 min 18 sec) 

Warmup complete CPU 0 instructions: 50000002 cycles: 30241798 (Simulation time: 0 hr 43 min 18 sec) 

Heartbeat CPU 0 instructions: 51000000 cycles: 32172223 heartbeat IPC: 0.51802 cumulative IPC: 0.51802 (Simulation time: 0 hr 43 min 57 sec) 
Heartbeat CPU 0 instructions: 52000000 cycles: 34087228 heartbeat IPC: 0.522192 cumulative IPC: 0.520097 (Simulation time: 0 hr 44 min 35 sec) 
Heartbeat CPU 0 instructions: 53000002 cycles: 36038236 heartbeat IPC: 0.512557 cumulative IPC: 0.517559 (Simulation time: 0 hr 45 min 11 sec) 
Heartbeat CPU 0 instructions: 54000000 cycles: 38975492 heartbeat IPC: 0.340453 cumulative IPC: 0.457996 (Simulation time: 0 hr 45 min 56 sec) 
Heartbeat CPU 0 instructions: 55000000 cycles: 41478244 heartbeat IPC: 0.39956 cumulative IPC: 0.44498 (Simulation time: 0 hr 46 min 42 sec) 
Heartbeat CPU 0 instructions: 56000000 cycles: 44300161 heartbeat IPC: 0.354369 cumulative IPC: 0.426792 (Simulation time: 0 hr 47 min 28 sec) 
Heartbeat CPU 0 instructions: 57000001 cycles: 47352856 heartbeat IPC: 0.32758 cumulative IPC: 0.409092 (Simulation time: 0 hr 48 min 12 sec) 
Heartbeat CPU 0 instructions: 58000003 cycles: 50327060 heartbeat IPC: 0.336225 cumulative IPC: 0.398302 (Simulation time: 0 hr 49 min 5 sec) 
Heartbeat CPU 0 instructions: 59000002 cycles: 53151160 heartbeat IPC: 0.354095 cumulative IPC: 0.392852 (Simulation time: 0 hr 49 min 52 sec) 
Heartbeat CPU 0 instructions: 60000000 cycles: 55916207 heartbeat IPC: 0.361657 cumulative IPC: 0.389493 (Simulation time: 0 hr 50 min 32 sec) 
Heartbeat CPU 0 instructions: 61000002 cycles: 58546392 heartbeat IPC: 0.380202 cumulative IPC: 0.388629 (Simulation time: 0 hr 51 min 18 sec) 
Heartbeat CPU 0 instructions: 62000002 cycles: 61225303 heartbeat IPC: 0.373286 cumulative IPC: 0.387303 (Simulation time: 0 hr 52 min 1 sec) 
Heartbeat CPU 0 instructions: 63000001 cycles: 63891659 heartbeat IPC: 0.375043 cumulative IPC: 0.386331 (Simulation time: 0 hr 52 min 41 sec) 
Heartbeat CPU 0 instructions: 64000000 cycles: 66547233 heartbeat IPC: 0.376566 cumulative IPC: 0.385617 (Simulation time: 0 hr 53 min 25 sec) 
Heartbeat CPU 0 instructions: 65000003 cycles: 69185125 heartbeat IPC: 0.379092 cumulative IPC: 0.385175 (Simulation time: 0 hr 54 min 7 sec) 
Heartbeat CPU 0 instructions: 66000001 cycles: 71813586 heartbeat IPC: 0.38045 cumulative IPC: 0.384876 (Simulation time: 0 hr 54 min 58 sec) 
Heartbeat CPU 0 instructions: 67000001 cycles: 74426799 heartbeat IPC: 0.382671 cumulative IPC: 0.384746 (Simulation time: 0 hr 55 min 43 sec) 
Heartbeat CPU 0 instructions: 68000000 cycles: 77093277 heartbeat IPC: 0.375026 cumulative IPC: 0.384193 (Simulation time: 0 hr 56 min 26 sec) 
Heartbeat CPU 0 instructions: 69000001 cycles: 79730160 heartbeat IPC: 0.379236 cumulative IPC: 0.383929 (Simulation time: 0 hr 57 min 7 sec) 
Heartbeat CPU 0 instructions: 70000001 cycles: 82340670 heartbeat IPC: 0.383067 cumulative IPC: 0.383885 (Simulation time: 0 hr 57 min 51 sec) 
Heartbeat CPU 0 instructions: 71000001 cycles: 85057116 heartbeat IPC: 0.368128 cumulative IPC: 0.383105 (Simulation time: 0 hr 58 min 40 sec) 
Heartbeat CPU 0 instructions: 72000000 cycles: 87680026 heartbeat IPC: 0.381256 cumulative IPC: 0.38302 (Simulation time: 0 hr 59 min 32 sec) 
Heartbeat CPU 0 instructions: 73000002 cycles: 90318672 heartbeat IPC: 0.378983 cumulative IPC: 0.382843 (Simulation time: 1 hr 0 min 18 sec) 
Heartbeat CPU 0 instructions: 74000001 cycles: 92996667 heartbeat IPC: 0.373413 cumulative IPC: 0.38244 (Simulation time: 1 hr 1 min 4 sec) 
Heartbeat CPU 0 instructions: 75000001 cycles: 95654458 heartbeat IPC: 0.376252 cumulative IPC: 0.382189 (Simulation time: 1 hr 1 min 50 sec) 
Heartbeat CPU 0 instructions: 76000000 cycles: 98295279 heartbeat IPC: 0.37867 cumulative IPC: 0.382052 (Simulation time: 1 hr 2 min 40 sec) 
Heartbeat CPU 0 instructions: 77000002 cycles: 100967700 heartbeat IPC: 0.374193 cumulative IPC: 0.381755 (Simulation time: 1 hr 3 min 29 sec) 
Heartbeat CPU 0 instructions: 78000000 cycles: 103621177 heartbeat IPC: 0.376863 cumulative IPC: 0.381579 (Simulation time: 1 hr 4 min 16 sec) 
Heartbeat CPU 0 instructions: 79000002 cycles: 106282287 heartbeat IPC: 0.375784 cumulative IPC: 0.381376 (Simulation time: 1 hr 5 min 0 sec) 
Heartbeat CPU 0 instructions: 80000000 cycles: 108917015 heartbeat IPC: 0.379545 cumulative IPC: 0.381314 (Simulation time: 1 hr 5 min 41 sec) 
Heartbeat CPU 0 instructions: 81000000 cycles: 111531361 heartbeat IPC: 0.382505 cumulative IPC: 0.381353 (Simulation time: 1 hr 6 min 21 sec) 
Heartbeat CPU 0 instructions: 82000002 cycles: 114207985 heartbeat IPC: 0.373606 cumulative IPC: 0.381106 (Simulation time: 1 hr 7 min 1 sec) 
Heartbeat CPU 0 instructions: 83000000 cycles: 116853444 heartbeat IPC: 0.378005 cumulative IPC: 0.381011 (Simulation time: 1 hr 7 min 44 sec) 
Heartbeat CPU 0 instructions: 84000000 cycles: 119509103 heartbeat IPC: 0.376554 cumulative IPC: 0.380879 (Simulation time: 1 hr 8 min 21 sec) 
Heartbeat CPU 0 instructions: 85000001 cycles: 122185143 heartbeat IPC: 0.373687 cumulative IPC: 0.380669 (Simulation time: 1 hr 8 min 59 sec) 
Heartbeat CPU 0 instructions: 86000000 cycles: 124679940 heartbeat IPC: 0.400834 cumulative IPC: 0.381202 (Simulation time: 1 hr 9 min 40 sec) 
Heartbeat CPU 0 instructions: 87000000 cycles: 126834679 heartbeat IPC: 0.464093 cumulative IPC: 0.383051 (Simulation time: 1 hr 10 min 15 sec) 
Heartbeat CPU 0 instructions: 88000000 cycles: 128831860 heartbeat IPC: 0.500706 cumulative IPC: 0.385434 (Simulation time: 1 hr 10 min 49 sec) 
Heartbeat CPU 0 instructions: 89000001 cycles: 130919668 heartbeat IPC: 0.478972 cumulative IPC: 0.387374 (Simulation time: 1 hr 11 min 23 sec) 
Heartbeat CPU 0 instructions: 90000000 cycles: 133633564 heartbeat IPC: 0.368474 cumulative IPC: 0.386878 (Simulation time: 1 hr 12 min 2 sec) 
Heartbeat CPU 0 instructions: 91000001 cycles: 136399032 heartbeat IPC: 0.361603 cumulative IPC: 0.38622 (Simulation time: 1 hr 12 min 43 sec) 
Heartbeat CPU 0 instructions: 92000000 cycles: 139081154 heartbeat IPC: 0.372839 cumulative IPC: 0.38589 (Simulation time: 1 hr 13 min 17 sec) 
Heartbeat CPU 0 instructions: 93000000 cycles: 141730997 heartbeat IPC: 0.377381 cumulative IPC: 0.385688 (Simulation time: 1 hr 13 min 51 sec) 
Heartbeat CPU 0 instructions: 94000002 cycles: 144379096 heartbeat IPC: 0.37763 cumulative IPC: 0.385501 (Simulation time: 1 hr 14 min 25 sec) 
Heartbeat CPU 0 instructions: 95000000 cycles: 146998859 heartbeat IPC: 0.381713 cumulative IPC: 0.385416 (Simulation time: 1 hr 14 min 55 sec) 
Heartbeat CPU 0 instructions: 96000000 cycles: 149663328 heartbeat IPC: 0.375309 cumulative IPC: 0.38519 (Simulation time: 1 hr 15 min 23 sec) 
Heartbeat CPU 0 instructions: 97000000 cycles: 152303603 heartbeat IPC: 0.378748 cumulative IPC: 0.385051 (Simulation time: 1 hr 15 min 53 sec) 
Heartbeat CPU 0 instructions: 98000000 cycles: 154926070 heartbeat IPC: 0.38132 cumulative IPC: 0.384972 (Simulation time: 1 hr 16 min 22 sec) 
Heartbeat CPU 0 instructions: 99000002 cycles: 157535095 heartbeat IPC: 0.383286 cumulative IPC: 0.384938 (Simulation time: 1 hr 16 min 49 sec) 
Heartbeat CPU 0 instructions: 100000000 cycles: 160161840 heartbeat IPC: 0.380699 cumulative IPC: 0.384852 (Simulation time: 1 hr 17 min 15 sec) 
Heartbeat CPU 0 instructions: 101000002 cycles: 162816159 heartbeat IPC: 0.376745 cumulative IPC: 0.38469 (Simulation time: 1 hr 17 min 41 sec) 
Heartbeat CPU 0 instructions: 102000000 cycles: 165447188 heartbeat IPC: 0.380079 cumulative IPC: 0.3846 (Simulation time: 1 hr 18 min 5 sec) 
Heartbeat CPU 0 instructions: 103000000 cycles: 168073030 heartbeat IPC: 0.38083 cumulative IPC: 0.384528 (Simulation time: 1 hr 18 min 31 sec) 
Heartbeat CPU 0 instructions: 104000000 cycles: 170735486 heartbeat IPC: 0.375593 cumulative IPC: 0.384359 (Simulation time: 1 hr 19 min 0 sec) 
Heartbeat CPU 0 instructions: 105000003 cycles: 172916937 heartbeat IPC: 0.458412 cumulative IPC: 0.385491 (Simulation time: 1 hr 19 min 24 sec) 
Heartbeat CPU 0 instructions: 106000000 cycles: 174893748 heartbeat IPC: 0.505864 cumulative IPC: 0.387136 (Simulation time: 1 hr 19 min 47 sec) 
Heartbeat CPU 0 instructions: 107000003 cycles: 176868257 heartbeat IPC: 0.506457 cumulative IPC: 0.388743 (Simulation time: 1 hr 20 min 9 sec) 
Heartbeat CPU 0 instructions: 108000000 cycles: 179684307 heartbeat IPC: 0.355106 cumulative IPC: 0.388109 (Simulation time: 1 hr 20 min 33 sec) 
Heartbeat CPU 0 instructions: 109000001 cycles: 182387252 heartbeat IPC: 0.369967 cumulative IPC: 0.387787 (Simulation time: 1 hr 20 min 57 sec) 
Heartbeat CPU 0 instructions: 110000000 cycles: 184927034 heartbeat IPC: 0.393734 cumulative IPC: 0.387884 (Simulation time: 1 hr 21 min 20 sec) 
Heartbeat CPU 0 instructions: 111000000 cycles: 187744210 heartbeat IPC: 0.354965 cumulative IPC: 0.387296 (Simulation time: 1 hr 21 min 44 sec) 
Heartbeat CPU 0 instructions: 112000000 cycles: 190759996 heartbeat IPC: 0.331589 cumulative IPC: 0.386249 (Simulation time: 1 hr 22 min 5 sec) 
Heartbeat CPU 0 instructions: 113000000 cycles: 193708447 heartbeat IPC: 0.339161 cumulative IPC: 0.3854 (Simulation time: 1 hr 22 min 27 sec) 
Heartbeat CPU 0 instructions: 114000000 cycles: 196357825 heartbeat IPC: 0.377447 cumulative IPC: 0.385273 (Simulation time: 1 hr 22 min 49 sec) 
Heartbeat CPU 0 instructions: 115000000 cycles: 199090485 heartbeat IPC: 0.365944 cumulative IPC: 0.38496 (Simulation time: 1 hr 23 min 8 sec) 
Heartbeat CPU 0 instructions: 116000000 cycles: 201796134 heartbeat IPC: 0.369597 cumulative IPC: 0.384718 (Simulation time: 1 hr 23 min 28 sec) 
Heartbeat CPU 0 instructions: 117000000 cycles: 204654683 heartbeat IPC: 0.349828 cumulative IPC: 0.384146 (Simulation time: 1 hr 23 min 47 sec) 
Heartbeat CPU 0 instructions: 118000003 cycles: 207210609 heartbeat IPC: 0.391249 cumulative IPC: 0.384248 (Simulation time: 1 hr 24 min 6 sec) 
Heartbeat CPU 0 instructions: 119000002 cycles: 208717018 heartbeat IPC: 0.66383 cumulative IPC: 0.386608 (Simulation time: 1 hr 24 min 20 sec) 
Heartbeat CPU 0 instructions: 120000000 cycles: 210754744 heartbeat IPC: 0.490742 cumulative IPC: 0.387784 (Simulation time: 1 hr 24 min 35 sec) 
Heartbeat CPU 0 instructions: 121000003 cycles: 212683886 heartbeat IPC: 0.518367 cumulative IPC: 0.389165 (Simulation time: 1 hr 24 min 50 sec) 
Heartbeat CPU 0 instructions: 122000000 cycles: 214611653 heartbeat IPC: 0.518733 cumulative IPC: 0.390519 (Simulation time: 1 hr 25 min 4 sec) 
Heartbeat CPU 0 instructions: 123000000 cycles: 216612057 heartbeat IPC: 0.499899 cumulative IPC: 0.391693 (Simulation time: 1 hr 25 min 17 sec) 
Heartbeat CPU 0 instructions: 124000000 cycles: 219004771 heartbeat IPC: 0.417935 cumulative IPC: 0.392026 (Simulation time: 1 hr 25 min 33 sec) 
Heartbeat CPU 0 instructions: 125000002 cycles: 220780895 heartbeat IPC: 0.563025 cumulative IPC: 0.39362 (Simulation time: 1 hr 25 min 47 sec) 
Heartbeat CPU 0 instructions: 126000001 cycles: 222708592 heartbeat IPC: 0.518753 cumulative IPC: 0.394873 (Simulation time: 1 hr 25 min 59 sec) 
Heartbeat CPU 0 instructions: 127000001 cycles: 224634955 heartbeat IPC: 0.519113 cumulative IPC: 0.396104 (Simulation time: 1 hr 26 min 11 sec) 
Heartbeat CPU 0 instructions: 128000000 cycles: 226812573 heartbeat IPC: 0.459217 cumulative IPC: 0.396804 (Simulation time: 1 hr 26 min 22 sec) 
Heartbeat CPU 0 instructions: 129000001 cycles: 229579497 heartbeat IPC: 0.361413 cumulative IPC: 0.396312 (Simulation time: 1 hr 26 min 35 sec) 
Heartbeat CPU 0 instructions: 130000002 cycles: 232099738 heartbeat IPC: 0.396788 cumulative IPC: 0.396318 (Simulation time: 1 hr 26 min 48 sec) 
Heartbeat CPU 0 instructions: 131000000 cycles: 234931939 heartbeat IPC: 0.353082 cumulative IPC: 0.39572 (Simulation time: 1 hr 27 min 0 sec) 
Heartbeat CPU 0 instructions: 132000000 cycles: 237685998 heartbeat IPC: 0.3631 cumulative IPC: 0.395287 (Simulation time: 1 hr 27 min 12 sec) 
Heartbeat CPU 0 instructions: 133000000 cycles: 240626384 heartbeat IPC: 0.340091 cumulative IPC: 0.394516 (Simulation time: 1 hr 27 min 22 sec) 
Heartbeat CPU 0 instructions: 134000000 cycles: 243333627 heartbeat IPC: 0.369379 cumulative IPC: 0.394196 (Simulation time: 1 hr 27 min 32 sec) 
Heartbeat CPU 0 instructions: 135000000 cycles: 246135509 heartbeat IPC: 0.356903 cumulative IPC: 0.393712 (Simulation time: 1 hr 27 min 40 sec) 
Heartbeat CPU 0 instructions: 136000000 cycles: 249062522 heartbeat IPC: 0.341645 cumulative IPC: 0.393016 (Simulation time: 1 hr 27 min 49 sec) 
Heartbeat CPU 0 instructions: 137000003 cycles: 251864697 heartbeat IPC: 0.356867 cumulative IPC: 0.392559 (Simulation time: 1 hr 27 min 58 sec) 
Heartbeat CPU 0 instructions: 138000000 cycles: 254006105 heartbeat IPC: 0.466981 cumulative IPC: 0.393271 (Simulation time: 1 hr 28 min 5 sec) 
Heartbeat CPU 0 instructions: 139000000 cycles: 256771092 heartbeat IPC: 0.361665 cumulative IPC: 0.392885 (Simulation time: 1 hr 28 min 13 sec) 
Heartbeat CPU 0 instructions: 140000000 cycles: 259616649 heartbeat IPC: 0.351425 cumulative IPC: 0.392371 (Simulation time: 1 hr 28 min 21 sec) 
Heartbeat CPU 0 instructions: 141000001 cycles: 262307987 heartbeat IPC: 0.371563 cumulative IPC: 0.39213 (Simulation time: 1 hr 28 min 28 sec) 
Heartbeat CPU 0 instructions: 142000002 cycles: 264920276 heartbeat IPC: 0.382806 cumulative IPC: 0.392026 (Simulation time: 1 hr 28 min 36 sec) 
Heartbeat CPU 0 instructions: 143000001 cycles: 267567599 heartbeat IPC: 0.37774 cumulative IPC: 0.391866 (Simulation time: 1 hr 28 min 43 sec) 
Heartbeat CPU 0 instructions: 144000000 cycles: 270152226 heartbeat IPC: 0.386903 cumulative IPC: 0.391813 (Simulation time: 1 hr 28 min 49 sec) 
Heartbeat CPU 0 instructions: 145000000 cycles: 272761697 heartbeat IPC: 0.383219 cumulative IPC: 0.39172 (Simulation time: 1 hr 28 min 54 sec) 
Heartbeat CPU 0 instructions: 146000000 cycles: 275378907 heartbeat IPC: 0.382086 cumulative IPC: 0.391618 (Simulation time: 1 hr 29 min 0 sec) 
Heartbeat CPU 0 instructions: 147000002 cycles: 277781358 heartbeat IPC: 0.416242 cumulative IPC: 0.391857 (Simulation time: 1 hr 29 min 5 sec) 
Heartbeat CPU 0 instructions: 148000000 cycles: 279850586 heartbeat IPC: 0.483271 cumulative IPC: 0.392614 (Simulation time: 1 hr 29 min 10 sec) 
Heartbeat CPU 0 instructions: 149000001 cycles: 282291362 heartbeat IPC: 0.409706 cumulative IPC: 0.39278 (Simulation time: 1 hr 29 min 17 sec) 
Heartbeat CPU 0 instructions: 150000002 cycles: 285031758 heartbeat IPC: 0.364911 cumulative IPC: 0.39248 (Simulation time: 1 hr 29 min 22 sec) 
Finished CPU 0 instructions: 100000000 cycles: 254789960 cummulative IPC: 0.39248 (Simulation time: 1 hr 29 min 22 sec) 

ChampSim completed all CPUs

Region of Interest Statistics

CPU 0 cummulative IPC: 0.39248 instructions: 100000000 cycles: 254789960
LLC TOTAL     ACCESS:     651891  HIT:     607782  MISS:      44109
LLC LOAD      ACCESS:     308407  HIT:     289650  MISS:      18757
LLC RFO       ACCESS:      29186  HIT:      24108  MISS:       5078
LLC PREFETCH  ACCESS:     213176  HIT:     193285  MISS:      19891
LLC WRITEBACK ACCESS:     101122  HIT:     100739  MISS:        383
OPTgen accesses: 7688
OPTgen hits: 9304
OPTgen hit rate: 121.02


