
*** ChampSim Multicore Out-of-Order Simulator ***

Warmup Instructions: 50000000
Simulation Instructions: 100000000
Configuration: 2
Number of CPUs: 1
LLC sets: 2048
LLC ways: 16
Off-chip DRAM Channels: 1 Width: 64-bit Data Rate: 1600 MT/s

CPU 0 runs /datasets/cs240c-wi22-a00-public/data/Assignment2-gz/perlbench_105B.trace.gz
CPU 0 L1D next line prefetcher
CPU 0 L2C IP-based stride prefetcher
Initialize Hawkeye state
Heartbeat CPU 0 instructions: 1000000 cycles: 578016 heartbeat IPC: 1.73006 cumulative IPC: 1.73006 (Simulation time: 0 hr 0 min 40 sec) 
Heartbeat CPU 0 instructions: 2000001 cycles: 1164321 heartbeat IPC: 1.7056 cumulative IPC: 1.71774 (Simulation time: 0 hr 1 min 21 sec) 
Heartbeat CPU 0 instructions: 3000001 cycles: 1726557 heartbeat IPC: 1.77861 cumulative IPC: 1.73756 (Simulation time: 0 hr 1 min 58 sec) 
Heartbeat CPU 0 instructions: 4000000 cycles: 2305993 heartbeat IPC: 1.72581 cumulative IPC: 1.73461 (Simulation time: 0 hr 2 min 37 sec) 
Heartbeat CPU 0 instructions: 5000003 cycles: 2884260 heartbeat IPC: 1.72931 cumulative IPC: 1.73355 (Simulation time: 0 hr 3 min 14 sec) 
Heartbeat CPU 0 instructions: 6000003 cycles: 3447519 heartbeat IPC: 1.77538 cumulative IPC: 1.74038 (Simulation time: 0 hr 3 min 48 sec) 
Heartbeat CPU 0 instructions: 7000000 cycles: 4019987 heartbeat IPC: 1.74682 cumulative IPC: 1.7413 (Simulation time: 0 hr 4 min 23 sec) 
Heartbeat CPU 0 instructions: 8000000 cycles: 4598049 heartbeat IPC: 1.72992 cumulative IPC: 1.73987 (Simulation time: 0 hr 4 min 56 sec) 
Heartbeat CPU 0 instructions: 9000000 cycles: 5176571 heartbeat IPC: 1.72854 cumulative IPC: 1.7386 (Simulation time: 0 hr 5 min 29 sec) 
Heartbeat CPU 0 instructions: 10000002 cycles: 5745489 heartbeat IPC: 1.75773 cumulative IPC: 1.7405 (Simulation time: 0 hr 6 min 6 sec) 
Heartbeat CPU 0 instructions: 11000002 cycles: 6325420 heartbeat IPC: 1.72434 cumulative IPC: 1.73902 (Simulation time: 0 hr 6 min 40 sec) 
Heartbeat CPU 0 instructions: 12000000 cycles: 6904640 heartbeat IPC: 1.72646 cumulative IPC: 1.73796 (Simulation time: 0 hr 7 min 16 sec) 
Heartbeat CPU 0 instructions: 13000000 cycles: 7466406 heartbeat IPC: 1.7801 cumulative IPC: 1.74113 (Simulation time: 0 hr 7 min 48 sec) 
Heartbeat CPU 0 instructions: 14000000 cycles: 8041757 heartbeat IPC: 1.73807 cumulative IPC: 1.74091 (Simulation time: 0 hr 8 min 23 sec) 
Heartbeat CPU 0 instructions: 15000000 cycles: 8620508 heartbeat IPC: 1.72786 cumulative IPC: 1.74004 (Simulation time: 0 hr 9 min 3 sec) 
Heartbeat CPU 0 instructions: 16000000 cycles: 9184059 heartbeat IPC: 1.77446 cumulative IPC: 1.74215 (Simulation time: 0 hr 9 min 42 sec) 
Heartbeat CPU 0 instructions: 17000003 cycles: 9766692 heartbeat IPC: 1.71635 cumulative IPC: 1.74061 (Simulation time: 0 hr 10 min 23 sec) 
Heartbeat CPU 0 instructions: 18000001 cycles: 10370637 heartbeat IPC: 1.65578 cumulative IPC: 1.73567 (Simulation time: 0 hr 10 min 59 sec) 
Heartbeat CPU 0 instructions: 19000000 cycles: 10920618 heartbeat IPC: 1.81824 cumulative IPC: 1.73983 (Simulation time: 0 hr 11 min 37 sec) 
Heartbeat CPU 0 instructions: 20000000 cycles: 11470881 heartbeat IPC: 1.81731 cumulative IPC: 1.74355 (Simulation time: 0 hr 12 min 12 sec) 
Heartbeat CPU 0 instructions: 21000000 cycles: 12021676 heartbeat IPC: 1.81556 cumulative IPC: 1.74684 (Simulation time: 0 hr 12 min 45 sec) 
Heartbeat CPU 0 instructions: 22000001 cycles: 12572889 heartbeat IPC: 1.81418 cumulative IPC: 1.7498 (Simulation time: 0 hr 13 min 18 sec) 
Heartbeat CPU 0 instructions: 23000000 cycles: 13124776 heartbeat IPC: 1.81196 cumulative IPC: 1.75241 (Simulation time: 0 hr 13 min 49 sec) 
Heartbeat CPU 0 instructions: 24000000 cycles: 13678280 heartbeat IPC: 1.80667 cumulative IPC: 1.75461 (Simulation time: 0 hr 14 min 24 sec) 
Heartbeat CPU 0 instructions: 25000001 cycles: 14234470 heartbeat IPC: 1.79795 cumulative IPC: 1.7563 (Simulation time: 0 hr 15 min 1 sec) 
Heartbeat CPU 0 instructions: 26000001 cycles: 14838190 heartbeat IPC: 1.6564 cumulative IPC: 1.75224 (Simulation time: 0 hr 15 min 37 sec) 
Heartbeat CPU 0 instructions: 27000003 cycles: 15391842 heartbeat IPC: 1.80619 cumulative IPC: 1.75418 (Simulation time: 0 hr 16 min 9 sec) 
Heartbeat CPU 0 instructions: 28000000 cycles: 15942079 heartbeat IPC: 1.81739 cumulative IPC: 1.75636 (Simulation time: 0 hr 16 min 46 sec) 
Heartbeat CPU 0 instructions: 29000001 cycles: 16492470 heartbeat IPC: 1.81689 cumulative IPC: 1.75838 (Simulation time: 0 hr 17 min 19 sec) 
Heartbeat CPU 0 instructions: 30000001 cycles: 17043379 heartbeat IPC: 1.81518 cumulative IPC: 1.76021 (Simulation time: 0 hr 17 min 54 sec) 
Heartbeat CPU 0 instructions: 31000000 cycles: 17595215 heartbeat IPC: 1.81213 cumulative IPC: 1.76184 (Simulation time: 0 hr 18 min 32 sec) 
Heartbeat CPU 0 instructions: 32000000 cycles: 18147816 heartbeat IPC: 1.80962 cumulative IPC: 1.7633 (Simulation time: 0 hr 19 min 6 sec) 
Heartbeat CPU 0 instructions: 33000001 cycles: 18703042 heartbeat IPC: 1.80107 cumulative IPC: 1.76442 (Simulation time: 0 hr 19 min 44 sec) 
Heartbeat CPU 0 instructions: 34000002 cycles: 19267468 heartbeat IPC: 1.77171 cumulative IPC: 1.76463 (Simulation time: 0 hr 20 min 19 sec) 
Heartbeat CPU 0 instructions: 35000002 cycles: 19833113 heartbeat IPC: 1.76789 cumulative IPC: 1.76473 (Simulation time: 0 hr 20 min 51 sec) 
Heartbeat CPU 0 instructions: 36000000 cycles: 20373357 heartbeat IPC: 1.85101 cumulative IPC: 1.76701 (Simulation time: 0 hr 21 min 27 sec) 
Heartbeat CPU 0 instructions: 37000001 cycles: 21094634 heartbeat IPC: 1.38643 cumulative IPC: 1.754 (Simulation time: 0 hr 22 min 6 sec) 
Heartbeat CPU 0 instructions: 38000000 cycles: 21678249 heartbeat IPC: 1.71346 cumulative IPC: 1.75291 (Simulation time: 0 hr 22 min 41 sec) 
Heartbeat CPU 0 instructions: 39000001 cycles: 22326029 heartbeat IPC: 1.54374 cumulative IPC: 1.74684 (Simulation time: 0 hr 23 min 20 sec) 
Heartbeat CPU 0 instructions: 40000000 cycles: 22964990 heartbeat IPC: 1.56504 cumulative IPC: 1.74178 (Simulation time: 0 hr 23 min 59 sec) 
Heartbeat CPU 0 instructions: 41000000 cycles: 23601949 heartbeat IPC: 1.56996 cumulative IPC: 1.73714 (Simulation time: 0 hr 24 min 39 sec) 
Heartbeat CPU 0 instructions: 42000001 cycles: 24240549 heartbeat IPC: 1.56593 cumulative IPC: 1.73263 (Simulation time: 0 hr 25 min 19 sec) 
Heartbeat CPU 0 instructions: 43000000 cycles: 24878455 heartbeat IPC: 1.56763 cumulative IPC: 1.7284 (Simulation time: 0 hr 25 min 59 sec) 
Heartbeat CPU 0 instructions: 44000000 cycles: 25513738 heartbeat IPC: 1.5741 cumulative IPC: 1.72456 (Simulation time: 0 hr 26 min 35 sec) 
Heartbeat CPU 0 instructions: 45000001 cycles: 26155636 heartbeat IPC: 1.55788 cumulative IPC: 1.72047 (Simulation time: 0 hr 27 min 18 sec) 
Heartbeat CPU 0 instructions: 46000002 cycles: 26792893 heartbeat IPC: 1.56923 cumulative IPC: 1.71687 (Simulation time: 0 hr 27 min 53 sec) 
Heartbeat CPU 0 instructions: 47000002 cycles: 27427593 heartbeat IPC: 1.57555 cumulative IPC: 1.7136 (Simulation time: 0 hr 28 min 29 sec) 
Heartbeat CPU 0 instructions: 48000000 cycles: 28061718 heartbeat IPC: 1.57697 cumulative IPC: 1.71052 (Simulation time: 0 hr 29 min 5 sec) 
Heartbeat CPU 0 instructions: 49000001 cycles: 28697108 heartbeat IPC: 1.57384 cumulative IPC: 1.70749 (Simulation time: 0 hr 29 min 47 sec) 
Heartbeat CPU 0 instructions: 50000002 cycles: 29331068 heartbeat IPC: 1.57739 cumulative IPC: 1.70468 (Simulation time: 0 hr 30 min 26 sec) 

Warmup complete CPU 0 instructions: 50000002 cycles: 29331068 (Simulation time: 0 hr 30 min 26 sec) 

Heartbeat CPU 0 instructions: 51000003 cycles: 31940711 heartbeat IPC: 0.383195 cumulative IPC: 0.383195 (Simulation time: 0 hr 31 min 10 sec) 
Heartbeat CPU 0 instructions: 52000000 cycles: 34528861 heartbeat IPC: 0.386375 cumulative IPC: 0.384778 (Simulation time: 0 hr 31 min 51 sec) 
Heartbeat CPU 0 instructions: 53000000 cycles: 37107026 heartbeat IPC: 0.387873 cumulative IPC: 0.385804 (Simulation time: 0 hr 32 min 31 sec) 
Heartbeat CPU 0 instructions: 54000000 cycles: 39723617 heartbeat IPC: 0.382177 cumulative IPC: 0.384891 (Simulation time: 0 hr 33 min 12 sec) 
Heartbeat CPU 0 instructions: 55000003 cycles: 42284742 heartbeat IPC: 0.390455 cumulative IPC: 0.385991 (Simulation time: 0 hr 33 min 50 sec) 
Heartbeat CPU 0 instructions: 56000000 cycles: 44663654 heartbeat IPC: 0.420359 cumulative IPC: 0.391323 (Simulation time: 0 hr 34 min 33 sec) 
Heartbeat CPU 0 instructions: 57000002 cycles: 46939013 heartbeat IPC: 0.439492 cumulative IPC: 0.397548 (Simulation time: 0 hr 35 min 19 sec) 
Heartbeat CPU 0 instructions: 58000001 cycles: 48260390 heartbeat IPC: 0.756786 cumulative IPC: 0.422625 (Simulation time: 0 hr 35 min 50 sec) 
Heartbeat CPU 0 instructions: 59000002 cycles: 50492709 heartbeat IPC: 0.447965 cumulative IPC: 0.425298 (Simulation time: 0 hr 36 min 35 sec) 
Heartbeat CPU 0 instructions: 60000000 cycles: 52841460 heartbeat IPC: 0.425757 cumulative IPC: 0.425344 (Simulation time: 0 hr 37 min 23 sec) 
Heartbeat CPU 0 instructions: 61000002 cycles: 55290950 heartbeat IPC: 0.408249 cumulative IPC: 0.423731 (Simulation time: 0 hr 38 min 15 sec) 
Heartbeat CPU 0 instructions: 62000000 cycles: 57657238 heartbeat IPC: 0.422602 cumulative IPC: 0.423636 (Simulation time: 0 hr 39 min 10 sec) 
Heartbeat CPU 0 instructions: 63000000 cycles: 60019755 heartbeat IPC: 0.423277 cumulative IPC: 0.423609 (Simulation time: 0 hr 40 min 4 sec) 
Heartbeat CPU 0 instructions: 64000000 cycles: 62439249 heartbeat IPC: 0.41331 cumulative IPC: 0.422856 (Simulation time: 0 hr 40 min 53 sec) 
Heartbeat CPU 0 instructions: 65000003 cycles: 64763503 heartbeat IPC: 0.430247 cumulative IPC: 0.423341 (Simulation time: 0 hr 41 min 39 sec) 
Heartbeat CPU 0 instructions: 66000002 cycles: 67106736 heartbeat IPC: 0.42676 cumulative IPC: 0.423553 (Simulation time: 0 hr 42 min 31 sec) 
Heartbeat CPU 0 instructions: 67000001 cycles: 69462136 heartbeat IPC: 0.424556 cumulative IPC: 0.423612 (Simulation time: 0 hr 43 min 19 sec) 
Heartbeat CPU 0 instructions: 68000000 cycles: 71910327 heartbeat IPC: 0.408464 cumulative IPC: 0.422741 (Simulation time: 0 hr 44 min 7 sec) 
Heartbeat CPU 0 instructions: 69000001 cycles: 74262609 heartbeat IPC: 0.42512 cumulative IPC: 0.422866 (Simulation time: 0 hr 44 min 56 sec) 
Heartbeat CPU 0 instructions: 70000000 cycles: 76678447 heartbeat IPC: 0.413935 cumulative IPC: 0.42241 (Simulation time: 0 hr 45 min 47 sec) 
Heartbeat CPU 0 instructions: 71000000 cycles: 79064737 heartbeat IPC: 0.419061 cumulative IPC: 0.422249 (Simulation time: 0 hr 46 min 38 sec) 
Heartbeat CPU 0 instructions: 72000000 cycles: 81393559 heartbeat IPC: 0.429402 cumulative IPC: 0.422569 (Simulation time: 0 hr 47 min 26 sec) 
Heartbeat CPU 0 instructions: 73000000 cycles: 83726242 heartbeat IPC: 0.428691 cumulative IPC: 0.422832 (Simulation time: 0 hr 48 min 15 sec) 
Heartbeat CPU 0 instructions: 74000002 cycles: 86111381 heartbeat IPC: 0.419264 cumulative IPC: 0.422682 (Simulation time: 0 hr 49 min 5 sec) 
Heartbeat CPU 0 instructions: 75000000 cycles: 88534830 heartbeat IPC: 0.412634 cumulative IPC: 0.42227 (Simulation time: 0 hr 49 min 55 sec) 
Heartbeat CPU 0 instructions: 76000000 cycles: 90894112 heartbeat IPC: 0.423858 cumulative IPC: 0.422331 (Simulation time: 0 hr 50 min 43 sec) 
Heartbeat CPU 0 instructions: 77000000 cycles: 93328607 heartbeat IPC: 0.410763 cumulative IPC: 0.421891 (Simulation time: 0 hr 51 min 28 sec) 
Heartbeat CPU 0 instructions: 78000002 cycles: 95693711 heartbeat IPC: 0.422815 cumulative IPC: 0.421924 (Simulation time: 0 hr 52 min 16 sec) 
Heartbeat CPU 0 instructions: 79000001 cycles: 98030193 heartbeat IPC: 0.427993 cumulative IPC: 0.422131 (Simulation time: 0 hr 53 min 3 sec) 
Heartbeat CPU 0 instructions: 80000000 cycles: 100361426 heartbeat IPC: 0.428957 cumulative IPC: 0.422355 (Simulation time: 0 hr 53 min 51 sec) 
Heartbeat CPU 0 instructions: 81000000 cycles: 102785110 heartbeat IPC: 0.412595 cumulative IPC: 0.422033 (Simulation time: 0 hr 54 min 38 sec) 
Heartbeat CPU 0 instructions: 82000000 cycles: 105148148 heartbeat IPC: 0.423184 cumulative IPC: 0.422068 (Simulation time: 0 hr 55 min 28 sec) 
Heartbeat CPU 0 instructions: 83000002 cycles: 107468890 heartbeat IPC: 0.430898 cumulative IPC: 0.422331 (Simulation time: 0 hr 56 min 23 sec) 
Heartbeat CPU 0 instructions: 84000000 cycles: 109891442 heartbeat IPC: 0.412787 cumulative IPC: 0.422044 (Simulation time: 0 hr 57 min 13 sec) 
Heartbeat CPU 0 instructions: 85000000 cycles: 112265810 heartbeat IPC: 0.421165 cumulative IPC: 0.422019 (Simulation time: 0 hr 58 min 7 sec) 
Heartbeat CPU 0 instructions: 86000000 cycles: 114615464 heartbeat IPC: 0.425595 cumulative IPC: 0.422117 (Simulation time: 0 hr 59 min 0 sec) 
Heartbeat CPU 0 instructions: 87000001 cycles: 117061783 heartbeat IPC: 0.408778 cumulative IPC: 0.421745 (Simulation time: 0 hr 59 min 45 sec) 
Heartbeat CPU 0 instructions: 88000000 cycles: 119427437 heartbeat IPC: 0.422716 cumulative IPC: 0.421771 (Simulation time: 1 hr 0 min 32 sec) 
Heartbeat CPU 0 instructions: 89000002 cycles: 121752587 heartbeat IPC: 0.430081 cumulative IPC: 0.42198 (Simulation time: 1 hr 1 min 19 sec) 
Heartbeat CPU 0 instructions: 90000002 cycles: 124116238 heartbeat IPC: 0.423074 cumulative IPC: 0.422007 (Simulation time: 1 hr 2 min 10 sec) 
Heartbeat CPU 0 instructions: 91000003 cycles: 126532801 heartbeat IPC: 0.413811 cumulative IPC: 0.421803 (Simulation time: 1 hr 2 min 57 sec) 
Heartbeat CPU 0 instructions: 92000000 cycles: 128891483 heartbeat IPC: 0.423964 cumulative IPC: 0.421854 (Simulation time: 1 hr 3 min 50 sec) 
Heartbeat CPU 0 instructions: 93000001 cycles: 131238223 heartbeat IPC: 0.426123 cumulative IPC: 0.421953 (Simulation time: 1 hr 4 min 47 sec) 
Heartbeat CPU 0 instructions: 94000002 cycles: 133690685 heartbeat IPC: 0.407754 cumulative IPC: 0.421619 (Simulation time: 1 hr 5 min 35 sec) 
Heartbeat CPU 0 instructions: 95000000 cycles: 136051517 heartbeat IPC: 0.423579 cumulative IPC: 0.421662 (Simulation time: 1 hr 6 min 22 sec) 
Heartbeat CPU 0 instructions: 96000000 cycles: 138374808 heartbeat IPC: 0.430424 cumulative IPC: 0.421849 (Simulation time: 1 hr 7 min 6 sec) 
Heartbeat CPU 0 instructions: 97000000 cycles: 140761639 heartbeat IPC: 0.418966 cumulative IPC: 0.421787 (Simulation time: 1 hr 7 min 51 sec) 
Heartbeat CPU 0 instructions: 98000001 cycles: 143161652 heartbeat IPC: 0.416665 cumulative IPC: 0.421679 (Simulation time: 1 hr 8 min 34 sec) 
Heartbeat CPU 0 instructions: 99000002 cycles: 145520241 heartbeat IPC: 0.423983 cumulative IPC: 0.421726 (Simulation time: 1 hr 9 min 21 sec) 
Heartbeat CPU 0 instructions: 100000000 cycles: 147872267 heartbeat IPC: 0.425165 cumulative IPC: 0.421794 (Simulation time: 1 hr 10 min 3 sec) 
Heartbeat CPU 0 instructions: 101000000 cycles: 150287827 heartbeat IPC: 0.413983 cumulative IPC: 0.421638 (Simulation time: 1 hr 10 min 45 sec) 
Heartbeat CPU 0 instructions: 102000000 cycles: 152520405 heartbeat IPC: 0.447913 cumulative IPC: 0.422114 (Simulation time: 1 hr 11 min 28 sec) 
Heartbeat CPU 0 instructions: 103000001 cycles: 155025005 heartbeat IPC: 0.399266 cumulative IPC: 0.421659 (Simulation time: 1 hr 12 min 12 sec) 
Heartbeat CPU 0 instructions: 104000000 cycles: 157527525 heartbeat IPC: 0.399597 cumulative IPC: 0.421228 (Simulation time: 1 hr 12 min 56 sec) 
Heartbeat CPU 0 instructions: 105000000 cycles: 160027398 heartbeat IPC: 0.40002 cumulative IPC: 0.420823 (Simulation time: 1 hr 13 min 35 sec) 
Heartbeat CPU 0 instructions: 106000000 cycles: 162523603 heartbeat IPC: 0.400608 cumulative IPC: 0.420444 (Simulation time: 1 hr 14 min 12 sec) 
Heartbeat CPU 0 instructions: 107000001 cycles: 165014195 heartbeat IPC: 0.401511 cumulative IPC: 0.420096 (Simulation time: 1 hr 14 min 50 sec) 
Heartbeat CPU 0 instructions: 108000000 cycles: 167494601 heartbeat IPC: 0.403159 cumulative IPC: 0.419792 (Simulation time: 1 hr 15 min 23 sec) 
Heartbeat CPU 0 instructions: 109000002 cycles: 169950750 heartbeat IPC: 0.407142 cumulative IPC: 0.419571 (Simulation time: 1 hr 15 min 55 sec) 
Heartbeat CPU 0 instructions: 110000000 cycles: 172270381 heartbeat IPC: 0.431102 cumulative IPC: 0.419759 (Simulation time: 1 hr 16 min 28 sec) 
Heartbeat CPU 0 instructions: 111000001 cycles: 174703982 heartbeat IPC: 0.410914 cumulative IPC: 0.41961 (Simulation time: 1 hr 17 min 0 sec) 
Heartbeat CPU 0 instructions: 112000000 cycles: 177072163 heartbeat IPC: 0.422265 cumulative IPC: 0.419653 (Simulation time: 1 hr 17 min 30 sec) 
Heartbeat CPU 0 instructions: 113000002 cycles: 179404653 heartbeat IPC: 0.428727 cumulative IPC: 0.419794 (Simulation time: 1 hr 17 min 59 sec) 
Heartbeat CPU 0 instructions: 114000003 cycles: 181742206 heartbeat IPC: 0.427798 cumulative IPC: 0.419917 (Simulation time: 1 hr 18 min 28 sec) 
Heartbeat CPU 0 instructions: 115000000 cycles: 184157423 heartbeat IPC: 0.41404 cumulative IPC: 0.419825 (Simulation time: 1 hr 18 min 57 sec) 
Heartbeat CPU 0 instructions: 116000000 cycles: 186547262 heartbeat IPC: 0.418438 cumulative IPC: 0.419804 (Simulation time: 1 hr 19 min 26 sec) 
Heartbeat CPU 0 instructions: 117000000 cycles: 188899607 heartbeat IPC: 0.425108 cumulative IPC: 0.419882 (Simulation time: 1 hr 19 min 53 sec) 
Heartbeat CPU 0 instructions: 118000002 cycles: 191341616 heartbeat IPC: 0.4095 cumulative IPC: 0.419726 (Simulation time: 1 hr 20 min 20 sec) 
Heartbeat CPU 0 instructions: 119000001 cycles: 193680230 heartbeat IPC: 0.427603 cumulative IPC: 0.419838 (Simulation time: 1 hr 20 min 44 sec) 
Heartbeat CPU 0 instructions: 120000000 cycles: 196007675 heartbeat IPC: 0.429655 cumulative IPC: 0.419975 (Simulation time: 1 hr 21 min 9 sec) 
Heartbeat CPU 0 instructions: 121000000 cycles: 198364630 heartbeat IPC: 0.424276 cumulative IPC: 0.420035 (Simulation time: 1 hr 21 min 33 sec) 
Heartbeat CPU 0 instructions: 122000003 cycles: 200777804 heartbeat IPC: 0.414393 cumulative IPC: 0.419956 (Simulation time: 1 hr 21 min 58 sec) 
Heartbeat CPU 0 instructions: 123000003 cycles: 203148612 heartbeat IPC: 0.421797 cumulative IPC: 0.419981 (Simulation time: 1 hr 22 min 22 sec) 
Heartbeat CPU 0 instructions: 124000000 cycles: 205497138 heartbeat IPC: 0.425798 cumulative IPC: 0.420058 (Simulation time: 1 hr 22 min 44 sec) 
Heartbeat CPU 0 instructions: 125000000 cycles: 207946831 heartbeat IPC: 0.408214 cumulative IPC: 0.419896 (Simulation time: 1 hr 23 min 6 sec) 
Heartbeat CPU 0 instructions: 126000000 cycles: 210300709 heartbeat IPC: 0.424831 cumulative IPC: 0.41996 (Simulation time: 1 hr 23 min 28 sec) 
Heartbeat CPU 0 instructions: 127000002 cycles: 212614823 heartbeat IPC: 0.432132 cumulative IPC: 0.420114 (Simulation time: 1 hr 23 min 48 sec) 
Heartbeat CPU 0 instructions: 128000000 cycles: 214989823 heartbeat IPC: 0.421052 cumulative IPC: 0.420126 (Simulation time: 1 hr 24 min 9 sec) 
Heartbeat CPU 0 instructions: 129000002 cycles: 217380034 heartbeat IPC: 0.418374 cumulative IPC: 0.420103 (Simulation time: 1 hr 24 min 29 sec) 
Heartbeat CPU 0 instructions: 130000000 cycles: 219724301 heartbeat IPC: 0.426572 cumulative IPC: 0.420183 (Simulation time: 1 hr 24 min 47 sec) 
Heartbeat CPU 0 instructions: 131000002 cycles: 222073922 heartbeat IPC: 0.425601 cumulative IPC: 0.420249 (Simulation time: 1 hr 25 min 5 sec) 
Heartbeat CPU 0 instructions: 132000000 cycles: 224516148 heartbeat IPC: 0.409462 cumulative IPC: 0.420114 (Simulation time: 1 hr 25 min 23 sec) 
Heartbeat CPU 0 instructions: 133000001 cycles: 226883362 heartbeat IPC: 0.422438 cumulative IPC: 0.420142 (Simulation time: 1 hr 25 min 42 sec) 
Heartbeat CPU 0 instructions: 134000001 cycles: 229229662 heartbeat IPC: 0.426203 cumulative IPC: 0.420213 (Simulation time: 1 hr 25 min 59 sec) 
Heartbeat CPU 0 instructions: 135000000 cycles: 231649354 heartbeat IPC: 0.413275 cumulative IPC: 0.42013 (Simulation time: 1 hr 26 min 16 sec) 
Heartbeat CPU 0 instructions: 136000000 cycles: 233980720 heartbeat IPC: 0.428933 cumulative IPC: 0.42023 (Simulation time: 1 hr 26 min 31 sec) 
Heartbeat CPU 0 instructions: 137000003 cycles: 236321227 heartbeat IPC: 0.427259 cumulative IPC: 0.42031 (Simulation time: 1 hr 26 min 47 sec) 
Heartbeat CPU 0 instructions: 138000002 cycles: 238666165 heartbeat IPC: 0.42645 cumulative IPC: 0.420379 (Simulation time: 1 hr 27 min 2 sec) 
Heartbeat CPU 0 instructions: 139000001 cycles: 241117559 heartbeat IPC: 0.407931 cumulative IPC: 0.420235 (Simulation time: 1 hr 27 min 16 sec) 
Heartbeat CPU 0 instructions: 140000000 cycles: 243476283 heartbeat IPC: 0.423958 cumulative IPC: 0.420276 (Simulation time: 1 hr 27 min 27 sec) 
Heartbeat CPU 0 instructions: 141000002 cycles: 245852433 heartbeat IPC: 0.42085 cumulative IPC: 0.420282 (Simulation time: 1 hr 27 min 37 sec) 
Heartbeat CPU 0 instructions: 142000000 cycles: 248262384 heartbeat IPC: 0.414945 cumulative IPC: 0.420223 (Simulation time: 1 hr 27 min 48 sec) 
Heartbeat CPU 0 instructions: 143000002 cycles: 250602693 heartbeat IPC: 0.427295 cumulative IPC: 0.420298 (Simulation time: 1 hr 27 min 57 sec) 
Heartbeat CPU 0 instructions: 144000000 cycles: 252918683 heartbeat IPC: 0.43178 cumulative IPC: 0.420417 (Simulation time: 1 hr 28 min 5 sec) 
Heartbeat CPU 0 instructions: 145000000 cycles: 255284657 heartbeat IPC: 0.422659 cumulative IPC: 0.42044 (Simulation time: 1 hr 28 min 14 sec) 
Heartbeat CPU 0 instructions: 146000002 cycles: 257721285 heartbeat IPC: 0.410404 cumulative IPC: 0.420333 (Simulation time: 1 hr 28 min 22 sec) 
Heartbeat CPU 0 instructions: 147000000 cycles: 260073651 heartbeat IPC: 0.425103 cumulative IPC: 0.420382 (Simulation time: 1 hr 28 min 31 sec) 
Heartbeat CPU 0 instructions: 148000000 cycles: 262495516 heartbeat IPC: 0.412905 cumulative IPC: 0.420304 (Simulation time: 1 hr 28 min 38 sec) 
Heartbeat CPU 0 instructions: 149000001 cycles: 264865672 heartbeat IPC: 0.421914 cumulative IPC: 0.42032 (Simulation time: 1 hr 28 min 46 sec) 
Heartbeat CPU 0 instructions: 150000002 cycles: 267197492 heartbeat IPC: 0.42885 cumulative IPC: 0.420404 (Simulation time: 1 hr 28 min 52 sec) 
Finished CPU 0 instructions: 100000000 cycles: 237866424 cummulative IPC: 0.420404 (Simulation time: 1 hr 28 min 52 sec) 

ChampSim completed all CPUs

Region of Interest Statistics

CPU 0 cummulative IPC: 0.420404 instructions: 100000000 cycles: 237866424
LLC TOTAL     ACCESS:      45230  HIT:      43084  MISS:       2146
LLC LOAD      ACCESS:      21126  HIT:      20608  MISS:        518
LLC RFO       ACCESS:       2813  HIT:       1794  MISS:       1019
LLC PREFETCH  ACCESS:      14816  HIT:      14234  MISS:        582
LLC WRITEBACK ACCESS:       6475  HIT:       6448  MISS:         27
OPTgen accesses: 1763
OPTgen hits: 2190
OPTgen hit rate: 124.22


