
*** ChampSim Multicore Out-of-Order Simulator ***

Warmup Instructions: 50000000
Simulation Instructions: 100000000
Configuration: 2
Number of CPUs: 1
LLC sets: 2048
LLC ways: 16
Off-chip DRAM Channels: 1 Width: 64-bit Data Rate: 1600 MT/s

CPU 0 runs /datasets/cs240c-wi22-a00-public/data/Assignment2-gz/sphinx3_883B.trace.gz
CPU 0 L1D next line prefetcher
CPU 0 L2C IP-based stride prefetcher
Initialize Hawkeye state
Heartbeat CPU 0 instructions: 1000003 cycles: 414365 heartbeat IPC: 2.41334 cumulative IPC: 2.41334 (Simulation time: 0 hr 0 min 35 sec) 
Heartbeat CPU 0 instructions: 2000000 cycles: 823887 heartbeat IPC: 2.44186 cumulative IPC: 2.42752 (Simulation time: 0 hr 1 min 11 sec) 
Heartbeat CPU 0 instructions: 3000003 cycles: 1298677 heartbeat IPC: 2.1062 cumulative IPC: 2.31005 (Simulation time: 0 hr 1 min 44 sec) 
Heartbeat CPU 0 instructions: 4000000 cycles: 1637567 heartbeat IPC: 2.9508 cumulative IPC: 2.44265 (Simulation time: 0 hr 2 min 15 sec) 
Heartbeat CPU 0 instructions: 5000000 cycles: 1992234 heartbeat IPC: 2.81955 cumulative IPC: 2.50975 (Simulation time: 0 hr 2 min 46 sec) 
Heartbeat CPU 0 instructions: 6000003 cycles: 2406675 heartbeat IPC: 2.4129 cumulative IPC: 2.49307 (Simulation time: 0 hr 3 min 21 sec) 
Heartbeat CPU 0 instructions: 7000002 cycles: 2815449 heartbeat IPC: 2.44634 cumulative IPC: 2.48628 (Simulation time: 0 hr 3 min 51 sec) 
Heartbeat CPU 0 instructions: 8000000 cycles: 3291286 heartbeat IPC: 2.10156 cumulative IPC: 2.43066 (Simulation time: 0 hr 4 min 19 sec) 
Heartbeat CPU 0 instructions: 9000001 cycles: 3630285 heartbeat IPC: 2.94986 cumulative IPC: 2.47914 (Simulation time: 0 hr 4 min 48 sec) 
Heartbeat CPU 0 instructions: 10000000 cycles: 3984376 heartbeat IPC: 2.82413 cumulative IPC: 2.5098 (Simulation time: 0 hr 5 min 14 sec) 
Heartbeat CPU 0 instructions: 11000000 cycles: 4398825 heartbeat IPC: 2.41284 cumulative IPC: 2.50067 (Simulation time: 0 hr 5 min 44 sec) 
Heartbeat CPU 0 instructions: 12000000 cycles: 4811681 heartbeat IPC: 2.42215 cumulative IPC: 2.49393 (Simulation time: 0 hr 6 min 15 sec) 
Heartbeat CPU 0 instructions: 13000001 cycles: 5277001 heartbeat IPC: 2.14906 cumulative IPC: 2.46352 (Simulation time: 0 hr 6 min 47 sec) 
Heartbeat CPU 0 instructions: 14000001 cycles: 5630833 heartbeat IPC: 2.8262 cumulative IPC: 2.48631 (Simulation time: 0 hr 7 min 14 sec) 
Heartbeat CPU 0 instructions: 15000000 cycles: 5977465 heartbeat IPC: 2.8849 cumulative IPC: 2.50942 (Simulation time: 0 hr 7 min 44 sec) 
Heartbeat CPU 0 instructions: 16000000 cycles: 6390917 heartbeat IPC: 2.41866 cumulative IPC: 2.50355 (Simulation time: 0 hr 8 min 20 sec) 
Heartbeat CPU 0 instructions: 17000000 cycles: 6803006 heartbeat IPC: 2.42666 cumulative IPC: 2.4989 (Simulation time: 0 hr 8 min 52 sec) 
Heartbeat CPU 0 instructions: 18000000 cycles: 7219361 heartbeat IPC: 2.4018 cumulative IPC: 2.4933 (Simulation time: 0 hr 9 min 23 sec) 
Heartbeat CPU 0 instructions: 19000003 cycles: 7633911 heartbeat IPC: 2.41226 cumulative IPC: 2.48889 (Simulation time: 0 hr 9 min 50 sec) 
Heartbeat CPU 0 instructions: 20000000 cycles: 7972861 heartbeat IPC: 2.95028 cumulative IPC: 2.50851 (Simulation time: 0 hr 10 min 19 sec) 
Heartbeat CPU 0 instructions: 21000000 cycles: 8382520 heartbeat IPC: 2.44105 cumulative IPC: 2.50521 (Simulation time: 0 hr 10 min 51 sec) 
Heartbeat CPU 0 instructions: 22000003 cycles: 8796016 heartbeat IPC: 2.41841 cumulative IPC: 2.50113 (Simulation time: 0 hr 11 min 20 sec) 
Heartbeat CPU 0 instructions: 23000003 cycles: 9206171 heartbeat IPC: 2.4381 cumulative IPC: 2.49832 (Simulation time: 0 hr 11 min 51 sec) 
Heartbeat CPU 0 instructions: 24000000 cycles: 9656872 heartbeat IPC: 2.21876 cumulative IPC: 2.48528 (Simulation time: 0 hr 12 min 20 sec) 
Heartbeat CPU 0 instructions: 25000000 cycles: 9995910 heartbeat IPC: 2.94952 cumulative IPC: 2.50102 (Simulation time: 0 hr 12 min 45 sec) 
Heartbeat CPU 0 instructions: 26000001 cycles: 10373084 heartbeat IPC: 2.6513 cumulative IPC: 2.50649 (Simulation time: 0 hr 13 min 16 sec) 
Heartbeat CPU 0 instructions: 27000001 cycles: 10788130 heartbeat IPC: 2.40937 cumulative IPC: 2.50275 (Simulation time: 0 hr 13 min 47 sec) 
Heartbeat CPU 0 instructions: 28000000 cycles: 11202962 heartbeat IPC: 2.41061 cumulative IPC: 2.49934 (Simulation time: 0 hr 14 min 18 sec) 
Heartbeat CPU 0 instructions: 29000003 cycles: 11666306 heartbeat IPC: 2.15823 cumulative IPC: 2.48579 (Simulation time: 0 hr 14 min 45 sec) 
Heartbeat CPU 0 instructions: 30000000 cycles: 12005225 heartbeat IPC: 2.95055 cumulative IPC: 2.49891 (Simulation time: 0 hr 15 min 12 sec) 
Heartbeat CPU 0 instructions: 31000003 cycles: 12368540 heartbeat IPC: 2.75244 cumulative IPC: 2.50636 (Simulation time: 0 hr 15 min 42 sec) 
Heartbeat CPU 0 instructions: 32000000 cycles: 12783594 heartbeat IPC: 2.40932 cumulative IPC: 2.50321 (Simulation time: 0 hr 16 min 14 sec) 
Heartbeat CPU 0 instructions: 33000001 cycles: 13193210 heartbeat IPC: 2.44131 cumulative IPC: 2.50129 (Simulation time: 0 hr 16 min 46 sec) 
Heartbeat CPU 0 instructions: 34000000 cycles: 13667383 heartbeat IPC: 2.10893 cumulative IPC: 2.48767 (Simulation time: 0 hr 17 min 12 sec) 
Heartbeat CPU 0 instructions: 35000000 cycles: 14006347 heartbeat IPC: 2.95017 cumulative IPC: 2.49887 (Simulation time: 0 hr 17 min 39 sec) 
Heartbeat CPU 0 instructions: 36000000 cycles: 14364642 heartbeat IPC: 2.791 cumulative IPC: 2.50615 (Simulation time: 0 hr 18 min 6 sec) 
Heartbeat CPU 0 instructions: 37000001 cycles: 14780676 heartbeat IPC: 2.40365 cumulative IPC: 2.50327 (Simulation time: 0 hr 18 min 39 sec) 
Heartbeat CPU 0 instructions: 38000000 cycles: 15190281 heartbeat IPC: 2.44137 cumulative IPC: 2.5016 (Simulation time: 0 hr 19 min 7 sec) 
Heartbeat CPU 0 instructions: 39000002 cycles: 15665316 heartbeat IPC: 2.10511 cumulative IPC: 2.48958 (Simulation time: 0 hr 19 min 44 sec) 
Heartbeat CPU 0 instructions: 40000000 cycles: 16004295 heartbeat IPC: 2.95003 cumulative IPC: 2.49933 (Simulation time: 0 hr 20 min 12 sec) 
Heartbeat CPU 0 instructions: 41000003 cycles: 16361610 heartbeat IPC: 2.79866 cumulative IPC: 2.50587 (Simulation time: 0 hr 20 min 38 sec) 
Heartbeat CPU 0 instructions: 42000000 cycles: 16777700 heartbeat IPC: 2.40332 cumulative IPC: 2.50332 (Simulation time: 0 hr 21 min 12 sec) 
Heartbeat CPU 0 instructions: 43000001 cycles: 17189098 heartbeat IPC: 2.43074 cumulative IPC: 2.50159 (Simulation time: 0 hr 21 min 47 sec) 
Heartbeat CPU 0 instructions: 44000000 cycles: 17659821 heartbeat IPC: 2.12439 cumulative IPC: 2.49153 (Simulation time: 0 hr 22 min 18 sec) 
Heartbeat CPU 0 instructions: 45000001 cycles: 17998813 heartbeat IPC: 2.94993 cumulative IPC: 2.50016 (Simulation time: 0 hr 22 min 44 sec) 
Heartbeat CPU 0 instructions: 46000001 cycles: 18359150 heartbeat IPC: 2.77518 cumulative IPC: 2.50556 (Simulation time: 0 hr 23 min 14 sec) 
Heartbeat CPU 0 instructions: 47000003 cycles: 18773730 heartbeat IPC: 2.41208 cumulative IPC: 2.5035 (Simulation time: 0 hr 23 min 46 sec) 
Heartbeat CPU 0 instructions: 48000000 cycles: 19189540 heartbeat IPC: 2.40494 cumulative IPC: 2.50136 (Simulation time: 0 hr 24 min 16 sec) 
Heartbeat CPU 0 instructions: 49000001 cycles: 19647630 heartbeat IPC: 2.18298 cumulative IPC: 2.49394 (Simulation time: 0 hr 24 min 43 sec) 
Heartbeat CPU 0 instructions: 50000003 cycles: 19986583 heartbeat IPC: 2.95027 cumulative IPC: 2.50168 (Simulation time: 0 hr 25 min 10 sec) 

Warmup complete CPU 0 instructions: 50000003 cycles: 19986583 (Simulation time: 0 hr 25 min 10 sec) 

Heartbeat CPU 0 instructions: 51000003 cycles: 21107251 heartbeat IPC: 0.892325 cumulative IPC: 0.892325 (Simulation time: 0 hr 25 min 43 sec) 
Heartbeat CPU 0 instructions: 52000000 cycles: 22732132 heartbeat IPC: 0.615428 cumulative IPC: 0.728451 (Simulation time: 0 hr 26 min 17 sec) 
Heartbeat CPU 0 instructions: 53000000 cycles: 24640180 heartbeat IPC: 0.524096 cumulative IPC: 0.644662 (Simulation time: 0 hr 26 min 52 sec) 
Heartbeat CPU 0 instructions: 54000003 cycles: 25915568 heartbeat IPC: 0.784077 cumulative IPC: 0.674652 (Simulation time: 0 hr 27 min 24 sec) 
Heartbeat CPU 0 instructions: 55000003 cycles: 26854656 heartbeat IPC: 1.06486 cumulative IPC: 0.728006 (Simulation time: 0 hr 27 min 57 sec) 
Heartbeat CPU 0 instructions: 56000000 cycles: 27763196 heartbeat IPC: 1.10066 cumulative IPC: 0.771544 (Simulation time: 0 hr 28 min 31 sec) 
Heartbeat CPU 0 instructions: 57000002 cycles: 28978947 heartbeat IPC: 0.822538 cumulative IPC: 0.778438 (Simulation time: 0 hr 29 min 3 sec) 
Heartbeat CPU 0 instructions: 58000001 cycles: 30008953 heartbeat IPC: 0.970867 cumulative IPC: 0.798214 (Simulation time: 0 hr 29 min 35 sec) 
Heartbeat CPU 0 instructions: 59000003 cycles: 30902528 heartbeat IPC: 1.1191 cumulative IPC: 0.824482 (Simulation time: 0 hr 30 min 9 sec) 
Heartbeat CPU 0 instructions: 60000000 cycles: 31824379 heartbeat IPC: 1.08477 cumulative IPC: 0.844752 (Simulation time: 0 hr 30 min 41 sec) 
Heartbeat CPU 0 instructions: 61000001 cycles: 33045928 heartbeat IPC: 0.818634 cumulative IPC: 0.842309 (Simulation time: 0 hr 31 min 14 sec) 
Heartbeat CPU 0 instructions: 62000001 cycles: 33920221 heartbeat IPC: 1.14378 cumulative IPC: 0.861225 (Simulation time: 0 hr 31 min 45 sec) 
Heartbeat CPU 0 instructions: 63000003 cycles: 34783938 heartbeat IPC: 1.15779 cumulative IPC: 0.878535 (Simulation time: 0 hr 32 min 15 sec) 
Heartbeat CPU 0 instructions: 64000000 cycles: 36072415 heartbeat IPC: 0.776108 cumulative IPC: 0.870331 (Simulation time: 0 hr 32 min 47 sec) 
Heartbeat CPU 0 instructions: 65000003 cycles: 36952907 heartbeat IPC: 1.13573 cumulative IPC: 0.884104 (Simulation time: 0 hr 33 min 16 sec) 
Heartbeat CPU 0 instructions: 66000002 cycles: 37819820 heartbeat IPC: 1.15352 cumulative IPC: 0.897201 (Simulation time: 0 hr 33 min 44 sec) 
Heartbeat CPU 0 instructions: 67000000 cycles: 39116435 heartbeat IPC: 0.771237 cumulative IPC: 0.888663 (Simulation time: 0 hr 34 min 15 sec) 
Heartbeat CPU 0 instructions: 68000000 cycles: 40773908 heartbeat IPC: 0.603328 cumulative IPC: 0.865912 (Simulation time: 0 hr 34 min 46 sec) 
Heartbeat CPU 0 instructions: 69000003 cycles: 41643835 heartbeat IPC: 1.14953 cumulative IPC: 0.877304 (Simulation time: 0 hr 35 min 15 sec) 
Heartbeat CPU 0 instructions: 70000000 cycles: 42518590 heartbeat IPC: 1.14317 cumulative IPC: 0.887626 (Simulation time: 0 hr 35 min 44 sec) 
Heartbeat CPU 0 instructions: 71000000 cycles: 43657970 heartbeat IPC: 0.87767 cumulative IPC: 0.887147 (Simulation time: 0 hr 36 min 16 sec) 
Heartbeat CPU 0 instructions: 72000000 cycles: 45107614 heartbeat IPC: 0.689825 cumulative IPC: 0.87576 (Simulation time: 0 hr 36 min 48 sec) 
Heartbeat CPU 0 instructions: 73000000 cycles: 45976189 heartbeat IPC: 1.15131 cumulative IPC: 0.884969 (Simulation time: 0 hr 37 min 18 sec) 
Heartbeat CPU 0 instructions: 74000000 cycles: 46883542 heartbeat IPC: 1.10211 cumulative IPC: 0.892294 (Simulation time: 0 hr 37 min 49 sec) 
Heartbeat CPU 0 instructions: 75000000 cycles: 48115172 heartbeat IPC: 0.811932 cumulative IPC: 0.888775 (Simulation time: 0 hr 38 min 25 sec) 
Heartbeat CPU 0 instructions: 76000000 cycles: 49420291 heartbeat IPC: 0.766214 cumulative IPC: 0.883341 (Simulation time: 0 hr 38 min 55 sec) 
Heartbeat CPU 0 instructions: 77000003 cycles: 50338782 heartbeat IPC: 1.08875 cumulative IPC: 0.889557 (Simulation time: 0 hr 39 min 27 sec) 
Heartbeat CPU 0 instructions: 78000003 cycles: 51068944 heartbeat IPC: 1.36956 cumulative IPC: 0.900832 (Simulation time: 0 hr 39 min 56 sec) 
Heartbeat CPU 0 instructions: 79000001 cycles: 52386945 heartbeat IPC: 0.758723 cumulative IPC: 0.895052 (Simulation time: 0 hr 40 min 28 sec) 
Heartbeat CPU 0 instructions: 80000000 cycles: 53532843 heartbeat IPC: 0.872677 cumulative IPC: 0.894287 (Simulation time: 0 hr 41 min 1 sec) 
Heartbeat CPU 0 instructions: 81000000 cycles: 54410293 heartbeat IPC: 1.13967 cumulative IPC: 0.900542 (Simulation time: 0 hr 41 min 32 sec) 
Heartbeat CPU 0 instructions: 82000000 cycles: 55203103 heartbeat IPC: 1.26134 cumulative IPC: 0.908664 (Simulation time: 0 hr 42 min 4 sec) 
Heartbeat CPU 0 instructions: 83000000 cycles: 56627996 heartbeat IPC: 0.701807 cumulative IPC: 0.90062 (Simulation time: 0 hr 42 min 42 sec) 
Heartbeat CPU 0 instructions: 84000000 cycles: 57544091 heartbeat IPC: 1.09159 cumulative IPC: 0.905278 (Simulation time: 0 hr 43 min 10 sec) 
Heartbeat CPU 0 instructions: 85000001 cycles: 58371308 heartbeat IPC: 1.20887 cumulative IPC: 0.911821 (Simulation time: 0 hr 43 min 43 sec) 
Heartbeat CPU 0 instructions: 86000001 cycles: 59356932 heartbeat IPC: 1.01459 cumulative IPC: 0.914394 (Simulation time: 0 hr 44 min 15 sec) 
Heartbeat CPU 0 instructions: 87000000 cycles: 60518792 heartbeat IPC: 0.860688 cumulative IPC: 0.912854 (Simulation time: 0 hr 44 min 48 sec) 
Heartbeat CPU 0 instructions: 88000000 cycles: 61389174 heartbeat IPC: 1.14892 cumulative IPC: 0.917817 (Simulation time: 0 hr 45 min 22 sec) 
Heartbeat CPU 0 instructions: 89000000 cycles: 62198780 heartbeat IPC: 1.23517 cumulative IPC: 0.923904 (Simulation time: 0 hr 45 min 51 sec) 
Heartbeat CPU 0 instructions: 90000000 cycles: 63518673 heartbeat IPC: 0.757637 cumulative IPC: 0.918862 (Simulation time: 0 hr 46 min 27 sec) 
Heartbeat CPU 0 instructions: 91000003 cycles: 64767735 heartbeat IPC: 0.800603 cumulative IPC: 0.915564 (Simulation time: 0 hr 46 min 58 sec) 
Heartbeat CPU 0 instructions: 92000000 cycles: 65730649 heartbeat IPC: 1.03851 cumulative IPC: 0.918152 (Simulation time: 0 hr 47 min 29 sec) 
Heartbeat CPU 0 instructions: 93000000 cycles: 66603620 heartbeat IPC: 1.14551 cumulative IPC: 0.922409 (Simulation time: 0 hr 48 min 3 sec) 
Heartbeat CPU 0 instructions: 94000002 cycles: 67352455 heartbeat IPC: 1.33541 cumulative IPC: 0.928939 (Simulation time: 0 hr 48 min 35 sec) 
Heartbeat CPU 0 instructions: 95000001 cycles: 68747861 heartbeat IPC: 0.716637 cumulative IPC: 0.922863 (Simulation time: 0 hr 49 min 6 sec) 
Heartbeat CPU 0 instructions: 96000000 cycles: 69598121 heartbeat IPC: 1.17611 cumulative IPC: 0.927204 (Simulation time: 0 hr 49 min 40 sec) 
Heartbeat CPU 0 instructions: 97000002 cycles: 70421246 heartbeat IPC: 1.21488 cumulative IPC: 0.931899 (Simulation time: 0 hr 50 min 16 sec) 
Heartbeat CPU 0 instructions: 98000003 cycles: 71588101 heartbeat IPC: 0.857005 cumulative IPC: 0.930205 (Simulation time: 0 hr 50 min 51 sec) 
Heartbeat CPU 0 instructions: 99000000 cycles: 72655579 heartbeat IPC: 0.936785 cumulative IPC: 0.930339 (Simulation time: 0 hr 51 min 24 sec) 
Heartbeat CPU 0 instructions: 100000000 cycles: 73519886 heartbeat IPC: 1.157 cumulative IPC: 0.933998 (Simulation time: 0 hr 51 min 57 sec) 
Heartbeat CPU 0 instructions: 101000000 cycles: 74315811 heartbeat IPC: 1.2564 cumulative IPC: 0.938721 (Simulation time: 0 hr 52 min 27 sec) 
Heartbeat CPU 0 instructions: 102000003 cycles: 75779075 heartbeat IPC: 0.683406 cumulative IPC: 0.932025 (Simulation time: 0 hr 53 min 2 sec) 
Heartbeat CPU 0 instructions: 103000001 cycles: 76725420 heartbeat IPC: 1.05669 cumulative IPC: 0.934104 (Simulation time: 0 hr 53 min 36 sec) 
Heartbeat CPU 0 instructions: 104000000 cycles: 77577042 heartbeat IPC: 1.17423 cumulative IPC: 0.937655 (Simulation time: 0 hr 54 min 5 sec) 
Heartbeat CPU 0 instructions: 105000002 cycles: 78667301 heartbeat IPC: 0.917215 cumulative IPC: 0.937275 (Simulation time: 0 hr 54 min 44 sec) 
Heartbeat CPU 0 instructions: 106000003 cycles: 80175131 heartbeat IPC: 0.663205 cumulative IPC: 0.93041 (Simulation time: 0 hr 55 min 17 sec) 
Heartbeat CPU 0 instructions: 107000001 cycles: 81063213 heartbeat IPC: 1.12602 cumulative IPC: 0.933254 (Simulation time: 0 hr 55 min 52 sec) 
Heartbeat CPU 0 instructions: 108000000 cycles: 81832562 heartbeat IPC: 1.2998 cumulative IPC: 0.937814 (Simulation time: 0 hr 56 min 20 sec) 
Heartbeat CPU 0 instructions: 109000001 cycles: 82928050 heartbeat IPC: 0.912836 cumulative IPC: 0.937379 (Simulation time: 0 hr 56 min 52 sec) 
Heartbeat CPU 0 instructions: 110000000 cycles: 84275320 heartbeat IPC: 0.742241 cumulative IPC: 0.933289 (Simulation time: 0 hr 57 min 29 sec) 
Heartbeat CPU 0 instructions: 111000003 cycles: 85146635 heartbeat IPC: 1.14769 cumulative IPC: 0.936156 (Simulation time: 0 hr 57 min 59 sec) 
Heartbeat CPU 0 instructions: 112000000 cycles: 85929382 heartbeat IPC: 1.27755 cumulative IPC: 0.940209 (Simulation time: 0 hr 58 min 28 sec) 
Heartbeat CPU 0 instructions: 113000002 cycles: 87120368 heartbeat IPC: 0.839642 cumulative IPC: 0.938425 (Simulation time: 0 hr 59 min 10 sec) 
Heartbeat CPU 0 instructions: 114000001 cycles: 88320923 heartbeat IPC: 0.832947 cumulative IPC: 0.936572 (Simulation time: 0 hr 59 min 43 sec) 
Heartbeat CPU 0 instructions: 115000002 cycles: 89194520 heartbeat IPC: 1.14469 cumulative IPC: 0.939199 (Simulation time: 1 hr 0 min 16 sec) 
Heartbeat CPU 0 instructions: 116000000 cycles: 89975658 heartbeat IPC: 1.28018 cumulative IPC: 0.943004 (Simulation time: 1 hr 0 min 49 sec) 
Heartbeat CPU 0 instructions: 117000002 cycles: 91348770 heartbeat IPC: 0.728274 cumulative IPC: 0.938873 (Simulation time: 1 hr 1 min 20 sec) 
Heartbeat CPU 0 instructions: 118000002 cycles: 92331009 heartbeat IPC: 1.01808 cumulative IPC: 0.939948 (Simulation time: 1 hr 1 min 51 sec) 
Heartbeat CPU 0 instructions: 119000001 cycles: 93192278 heartbeat IPC: 1.16108 cumulative IPC: 0.94255 (Simulation time: 1 hr 2 min 20 sec) 
Heartbeat CPU 0 instructions: 120000000 cycles: 94143691 heartbeat IPC: 1.05107 cumulative IPC: 0.943942 (Simulation time: 1 hr 2 min 50 sec) 
Heartbeat CPU 0 instructions: 121000000 cycles: 95580519 heartbeat IPC: 0.695978 cumulative IPC: 0.939229 (Simulation time: 1 hr 3 min 23 sec) 
Heartbeat CPU 0 instructions: 122000003 cycles: 96473816 heartbeat IPC: 1.11945 cumulative IPC: 0.941334 (Simulation time: 1 hr 3 min 55 sec) 
Heartbeat CPU 0 instructions: 123000001 cycles: 97332232 heartbeat IPC: 1.16493 cumulative IPC: 0.943815 (Simulation time: 1 hr 4 min 32 sec) 
Heartbeat CPU 0 instructions: 124000000 cycles: 98475823 heartbeat IPC: 0.874438 cumulative IPC: 0.942804 (Simulation time: 1 hr 5 min 7 sec) 
Heartbeat CPU 0 instructions: 125000003 cycles: 99827972 heartbeat IPC: 0.739566 cumulative IPC: 0.939362 (Simulation time: 1 hr 5 min 37 sec) 
Heartbeat CPU 0 instructions: 126000001 cycles: 100715327 heartbeat IPC: 1.12694 cumulative IPC: 0.941424 (Simulation time: 1 hr 6 min 9 sec) 
Heartbeat CPU 0 instructions: 127000000 cycles: 101572699 heartbeat IPC: 1.16635 cumulative IPC: 0.943788 (Simulation time: 1 hr 6 min 38 sec) 
Heartbeat CPU 0 instructions: 128000000 cycles: 102819129 heartbeat IPC: 0.802291 cumulative IPC: 0.941659 (Simulation time: 1 hr 7 min 15 sec) 
Heartbeat CPU 0 instructions: 129000002 cycles: 104145307 heartbeat IPC: 0.754048 cumulative IPC: 0.938702 (Simulation time: 1 hr 7 min 50 sec) 
Heartbeat CPU 0 instructions: 130000002 cycles: 105033300 heartbeat IPC: 1.12613 cumulative IPC: 0.940659 (Simulation time: 1 hr 8 min 17 sec) 
Heartbeat CPU 0 instructions: 131000001 cycles: 105885757 heartbeat IPC: 1.17308 cumulative IPC: 0.942966 (Simulation time: 1 hr 8 min 46 sec) 
Heartbeat CPU 0 instructions: 132000000 cycles: 107216847 heartbeat IPC: 0.751263 cumulative IPC: 0.940041 (Simulation time: 1 hr 9 min 14 sec) 
Heartbeat CPU 0 instructions: 133000001 cycles: 108679276 heartbeat IPC: 0.683795 cumulative IPC: 0.935816 (Simulation time: 1 hr 9 min 43 sec) 
Heartbeat CPU 0 instructions: 134000002 cycles: 109575182 heartbeat IPC: 1.11619 cumulative IPC: 0.937619 (Simulation time: 1 hr 10 min 8 sec) 
Heartbeat CPU 0 instructions: 135000001 cycles: 110429322 heartbeat IPC: 1.17077 cumulative IPC: 0.939821 (Simulation time: 1 hr 10 min 35 sec) 
Heartbeat CPU 0 instructions: 136000000 cycles: 111647797 heartbeat IPC: 0.820697 cumulative IPC: 0.938238 (Simulation time: 1 hr 11 min 3 sec) 
Heartbeat CPU 0 instructions: 137000001 cycles: 112995491 heartbeat IPC: 0.742009 cumulative IPC: 0.935394 (Simulation time: 1 hr 11 min 30 sec) 
Heartbeat CPU 0 instructions: 138000002 cycles: 113895070 heartbeat IPC: 1.11163 cumulative IPC: 0.937082 (Simulation time: 1 hr 11 min 57 sec) 
Heartbeat CPU 0 instructions: 139000001 cycles: 114751278 heartbeat IPC: 1.16794 cumulative IPC: 0.939168 (Simulation time: 1 hr 12 min 21 sec) 
Heartbeat CPU 0 instructions: 140000000 cycles: 116056250 heartbeat IPC: 0.766299 cumulative IPC: 0.93682 (Simulation time: 1 hr 12 min 48 sec) 
Heartbeat CPU 0 instructions: 141000000 cycles: 117553829 heartbeat IPC: 0.667744 cumulative IPC: 0.93269 (Simulation time: 1 hr 13 min 16 sec) 
Heartbeat CPU 0 instructions: 142000002 cycles: 118688389 heartbeat IPC: 0.881401 cumulative IPC: 0.9321 (Simulation time: 1 hr 13 min 42 sec) 
Heartbeat CPU 0 instructions: 143000003 cycles: 119549351 heartbeat IPC: 1.16149 cumulative IPC: 0.934084 (Simulation time: 1 hr 14 min 7 sec) 
Heartbeat CPU 0 instructions: 144000000 cycles: 120413280 heartbeat IPC: 1.1575 cumulative IPC: 0.936006 (Simulation time: 1 hr 14 min 31 sec) 
Heartbeat CPU 0 instructions: 145000000 cycles: 121533061 heartbeat IPC: 0.893032 cumulative IPC: 0.935532 (Simulation time: 1 hr 14 min 56 sec) 
Heartbeat CPU 0 instructions: 146000001 cycles: 122978934 heartbeat IPC: 0.691624 cumulative IPC: 0.932108 (Simulation time: 1 hr 15 min 21 sec) 
Heartbeat CPU 0 instructions: 147000002 cycles: 123860583 heartbeat IPC: 1.13424 cumulative IPC: 0.933824 (Simulation time: 1 hr 15 min 44 sec) 
Heartbeat CPU 0 instructions: 148000000 cycles: 124733945 heartbeat IPC: 1.145 cumulative IPC: 0.935584 (Simulation time: 1 hr 16 min 6 sec) 
Heartbeat CPU 0 instructions: 149000001 cycles: 125921232 heartbeat IPC: 0.842257 cumulative IPC: 0.934538 (Simulation time: 1 hr 16 min 27 sec) 
Heartbeat CPU 0 instructions: 150000000 cycles: 127267548 heartbeat IPC: 0.742767 cumulative IPC: 0.932132 (Simulation time: 1 hr 16 min 50 sec) 
Finished CPU 0 instructions: 100000001 cycles: 107280966 cummulative IPC: 0.932132 (Simulation time: 1 hr 16 min 50 sec) 

ChampSim completed all CPUs

Region of Interest Statistics

CPU 0 cummulative IPC: 0.932132 instructions: 100000001 cycles: 107280966
LLC TOTAL     ACCESS:    1706354  HIT:     725358  MISS:     980996
LLC LOAD      ACCESS:     272003  HIT:     209228  MISS:      62775
LLC RFO       ACCESS:     107615  HIT:      90565  MISS:      17050
LLC PREFETCH  ACCESS:    1187152  HIT:     287561  MISS:     899591
LLC WRITEBACK ACCESS:     139584  HIT:     138004  MISS:       1580
OPTgen accesses: 9257
OPTgen hits: 8580
OPTgen hit rate: 92.6866


