
*** ChampSim Multicore Out-of-Order Simulator ***

Warmup Instructions: 50000000
Simulation Instructions: 100000000
Configuration: 2
Number of CPUs: 1
LLC sets: 2048
LLC ways: 16
Off-chip DRAM Channels: 1 Width: 64-bit Data Rate: 1600 MT/s

CPU 0 runs /datasets/cs240c-wi22-a00-public/data/Assignment2-gz/mcf_158B.trace.gz
CPU 0 L1D next line prefetcher
CPU 0 L2C IP-based stride prefetcher
Initialize Hawkeye state
Heartbeat CPU 0 instructions: 1000002 cycles: 512879 heartbeat IPC: 1.94978 cumulative IPC: 1.94978 (Simulation time: 0 hr 0 min 48 sec) 
Heartbeat CPU 0 instructions: 2000002 cycles: 1025222 heartbeat IPC: 1.95182 cumulative IPC: 1.9508 (Simulation time: 0 hr 1 min 32 sec) 
Heartbeat CPU 0 instructions: 3000000 cycles: 1539253 heartbeat IPC: 1.9454 cumulative IPC: 1.949 (Simulation time: 0 hr 2 min 20 sec) 
Heartbeat CPU 0 instructions: 4000000 cycles: 2051775 heartbeat IPC: 1.95114 cumulative IPC: 1.94953 (Simulation time: 0 hr 3 min 9 sec) 
Heartbeat CPU 0 instructions: 5000002 cycles: 2560655 heartbeat IPC: 1.9651 cumulative IPC: 1.95263 (Simulation time: 0 hr 3 min 57 sec) 
Heartbeat CPU 0 instructions: 6000001 cycles: 3074700 heartbeat IPC: 1.94535 cumulative IPC: 1.95141 (Simulation time: 0 hr 4 min 45 sec) 
Heartbeat CPU 0 instructions: 7000001 cycles: 3584934 heartbeat IPC: 1.95989 cumulative IPC: 1.95262 (Simulation time: 0 hr 5 min 31 sec) 
Heartbeat CPU 0 instructions: 8000000 cycles: 4097234 heartbeat IPC: 1.95198 cumulative IPC: 1.95254 (Simulation time: 0 hr 6 min 21 sec) 
Heartbeat CPU 0 instructions: 9000000 cycles: 4616753 heartbeat IPC: 1.92486 cumulative IPC: 1.94942 (Simulation time: 0 hr 7 min 6 sec) 
Heartbeat CPU 0 instructions: 10000001 cycles: 5149285 heartbeat IPC: 1.87782 cumulative IPC: 1.94202 (Simulation time: 0 hr 7 min 50 sec) 
Heartbeat CPU 0 instructions: 11000001 cycles: 5658467 heartbeat IPC: 1.96393 cumulative IPC: 1.94399 (Simulation time: 0 hr 8 min 40 sec) 
Heartbeat CPU 0 instructions: 12000000 cycles: 6168317 heartbeat IPC: 1.96136 cumulative IPC: 1.94543 (Simulation time: 0 hr 9 min 22 sec) 
Heartbeat CPU 0 instructions: 13000003 cycles: 6677627 heartbeat IPC: 1.96345 cumulative IPC: 1.9468 (Simulation time: 0 hr 10 min 11 sec) 
Heartbeat CPU 0 instructions: 14000001 cycles: 7183832 heartbeat IPC: 1.97548 cumulative IPC: 1.94882 (Simulation time: 0 hr 10 min 53 sec) 
Heartbeat CPU 0 instructions: 15000000 cycles: 7689073 heartbeat IPC: 1.97925 cumulative IPC: 1.95082 (Simulation time: 0 hr 11 min 37 sec) 
Heartbeat CPU 0 instructions: 16000000 cycles: 8233583 heartbeat IPC: 1.83651 cumulative IPC: 1.94326 (Simulation time: 0 hr 12 min 21 sec) 
Heartbeat CPU 0 instructions: 17000001 cycles: 8745526 heartbeat IPC: 1.95334 cumulative IPC: 1.94385 (Simulation time: 0 hr 13 min 7 sec) 
Heartbeat CPU 0 instructions: 18000001 cycles: 9252401 heartbeat IPC: 1.97287 cumulative IPC: 1.94544 (Simulation time: 0 hr 13 min 52 sec) 
Heartbeat CPU 0 instructions: 19000001 cycles: 9764564 heartbeat IPC: 1.9525 cumulative IPC: 1.94581 (Simulation time: 0 hr 14 min 36 sec) 
Heartbeat CPU 0 instructions: 20000000 cycles: 10275769 heartbeat IPC: 1.95616 cumulative IPC: 1.94633 (Simulation time: 0 hr 15 min 19 sec) 
Heartbeat CPU 0 instructions: 21000000 cycles: 10786272 heartbeat IPC: 1.95885 cumulative IPC: 1.94692 (Simulation time: 0 hr 16 min 1 sec) 
Heartbeat CPU 0 instructions: 22000002 cycles: 11296006 heartbeat IPC: 1.96181 cumulative IPC: 1.94759 (Simulation time: 0 hr 16 min 46 sec) 
Heartbeat CPU 0 instructions: 23000003 cycles: 11814349 heartbeat IPC: 1.92923 cumulative IPC: 1.94679 (Simulation time: 0 hr 17 min 28 sec) 
Heartbeat CPU 0 instructions: 24000000 cycles: 12353248 heartbeat IPC: 1.85563 cumulative IPC: 1.94281 (Simulation time: 0 hr 18 min 10 sec) 
Heartbeat CPU 0 instructions: 25000001 cycles: 12859158 heartbeat IPC: 1.97664 cumulative IPC: 1.94414 (Simulation time: 0 hr 18 min 56 sec) 
Heartbeat CPU 0 instructions: 26000001 cycles: 13361175 heartbeat IPC: 1.99196 cumulative IPC: 1.94594 (Simulation time: 0 hr 19 min 36 sec) 
Heartbeat CPU 0 instructions: 27000002 cycles: 13866615 heartbeat IPC: 1.97848 cumulative IPC: 1.94712 (Simulation time: 0 hr 20 min 25 sec) 
Heartbeat CPU 0 instructions: 28000000 cycles: 14408878 heartbeat IPC: 1.84412 cumulative IPC: 1.94325 (Simulation time: 0 hr 21 min 7 sec) 
Heartbeat CPU 0 instructions: 29000003 cycles: 14916564 heartbeat IPC: 1.96973 cumulative IPC: 1.94415 (Simulation time: 0 hr 21 min 52 sec) 
Heartbeat CPU 0 instructions: 30000000 cycles: 15418425 heartbeat IPC: 1.99258 cumulative IPC: 1.94572 (Simulation time: 0 hr 22 min 38 sec) 
Heartbeat CPU 0 instructions: 31000003 cycles: 15929459 heartbeat IPC: 1.95682 cumulative IPC: 1.94608 (Simulation time: 0 hr 23 min 19 sec) 
Heartbeat CPU 0 instructions: 32000000 cycles: 16470038 heartbeat IPC: 1.84986 cumulative IPC: 1.94292 (Simulation time: 0 hr 24 min 2 sec) 
Heartbeat CPU 0 instructions: 33000000 cycles: 16975736 heartbeat IPC: 1.97746 cumulative IPC: 1.94395 (Simulation time: 0 hr 24 min 46 sec) 
Heartbeat CPU 0 instructions: 34000000 cycles: 17484169 heartbeat IPC: 1.96683 cumulative IPC: 1.94462 (Simulation time: 0 hr 25 min 26 sec) 
Heartbeat CPU 0 instructions: 35000001 cycles: 17992225 heartbeat IPC: 1.96829 cumulative IPC: 1.94528 (Simulation time: 0 hr 26 min 14 sec) 
Heartbeat CPU 0 instructions: 36000000 cycles: 18535631 heartbeat IPC: 1.84024 cumulative IPC: 1.94221 (Simulation time: 0 hr 26 min 56 sec) 
Heartbeat CPU 0 instructions: 37000001 cycles: 19040196 heartbeat IPC: 1.98191 cumulative IPC: 1.94326 (Simulation time: 0 hr 27 min 38 sec) 
Heartbeat CPU 0 instructions: 38000002 cycles: 19544292 heartbeat IPC: 1.98375 cumulative IPC: 1.9443 (Simulation time: 0 hr 28 min 25 sec) 
Heartbeat CPU 0 instructions: 39000000 cycles: 20045117 heartbeat IPC: 1.9967 cumulative IPC: 1.94561 (Simulation time: 0 hr 29 min 8 sec) 
Heartbeat CPU 0 instructions: 40000000 cycles: 20583897 heartbeat IPC: 1.85605 cumulative IPC: 1.94327 (Simulation time: 0 hr 29 min 49 sec) 
Heartbeat CPU 0 instructions: 41000003 cycles: 21088440 heartbeat IPC: 1.982 cumulative IPC: 1.94419 (Simulation time: 0 hr 30 min 27 sec) 
Heartbeat CPU 0 instructions: 42000000 cycles: 21588356 heartbeat IPC: 2.00033 cumulative IPC: 1.94549 (Simulation time: 0 hr 31 min 8 sec) 
Heartbeat CPU 0 instructions: 43000001 cycles: 22101446 heartbeat IPC: 1.94898 cumulative IPC: 1.94557 (Simulation time: 0 hr 31 min 46 sec) 
Heartbeat CPU 0 instructions: 44000000 cycles: 22619896 heartbeat IPC: 1.92882 cumulative IPC: 1.94519 (Simulation time: 0 hr 32 min 26 sec) 
Heartbeat CPU 0 instructions: 45000000 cycles: 23100471 heartbeat IPC: 2.08084 cumulative IPC: 1.94801 (Simulation time: 0 hr 33 min 3 sec) 
Heartbeat CPU 0 instructions: 46000002 cycles: 23609348 heartbeat IPC: 1.96512 cumulative IPC: 1.94838 (Simulation time: 0 hr 33 min 40 sec) 
Heartbeat CPU 0 instructions: 47000002 cycles: 24129598 heartbeat IPC: 1.92215 cumulative IPC: 1.94782 (Simulation time: 0 hr 34 min 18 sec) 
Heartbeat CPU 0 instructions: 48000000 cycles: 24611532 heartbeat IPC: 2.07497 cumulative IPC: 1.95031 (Simulation time: 0 hr 34 min 56 sec) 
Heartbeat CPU 0 instructions: 49000003 cycles: 25118661 heartbeat IPC: 1.97189 cumulative IPC: 1.95074 (Simulation time: 0 hr 35 min 38 sec) 
Heartbeat CPU 0 instructions: 50000000 cycles: 25642791 heartbeat IPC: 1.90792 cumulative IPC: 1.94987 (Simulation time: 0 hr 36 min 22 sec) 

Warmup complete CPU 0 instructions: 50000001 cycles: 25642792 (Simulation time: 0 hr 36 min 22 sec) 

Heartbeat CPU 0 instructions: 51000000 cycles: 31647535 heartbeat IPC: 0.166535 cumulative IPC: 0.166535 (Simulation time: 0 hr 37 min 8 sec) 
Heartbeat CPU 0 instructions: 52000000 cycles: 40791958 heartbeat IPC: 0.109356 cumulative IPC: 0.13202 (Simulation time: 0 hr 38 min 9 sec) 
Heartbeat CPU 0 instructions: 53000000 cycles: 54444213 heartbeat IPC: 0.073248 cumulative IPC: 0.104161 (Simulation time: 0 hr 39 min 16 sec) 
Heartbeat CPU 0 instructions: 54000000 cycles: 60693058 heartbeat IPC: 0.16003 cumulative IPC: 0.114122 (Simulation time: 0 hr 40 min 3 sec) 
Heartbeat CPU 0 instructions: 55000000 cycles: 68708505 heartbeat IPC: 0.124759 cumulative IPC: 0.116102 (Simulation time: 0 hr 41 min 1 sec) 
Heartbeat CPU 0 instructions: 56000000 cycles: 83433768 heartbeat IPC: 0.0679105 cumulative IPC: 0.103822 (Simulation time: 0 hr 42 min 17 sec) 
Heartbeat CPU 0 instructions: 57000001 cycles: 89625994 heartbeat IPC: 0.161493 cumulative IPC: 0.109404 (Simulation time: 0 hr 43 min 4 sec) 
Heartbeat CPU 0 instructions: 58000001 cycles: 95679920 heartbeat IPC: 0.165182 cumulative IPC: 0.114225 (Simulation time: 0 hr 43 min 50 sec) 
Heartbeat CPU 0 instructions: 59000000 cycles: 111643109 heartbeat IPC: 0.0626441 cumulative IPC: 0.104651 (Simulation time: 0 hr 45 min 4 sec) 
Heartbeat CPU 0 instructions: 60000000 cycles: 118509414 heartbeat IPC: 0.145639 cumulative IPC: 0.107681 (Simulation time: 0 hr 45 min 55 sec) 
Heartbeat CPU 0 instructions: 61000000 cycles: 125319966 heartbeat IPC: 0.146831 cumulative IPC: 0.110356 (Simulation time: 0 hr 46 min 49 sec) 
Heartbeat CPU 0 instructions: 62000001 cycles: 137451650 heartbeat IPC: 0.0824289 cumulative IPC: 0.107326 (Simulation time: 0 hr 48 min 0 sec) 
Heartbeat CPU 0 instructions: 63000001 cycles: 147798034 heartbeat IPC: 0.0966521 cumulative IPC: 0.106422 (Simulation time: 0 hr 49 min 1 sec) 
Heartbeat CPU 0 instructions: 64000000 cycles: 153703844 heartbeat IPC: 0.169325 cumulative IPC: 0.109323 (Simulation time: 0 hr 49 min 50 sec) 
Heartbeat CPU 0 instructions: 65000000 cycles: 160806317 heartbeat IPC: 0.140796 cumulative IPC: 0.110977 (Simulation time: 0 hr 50 min 43 sec) 
Heartbeat CPU 0 instructions: 66000000 cycles: 175609597 heartbeat IPC: 0.0675526 cumulative IPC: 0.10669 (Simulation time: 0 hr 51 min 58 sec) 
Heartbeat CPU 0 instructions: 67000002 cycles: 181580895 heartbeat IPC: 0.167468 cumulative IPC: 0.109018 (Simulation time: 0 hr 52 min 51 sec) 
Heartbeat CPU 0 instructions: 68000000 cycles: 187328991 heartbeat IPC: 0.17397 cumulative IPC: 0.111327 (Simulation time: 0 hr 53 min 40 sec) 
Heartbeat CPU 0 instructions: 69000000 cycles: 200222058 heartbeat IPC: 0.0775611 cumulative IPC: 0.108833 (Simulation time: 0 hr 54 min 59 sec) 
Heartbeat CPU 0 instructions: 70000000 cycles: 209423717 heartbeat IPC: 0.108676 cumulative IPC: 0.108825 (Simulation time: 0 hr 56 min 2 sec) 
Heartbeat CPU 0 instructions: 71000002 cycles: 215175725 heartbeat IPC: 0.173853 cumulative IPC: 0.110799 (Simulation time: 0 hr 56 min 54 sec) 
Heartbeat CPU 0 instructions: 72000000 cycles: 222862312 heartbeat IPC: 0.130096 cumulative IPC: 0.111551 (Simulation time: 0 hr 57 min 49 sec) 
Heartbeat CPU 0 instructions: 73000000 cycles: 237091395 heartbeat IPC: 0.0702786 cumulative IPC: 0.108773 (Simulation time: 0 hr 59 min 0 sec) 
Heartbeat CPU 0 instructions: 74000000 cycles: 243220859 heartbeat IPC: 0.163146 cumulative IPC: 0.110305 (Simulation time: 0 hr 59 min 47 sec) 
Heartbeat CPU 0 instructions: 75000001 cycles: 249373768 heartbeat IPC: 0.162525 cumulative IPC: 0.111741 (Simulation time: 1 hr 0 min 36 sec) 
Heartbeat CPU 0 instructions: 76000000 cycles: 261351173 heartbeat IPC: 0.0834905 cumulative IPC: 0.110306 (Simulation time: 1 hr 1 min 41 sec) 
Heartbeat CPU 0 instructions: 77000000 cycles: 272055820 heartbeat IPC: 0.0934174 cumulative IPC: 0.109572 (Simulation time: 1 hr 2 min 48 sec) 
Heartbeat CPU 0 instructions: 78000000 cycles: 278792436 heartbeat IPC: 0.148442 cumulative IPC: 0.110607 (Simulation time: 1 hr 3 min 40 sec) 
Heartbeat CPU 0 instructions: 79000001 cycles: 285892038 heartbeat IPC: 0.140853 cumulative IPC: 0.111432 (Simulation time: 1 hr 4 min 34 sec) 
Heartbeat CPU 0 instructions: 80000000 cycles: 301083197 heartbeat IPC: 0.0658277 cumulative IPC: 0.108916 (Simulation time: 1 hr 5 min 45 sec) 
Heartbeat CPU 0 instructions: 81000001 cycles: 308266542 heartbeat IPC: 0.139211 cumulative IPC: 0.109686 (Simulation time: 1 hr 6 min 40 sec) 
Heartbeat CPU 0 instructions: 82000001 cycles: 315325380 heartbeat IPC: 0.141666 cumulative IPC: 0.110466 (Simulation time: 1 hr 7 min 25 sec) 
Heartbeat CPU 0 instructions: 83000001 cycles: 327919025 heartbeat IPC: 0.0794051 cumulative IPC: 0.109172 (Simulation time: 1 hr 8 min 24 sec) 
Heartbeat CPU 0 instructions: 84000000 cycles: 339121045 heartbeat IPC: 0.0892695 cumulative IPC: 0.10846 (Simulation time: 1 hr 9 min 21 sec) 
Heartbeat CPU 0 instructions: 85000000 cycles: 345565019 heartbeat IPC: 0.155184 cumulative IPC: 0.109402 (Simulation time: 1 hr 10 min 4 sec) 
Heartbeat CPU 0 instructions: 86000002 cycles: 353139951 heartbeat IPC: 0.132015 cumulative IPC: 0.109925 (Simulation time: 1 hr 10 min 54 sec) 
Heartbeat CPU 0 instructions: 87000000 cycles: 368091073 heartbeat IPC: 0.0668845 cumulative IPC: 0.108046 (Simulation time: 1 hr 12 min 0 sec) 
Heartbeat CPU 0 instructions: 88000000 cycles: 374891418 heartbeat IPC: 0.147051 cumulative IPC: 0.108805 (Simulation time: 1 hr 12 min 48 sec) 
Heartbeat CPU 0 instructions: 89000000 cycles: 382261532 heartbeat IPC: 0.135683 cumulative IPC: 0.10936 (Simulation time: 1 hr 13 min 34 sec) 
Heartbeat CPU 0 instructions: 90000002 cycles: 395808132 heartbeat IPC: 0.0738194 cumulative IPC: 0.10806 (Simulation time: 1 hr 14 min 30 sec) 
Heartbeat CPU 0 instructions: 91000000 cycles: 405133210 heartbeat IPC: 0.107237 cumulative IPC: 0.10804 (Simulation time: 1 hr 15 min 14 sec) 
Heartbeat CPU 0 instructions: 92000000 cycles: 411609623 heartbeat IPC: 0.154406 cumulative IPC: 0.108818 (Simulation time: 1 hr 15 min 48 sec) 
Heartbeat CPU 0 instructions: 93000003 cycles: 422602494 heartbeat IPC: 0.0909683 cumulative IPC: 0.108323 (Simulation time: 1 hr 16 min 29 sec) 
Heartbeat CPU 0 instructions: 94000000 cycles: 434719746 heartbeat IPC: 0.0825267 cumulative IPC: 0.107559 (Simulation time: 1 hr 17 min 11 sec) 
Heartbeat CPU 0 instructions: 95000000 cycles: 441479342 heartbeat IPC: 0.147938 cumulative IPC: 0.108216 (Simulation time: 1 hr 17 min 42 sec) 
Heartbeat CPU 0 instructions: 96000000 cycles: 449049575 heartbeat IPC: 0.132096 cumulative IPC: 0.108643 (Simulation time: 1 hr 18 min 15 sec) 
Heartbeat CPU 0 instructions: 97000003 cycles: 464668377 heartbeat IPC: 0.0640256 cumulative IPC: 0.107055 (Simulation time: 1 hr 19 min 1 sec) 
Heartbeat CPU 0 instructions: 98000002 cycles: 471878398 heartbeat IPC: 0.138696 cumulative IPC: 0.107566 (Simulation time: 1 hr 19 min 34 sec) 
Heartbeat CPU 0 instructions: 99000000 cycles: 478879227 heartbeat IPC: 0.14284 cumulative IPC: 0.108111 (Simulation time: 1 hr 20 min 4 sec) 
Heartbeat CPU 0 instructions: 100000000 cycles: 492277987 heartbeat IPC: 0.0746338 cumulative IPC: 0.10715 (Simulation time: 1 hr 20 min 45 sec) 
Heartbeat CPU 0 instructions: 101000000 cycles: 502539448 heartbeat IPC: 0.097452 cumulative IPC: 0.106941 (Simulation time: 1 hr 21 min 20 sec) 
Heartbeat CPU 0 instructions: 102000000 cycles: 510087733 heartbeat IPC: 0.13248 cumulative IPC: 0.107339 (Simulation time: 1 hr 21 min 48 sec) 
Heartbeat CPU 0 instructions: 103000001 cycles: 517103137 heartbeat IPC: 0.142544 cumulative IPC: 0.107842 (Simulation time: 1 hr 22 min 14 sec) 
Heartbeat CPU 0 instructions: 104000000 cycles: 532742204 heartbeat IPC: 0.0639424 cumulative IPC: 0.106488 (Simulation time: 1 hr 22 min 53 sec) 
Heartbeat CPU 0 instructions: 105000000 cycles: 541082797 heartbeat IPC: 0.119896 cumulative IPC: 0.106705 (Simulation time: 1 hr 23 min 21 sec) 
Heartbeat CPU 0 instructions: 106000000 cycles: 548686484 heartbeat IPC: 0.131515 cumulative IPC: 0.107066 (Simulation time: 1 hr 23 min 45 sec) 
Heartbeat CPU 0 instructions: 107000000 cycles: 558676977 heartbeat IPC: 0.100095 cumulative IPC: 0.106935 (Simulation time: 1 hr 24 min 10 sec) 
Heartbeat CPU 0 instructions: 108000000 cycles: 572451884 heartbeat IPC: 0.0725958 cumulative IPC: 0.10607 (Simulation time: 1 hr 24 min 38 sec) 
Heartbeat CPU 0 instructions: 109000001 cycles: 579889602 heartbeat IPC: 0.13445 cumulative IPC: 0.106451 (Simulation time: 1 hr 24 min 57 sec) 
Heartbeat CPU 0 instructions: 110000000 cycles: 587779745 heartbeat IPC: 0.12674 cumulative IPC: 0.106736 (Simulation time: 1 hr 25 min 16 sec) 
Heartbeat CPU 0 instructions: 111000001 cycles: 600601880 heartbeat IPC: 0.0779902 cumulative IPC: 0.106095 (Simulation time: 1 hr 25 min 41 sec) 
Heartbeat CPU 0 instructions: 112000000 cycles: 612042440 heartbeat IPC: 0.0874082 cumulative IPC: 0.10573 (Simulation time: 1 hr 26 min 3 sec) 
Heartbeat CPU 0 instructions: 113000000 cycles: 619529131 heartbeat IPC: 0.13357 cumulative IPC: 0.106081 (Simulation time: 1 hr 26 min 20 sec) 
Heartbeat CPU 0 instructions: 114000002 cycles: 627612239 heartbeat IPC: 0.123715 cumulative IPC: 0.106318 (Simulation time: 1 hr 26 min 37 sec) 
Heartbeat CPU 0 instructions: 115000000 cycles: 640914489 heartbeat IPC: 0.0751751 cumulative IPC: 0.105644 (Simulation time: 1 hr 26 min 57 sec) 
Heartbeat CPU 0 instructions: 116000000 cycles: 652456340 heartbeat IPC: 0.0866412 cumulative IPC: 0.105294 (Simulation time: 1 hr 27 min 15 sec) 
Heartbeat CPU 0 instructions: 117000003 cycles: 660873292 heartbeat IPC: 0.118808 cumulative IPC: 0.105474 (Simulation time: 1 hr 27 min 28 sec) 
Heartbeat CPU 0 instructions: 118000000 cycles: 669141009 heartbeat IPC: 0.120952 cumulative IPC: 0.105672 (Simulation time: 1 hr 27 min 39 sec) 
Heartbeat CPU 0 instructions: 119000001 cycles: 678451155 heartbeat IPC: 0.10741 cumulative IPC: 0.105697 (Simulation time: 1 hr 27 min 51 sec) 
Heartbeat CPU 0 instructions: 120000000 cycles: 692693053 heartbeat IPC: 0.0702153 cumulative IPC: 0.10494 (Simulation time: 1 hr 28 min 3 sec) 
Heartbeat CPU 0 instructions: 121000000 cycles: 700601158 heartbeat IPC: 0.126453 cumulative IPC: 0.105192 (Simulation time: 1 hr 28 min 13 sec) 
Heartbeat CPU 0 instructions: 122000001 cycles: 709081659 heartbeat IPC: 0.117918 cumulative IPC: 0.10535 (Simulation time: 1 hr 28 min 22 sec) 
Heartbeat CPU 0 instructions: 123000002 cycles: 717934615 heartbeat IPC: 0.112957 cumulative IPC: 0.105447 (Simulation time: 1 hr 28 min 32 sec) 
Heartbeat CPU 0 instructions: 124000000 cycles: 733659438 heartbeat IPC: 0.0635936 cumulative IPC: 0.104517 (Simulation time: 1 hr 28 min 45 sec) 
Heartbeat CPU 0 instructions: 125000001 cycles: 742624561 heartbeat IPC: 0.111543 cumulative IPC: 0.104605 (Simulation time: 1 hr 28 min 53 sec) 
Heartbeat CPU 0 instructions: 126000000 cycles: 751162989 heartbeat IPC: 0.117117 cumulative IPC: 0.104752 (Simulation time: 1 hr 28 min 59 sec) 
Heartbeat CPU 0 instructions: 127000002 cycles: 759285738 heartbeat IPC: 0.123111 cumulative IPC: 0.104956 (Simulation time: 1 hr 29 min 6 sec) 
Heartbeat CPU 0 instructions: 128000000 cycles: 771364909 heartbeat IPC: 0.082787 cumulative IPC: 0.104597 (Simulation time: 1 hr 29 min 13 sec) 
Heartbeat CPU 0 instructions: 129000001 cycles: 784441185 heartbeat IPC: 0.0764745 cumulative IPC: 0.104112 (Simulation time: 1 hr 29 min 21 sec) 
Heartbeat CPU 0 instructions: 130000003 cycles: 792894203 heartbeat IPC: 0.118301 cumulative IPC: 0.104268 (Simulation time: 1 hr 29 min 27 sec) 
Heartbeat CPU 0 instructions: 131000000 cycles: 800028727 heartbeat IPC: 0.140163 cumulative IPC: 0.104599 (Simulation time: 1 hr 29 min 32 sec) 
Heartbeat CPU 0 instructions: 132000000 cycles: 811671356 heartbeat IPC: 0.0858913 cumulative IPC: 0.104322 (Simulation time: 1 hr 29 min 39 sec) 
Heartbeat CPU 0 instructions: 133000002 cycles: 823514242 heartbeat IPC: 0.084439 cumulative IPC: 0.104027 (Simulation time: 1 hr 29 min 46 sec) 
Heartbeat CPU 0 instructions: 134000003 cycles: 830793962 heartbeat IPC: 0.137368 cumulative IPC: 0.104328 (Simulation time: 1 hr 29 min 52 sec) 
Heartbeat CPU 0 instructions: 135000000 cycles: 837305560 heartbeat IPC: 0.153572 cumulative IPC: 0.104723 (Simulation time: 1 hr 29 min 58 sec) 
Heartbeat CPU 0 instructions: 136000000 cycles: 849801360 heartbeat IPC: 0.0800269 cumulative IPC: 0.104349 (Simulation time: 1 hr 30 min 5 sec) 
Heartbeat CPU 0 instructions: 137000000 cycles: 861395531 heartbeat IPC: 0.0862502 cumulative IPC: 0.104098 (Simulation time: 1 hr 30 min 12 sec) 
Heartbeat CPU 0 instructions: 138000000 cycles: 870008360 heartbeat IPC: 0.116106 cumulative IPC: 0.10422 (Simulation time: 1 hr 30 min 17 sec) 
Heartbeat CPU 0 instructions: 139000001 cycles: 878372985 heartbeat IPC: 0.119551 cumulative IPC: 0.104371 (Simulation time: 1 hr 30 min 23 sec) 
Heartbeat CPU 0 instructions: 140000000 cycles: 887013254 heartbeat IPC: 0.115737 cumulative IPC: 0.104485 (Simulation time: 1 hr 30 min 29 sec) 
Heartbeat CPU 0 instructions: 141000000 cycles: 902627194 heartbeat IPC: 0.0640453 cumulative IPC: 0.103765 (Simulation time: 1 hr 30 min 38 sec) 
Heartbeat CPU 0 instructions: 142000000 cycles: 910351130 heartbeat IPC: 0.129468 cumulative IPC: 0.103989 (Simulation time: 1 hr 30 min 45 sec) 
Heartbeat CPU 0 instructions: 143000000 cycles: 918267727 heartbeat IPC: 0.126317 cumulative IPC: 0.104187 (Simulation time: 1 hr 30 min 52 sec) 
Heartbeat CPU 0 instructions: 144000000 cycles: 926208858 heartbeat IPC: 0.125927 cumulative IPC: 0.104379 (Simulation time: 1 hr 30 min 58 sec) 
Heartbeat CPU 0 instructions: 145000003 cycles: 941510343 heartbeat IPC: 0.0653533 cumulative IPC: 0.103727 (Simulation time: 1 hr 31 min 8 sec) 
Heartbeat CPU 0 instructions: 146000000 cycles: 950155949 heartbeat IPC: 0.115665 cumulative IPC: 0.103838 (Simulation time: 1 hr 31 min 15 sec) 
Heartbeat CPU 0 instructions: 147000000 cycles: 958301493 heartbeat IPC: 0.122767 cumulative IPC: 0.104004 (Simulation time: 1 hr 31 min 21 sec) 
Heartbeat CPU 0 instructions: 148000000 cycles: 966661986 heartbeat IPC: 0.11961 cumulative IPC: 0.104142 (Simulation time: 1 hr 31 min 28 sec) 
Heartbeat CPU 0 instructions: 149000001 cycles: 979976100 heartbeat IPC: 0.0751083 cumulative IPC: 0.103737 (Simulation time: 1 hr 31 min 37 sec) 
Heartbeat CPU 0 instructions: 150000000 cycles: 991421249 heartbeat IPC: 0.0873732 cumulative IPC: 0.103543 (Simulation time: 1 hr 31 min 45 sec) 
Finished CPU 0 instructions: 100000000 cycles: 965778459 cummulative IPC: 0.103543 (Simulation time: 1 hr 31 min 45 sec) 

ChampSim completed all CPUs

Region of Interest Statistics

CPU 0 cummulative IPC: 0.103543 instructions: 100000000 cycles: 965778459
LLC TOTAL     ACCESS:   21110954  HIT:   10247323  MISS:   10863631
LLC LOAD      ACCESS:    9532712  HIT:    5455000  MISS:    4077712
LLC RFO       ACCESS:     168953  HIT:      44413  MISS:     124540
LLC PREFETCH  ACCESS:    9550903  HIT:    3421850  MISS:    6129053
LLC WRITEBACK ACCESS:    1858386  HIT:    1326060  MISS:     532326
OPTgen accesses: 242090
OPTgen hits: 203335
OPTgen hit rate: 83.9915


