
*** ChampSim Multicore Out-of-Order Simulator ***

Warmup Instructions: 50000000
Simulation Instructions: 100000000
Configuration: 2
Number of CPUs: 1
LLC sets: 2048
LLC ways: 16
Off-chip DRAM Channels: 1 Width: 64-bit Data Rate: 1600 MT/s

CPU 0 runs /datasets/cs240c-wi22-a00-public/data/Assignment2-gz/soplex_66B.trace.gz
CPU 0 L1D next line prefetcher
CPU 0 L2C IP-based stride prefetcher
Initialize Hawkeye state
Heartbeat CPU 0 instructions: 1000003 cycles: 415067 heartbeat IPC: 2.40926 cumulative IPC: 2.40926 (Simulation time: 0 hr 0 min 36 sec) 
Heartbeat CPU 0 instructions: 2000003 cycles: 837443 heartbeat IPC: 2.36756 cumulative IPC: 2.38823 (Simulation time: 0 hr 1 min 14 sec) 
Heartbeat CPU 0 instructions: 3000003 cycles: 1242440 heartbeat IPC: 2.46915 cumulative IPC: 2.41461 (Simulation time: 0 hr 1 min 46 sec) 
Heartbeat CPU 0 instructions: 4000000 cycles: 1626552 heartbeat IPC: 2.6034 cumulative IPC: 2.45919 (Simulation time: 0 hr 2 min 14 sec) 
Heartbeat CPU 0 instructions: 5000000 cycles: 2038264 heartbeat IPC: 2.42888 cumulative IPC: 2.45307 (Simulation time: 0 hr 2 min 42 sec) 
Heartbeat CPU 0 instructions: 6000000 cycles: 2510449 heartbeat IPC: 2.11781 cumulative IPC: 2.39001 (Simulation time: 0 hr 3 min 12 sec) 
Heartbeat CPU 0 instructions: 7000002 cycles: 2882859 heartbeat IPC: 2.68522 cumulative IPC: 2.42815 (Simulation time: 0 hr 3 min 44 sec) 
Heartbeat CPU 0 instructions: 8000000 cycles: 3308341 heartbeat IPC: 2.35027 cumulative IPC: 2.41813 (Simulation time: 0 hr 4 min 18 sec) 
Heartbeat CPU 0 instructions: 9000001 cycles: 3746862 heartbeat IPC: 2.28039 cumulative IPC: 2.40201 (Simulation time: 0 hr 4 min 51 sec) 
Heartbeat CPU 0 instructions: 10000002 cycles: 4159024 heartbeat IPC: 2.42623 cumulative IPC: 2.40441 (Simulation time: 0 hr 5 min 23 sec) 
Heartbeat CPU 0 instructions: 11000001 cycles: 4570181 heartbeat IPC: 2.43216 cumulative IPC: 2.40691 (Simulation time: 0 hr 5 min 59 sec) 
Heartbeat CPU 0 instructions: 12000000 cycles: 4954119 heartbeat IPC: 2.60458 cumulative IPC: 2.42223 (Simulation time: 0 hr 6 min 27 sec) 
Heartbeat CPU 0 instructions: 13000003 cycles: 5353285 heartbeat IPC: 2.50523 cumulative IPC: 2.42842 (Simulation time: 0 hr 6 min 58 sec) 
Heartbeat CPU 0 instructions: 14000002 cycles: 5840930 heartbeat IPC: 2.05067 cumulative IPC: 2.39688 (Simulation time: 0 hr 7 min 30 sec) 
Heartbeat CPU 0 instructions: 15000003 cycles: 6215674 heartbeat IPC: 2.66849 cumulative IPC: 2.41325 (Simulation time: 0 hr 8 min 5 sec) 
Heartbeat CPU 0 instructions: 16000000 cycles: 6624043 heartbeat IPC: 2.44876 cumulative IPC: 2.41544 (Simulation time: 0 hr 8 min 42 sec) 
Heartbeat CPU 0 instructions: 17000001 cycles: 7078092 heartbeat IPC: 2.20241 cumulative IPC: 2.40178 (Simulation time: 0 hr 9 min 19 sec) 
Heartbeat CPU 0 instructions: 18000003 cycles: 7487196 heartbeat IPC: 2.44437 cumulative IPC: 2.4041 (Simulation time: 0 hr 9 min 56 sec) 
Heartbeat CPU 0 instructions: 19000002 cycles: 7905183 heartbeat IPC: 2.39242 cumulative IPC: 2.40349 (Simulation time: 0 hr 10 min 33 sec) 
Heartbeat CPU 0 instructions: 20000000 cycles: 8289153 heartbeat IPC: 2.60436 cumulative IPC: 2.41279 (Simulation time: 0 hr 10 min 57 sec) 
Heartbeat CPU 0 instructions: 21000000 cycles: 8683069 heartbeat IPC: 2.53861 cumulative IPC: 2.4185 (Simulation time: 0 hr 11 min 25 sec) 
Heartbeat CPU 0 instructions: 22000000 cycles: 9175995 heartbeat IPC: 2.0287 cumulative IPC: 2.39756 (Simulation time: 0 hr 11 min 54 sec) 
Heartbeat CPU 0 instructions: 23000002 cycles: 9549513 heartbeat IPC: 2.67725 cumulative IPC: 2.4085 (Simulation time: 0 hr 12 min 21 sec) 
Heartbeat CPU 0 instructions: 24000000 cycles: 9941250 heartbeat IPC: 2.55273 cumulative IPC: 2.41418 (Simulation time: 0 hr 12 min 49 sec) 
Heartbeat CPU 0 instructions: 25000003 cycles: 10419649 heartbeat IPC: 2.09031 cumulative IPC: 2.39931 (Simulation time: 0 hr 13 min 20 sec) 
Heartbeat CPU 0 instructions: 26000001 cycles: 10818527 heartbeat IPC: 2.50703 cumulative IPC: 2.40328 (Simulation time: 0 hr 13 min 49 sec) 
Heartbeat CPU 0 instructions: 27000002 cycles: 11236664 heartbeat IPC: 2.39156 cumulative IPC: 2.40285 (Simulation time: 0 hr 14 min 22 sec) 
Heartbeat CPU 0 instructions: 28000000 cycles: 11620854 heartbeat IPC: 2.60287 cumulative IPC: 2.40946 (Simulation time: 0 hr 14 min 51 sec) 
Heartbeat CPU 0 instructions: 29000000 cycles: 12010756 heartbeat IPC: 2.56475 cumulative IPC: 2.4145 (Simulation time: 0 hr 15 min 20 sec) 
Heartbeat CPU 0 instructions: 30000003 cycles: 12508993 heartbeat IPC: 2.00708 cumulative IPC: 2.39827 (Simulation time: 0 hr 15 min 48 sec) 
Heartbeat CPU 0 instructions: 31000001 cycles: 12881386 heartbeat IPC: 2.68533 cumulative IPC: 2.40657 (Simulation time: 0 hr 16 min 18 sec) 
Heartbeat CPU 0 instructions: 32000000 cycles: 13261708 heartbeat IPC: 2.62935 cumulative IPC: 2.41296 (Simulation time: 0 hr 16 min 47 sec) 
Heartbeat CPU 0 instructions: 33000002 cycles: 13684778 heartbeat IPC: 2.36368 cumulative IPC: 2.41144 (Simulation time: 0 hr 17 min 18 sec) 
Heartbeat CPU 0 instructions: 34000003 cycles: 14096382 heartbeat IPC: 2.42952 cumulative IPC: 2.41197 (Simulation time: 0 hr 17 min 44 sec) 
Heartbeat CPU 0 instructions: 35000003 cycles: 14507098 heartbeat IPC: 2.43477 cumulative IPC: 2.41261 (Simulation time: 0 hr 18 min 17 sec) 
Heartbeat CPU 0 instructions: 36000000 cycles: 14890852 heartbeat IPC: 2.60583 cumulative IPC: 2.41759 (Simulation time: 0 hr 18 min 44 sec) 
Heartbeat CPU 0 instructions: 37000000 cycles: 15289505 heartbeat IPC: 2.50845 cumulative IPC: 2.41996 (Simulation time: 0 hr 19 min 10 sec) 
Heartbeat CPU 0 instructions: 38000000 cycles: 15776811 heartbeat IPC: 2.0521 cumulative IPC: 2.4086 (Simulation time: 0 hr 19 min 40 sec) 
Heartbeat CPU 0 instructions: 39000002 cycles: 16148625 heartbeat IPC: 2.68952 cumulative IPC: 2.41507 (Simulation time: 0 hr 20 min 10 sec) 
Heartbeat CPU 0 instructions: 40000000 cycles: 16557898 heartbeat IPC: 2.44335 cumulative IPC: 2.41577 (Simulation time: 0 hr 20 min 42 sec) 
Heartbeat CPU 0 instructions: 41000001 cycles: 17012366 heartbeat IPC: 2.20038 cumulative IPC: 2.41001 (Simulation time: 0 hr 21 min 12 sec) 
Heartbeat CPU 0 instructions: 42000003 cycles: 17421405 heartbeat IPC: 2.44476 cumulative IPC: 2.41083 (Simulation time: 0 hr 21 min 41 sec) 
Heartbeat CPU 0 instructions: 43000000 cycles: 17839900 heartbeat IPC: 2.38951 cumulative IPC: 2.41033 (Simulation time: 0 hr 22 min 12 sec) 
Heartbeat CPU 0 instructions: 44000000 cycles: 18223616 heartbeat IPC: 2.60609 cumulative IPC: 2.41445 (Simulation time: 0 hr 22 min 43 sec) 
Heartbeat CPU 0 instructions: 45000003 cycles: 18617200 heartbeat IPC: 2.54076 cumulative IPC: 2.41712 (Simulation time: 0 hr 23 min 11 sec) 
Heartbeat CPU 0 instructions: 46000001 cycles: 19111561 heartbeat IPC: 2.02281 cumulative IPC: 2.40692 (Simulation time: 0 hr 23 min 40 sec) 
Heartbeat CPU 0 instructions: 47000001 cycles: 19486090 heartbeat IPC: 2.67002 cumulative IPC: 2.41198 (Simulation time: 0 hr 24 min 9 sec) 
Heartbeat CPU 0 instructions: 48000000 cycles: 19876476 heartbeat IPC: 2.56156 cumulative IPC: 2.41492 (Simulation time: 0 hr 24 min 38 sec) 
Heartbeat CPU 0 instructions: 49000000 cycles: 20532545 heartbeat IPC: 1.52423 cumulative IPC: 2.38646 (Simulation time: 0 hr 25 min 16 sec) 
Heartbeat CPU 0 instructions: 50000003 cycles: 21057760 heartbeat IPC: 1.90399 cumulative IPC: 2.37442 (Simulation time: 0 hr 25 min 54 sec) 

Warmup complete CPU 0 instructions: 50000003 cycles: 21057760 (Simulation time: 0 hr 25 min 54 sec) 

Heartbeat CPU 0 instructions: 51000002 cycles: 23542047 heartbeat IPC: 0.40253 cumulative IPC: 0.40253 (Simulation time: 0 hr 26 min 45 sec) 
Heartbeat CPU 0 instructions: 52000000 cycles: 27256764 heartbeat IPC: 0.269199 cumulative IPC: 0.322632 (Simulation time: 0 hr 27 min 28 sec) 
Heartbeat CPU 0 instructions: 53000003 cycles: 29891667 heartbeat IPC: 0.379522 cumulative IPC: 0.339601 (Simulation time: 0 hr 28 min 10 sec) 
Heartbeat CPU 0 instructions: 54000000 cycles: 32331139 heartbeat IPC: 0.409924 cumulative IPC: 0.354818 (Simulation time: 0 hr 28 min 51 sec) 
Heartbeat CPU 0 instructions: 55000002 cycles: 35868634 heartbeat IPC: 0.282686 cumulative IPC: 0.33759 (Simulation time: 0 hr 29 min 28 sec) 
Heartbeat CPU 0 instructions: 56000000 cycles: 39223577 heartbeat IPC: 0.298067 cumulative IPC: 0.330291 (Simulation time: 0 hr 30 min 9 sec) 
Heartbeat CPU 0 instructions: 57000003 cycles: 41803613 heartbeat IPC: 0.387593 cumulative IPC: 0.337417 (Simulation time: 0 hr 30 min 48 sec) 
Heartbeat CPU 0 instructions: 58000002 cycles: 44017902 heartbeat IPC: 0.451612 cumulative IPC: 0.34843 (Simulation time: 0 hr 31 min 25 sec) 
Heartbeat CPU 0 instructions: 59000002 cycles: 45567675 heartbeat IPC: 0.645256 cumulative IPC: 0.367198 (Simulation time: 0 hr 32 min 2 sec) 
Heartbeat CPU 0 instructions: 60000000 cycles: 47101078 heartbeat IPC: 0.652143 cumulative IPC: 0.383976 (Simulation time: 0 hr 32 min 33 sec) 
Heartbeat CPU 0 instructions: 61000002 cycles: 49839536 heartbeat IPC: 0.36517 cumulative IPC: 0.382186 (Simulation time: 0 hr 33 min 14 sec) 
Heartbeat CPU 0 instructions: 62000000 cycles: 52581199 heartbeat IPC: 0.364741 cumulative IPC: 0.380669 (Simulation time: 0 hr 33 min 59 sec) 
Heartbeat CPU 0 instructions: 63000002 cycles: 54573432 heartbeat IPC: 0.50195 cumulative IPC: 0.387878 (Simulation time: 0 hr 34 min 39 sec) 
Heartbeat CPU 0 instructions: 64000000 cycles: 57006248 heartbeat IPC: 0.411045 cumulative IPC: 0.389446 (Simulation time: 0 hr 35 min 18 sec) 
Heartbeat CPU 0 instructions: 65000000 cycles: 60560351 heartbeat IPC: 0.281365 cumulative IPC: 0.379722 (Simulation time: 0 hr 36 min 4 sec) 
Heartbeat CPU 0 instructions: 66000001 cycles: 61838345 heartbeat IPC: 0.782477 cumulative IPC: 0.392344 (Simulation time: 0 hr 36 min 28 sec) 
Heartbeat CPU 0 instructions: 67000000 cycles: 63231385 heartbeat IPC: 0.717854 cumulative IPC: 0.403095 (Simulation time: 0 hr 36 min 54 sec) 
Heartbeat CPU 0 instructions: 68000000 cycles: 66735015 heartbeat IPC: 0.285418 cumulative IPC: 0.394069 (Simulation time: 0 hr 37 min 39 sec) 
Heartbeat CPU 0 instructions: 69000000 cycles: 69368159 heartbeat IPC: 0.379774 cumulative IPC: 0.39329 (Simulation time: 0 hr 38 min 9 sec) 
Heartbeat CPU 0 instructions: 70000001 cycles: 71891746 heartbeat IPC: 0.396262 cumulative IPC: 0.393438 (Simulation time: 0 hr 38 min 39 sec) 
Heartbeat CPU 0 instructions: 71000000 cycles: 74383701 heartbeat IPC: 0.401291 cumulative IPC: 0.393805 (Simulation time: 0 hr 39 min 18 sec) 
Heartbeat CPU 0 instructions: 72000000 cycles: 77166540 heartbeat IPC: 0.359345 cumulative IPC: 0.392095 (Simulation time: 0 hr 39 min 53 sec) 
Heartbeat CPU 0 instructions: 73000001 cycles: 80012018 heartbeat IPC: 0.351435 cumulative IPC: 0.390133 (Simulation time: 0 hr 40 min 34 sec) 
Heartbeat CPU 0 instructions: 74000000 cycles: 81891127 heartbeat IPC: 0.532167 cumulative IPC: 0.39452 (Simulation time: 0 hr 41 min 1 sec) 
Heartbeat CPU 0 instructions: 75000002 cycles: 83108926 heartbeat IPC: 0.821155 cumulative IPC: 0.402893 (Simulation time: 0 hr 41 min 25 sec) 
Heartbeat CPU 0 instructions: 76000000 cycles: 86617173 heartbeat IPC: 0.285042 cumulative IPC: 0.396587 (Simulation time: 0 hr 42 min 4 sec) 
Heartbeat CPU 0 instructions: 77000000 cycles: 89099312 heartbeat IPC: 0.402878 cumulative IPC: 0.396816 (Simulation time: 0 hr 42 min 36 sec) 
Heartbeat CPU 0 instructions: 78000003 cycles: 91713683 heartbeat IPC: 0.382502 cumulative IPC: 0.396287 (Simulation time: 0 hr 43 min 6 sec) 
Heartbeat CPU 0 instructions: 79000001 cycles: 95076052 heartbeat IPC: 0.297409 cumulative IPC: 0.391795 (Simulation time: 0 hr 43 min 51 sec) 
Heartbeat CPU 0 instructions: 80000000 cycles: 97506295 heartbeat IPC: 0.411481 cumulative IPC: 0.392421 (Simulation time: 0 hr 44 min 29 sec) 
Heartbeat CPU 0 instructions: 81000003 cycles: 100485238 heartbeat IPC: 0.335691 cumulative IPC: 0.390293 (Simulation time: 0 hr 45 min 12 sec) 
Heartbeat CPU 0 instructions: 82000000 cycles: 102114119 heartbeat IPC: 0.613917 cumulative IPC: 0.394787 (Simulation time: 0 hr 45 min 39 sec) 
Heartbeat CPU 0 instructions: 83000001 cycles: 103385066 heartbeat IPC: 0.786816 cumulative IPC: 0.400839 (Simulation time: 0 hr 46 min 4 sec) 
Heartbeat CPU 0 instructions: 84000000 cycles: 106824947 heartbeat IPC: 0.290707 cumulative IPC: 0.396422 (Simulation time: 0 hr 46 min 42 sec) 
Heartbeat CPU 0 instructions: 85000000 cycles: 109290228 heartbeat IPC: 0.405633 cumulative IPC: 0.396679 (Simulation time: 0 hr 47 min 11 sec) 
Heartbeat CPU 0 instructions: 86000000 cycles: 112026685 heartbeat IPC: 0.365436 cumulative IPC: 0.395739 (Simulation time: 0 hr 47 min 40 sec) 
Heartbeat CPU 0 instructions: 87000000 cycles: 115172800 heartbeat IPC: 0.317852 cumulative IPC: 0.393136 (Simulation time: 0 hr 48 min 27 sec) 
Heartbeat CPU 0 instructions: 88000000 cycles: 117317910 heartbeat IPC: 0.466177 cumulative IPC: 0.394764 (Simulation time: 0 hr 49 min 6 sec) 
Heartbeat CPU 0 instructions: 89000001 cycles: 120701805 heartbeat IPC: 0.295518 cumulative IPC: 0.391393 (Simulation time: 0 hr 49 min 52 sec) 
Heartbeat CPU 0 instructions: 90000002 cycles: 121937264 heartbeat IPC: 0.809417 cumulative IPC: 0.396513 (Simulation time: 0 hr 50 min 17 sec) 
Heartbeat CPU 0 instructions: 91000000 cycles: 123255594 heartbeat IPC: 0.758534 cumulative IPC: 0.401183 (Simulation time: 0 hr 50 min 44 sec) 
Heartbeat CPU 0 instructions: 92000000 cycles: 126720009 heartbeat IPC: 0.288649 cumulative IPC: 0.397493 (Simulation time: 0 hr 51 min 25 sec) 
Heartbeat CPU 0 instructions: 93000000 cycles: 129403409 heartbeat IPC: 0.372662 cumulative IPC: 0.396878 (Simulation time: 0 hr 51 min 57 sec) 
Heartbeat CPU 0 instructions: 94000001 cycles: 132035282 heartbeat IPC: 0.379958 cumulative IPC: 0.396477 (Simulation time: 0 hr 52 min 30 sec) 
Heartbeat CPU 0 instructions: 95000003 cycles: 135243519 heartbeat IPC: 0.311698 cumulative IPC: 0.394095 (Simulation time: 0 hr 53 min 17 sec) 
Heartbeat CPU 0 instructions: 96000000 cycles: 137099340 heartbeat IPC: 0.538843 cumulative IPC: 0.39641 (Simulation time: 0 hr 53 min 51 sec) 
Heartbeat CPU 0 instructions: 97000003 cycles: 140218281 heartbeat IPC: 0.320623 cumulative IPC: 0.394426 (Simulation time: 0 hr 54 min 29 sec) 
Heartbeat CPU 0 instructions: 98000003 cycles: 141454659 heartbeat IPC: 0.808814 cumulative IPC: 0.398681 (Simulation time: 0 hr 54 min 51 sec) 
Heartbeat CPU 0 instructions: 99000000 cycles: 143965062 heartbeat IPC: 0.398341 cumulative IPC: 0.398674 (Simulation time: 0 hr 55 min 25 sec) 
Heartbeat CPU 0 instructions: 100000000 cycles: 146780747 heartbeat IPC: 0.355153 cumulative IPC: 0.3977 (Simulation time: 0 hr 56 min 4 sec) 
Heartbeat CPU 0 instructions: 101000001 cycles: 149377477 heartbeat IPC: 0.3851 cumulative IPC: 0.397445 (Simulation time: 0 hr 56 min 32 sec) 
Heartbeat CPU 0 instructions: 102000002 cycles: 152205780 heartbeat IPC: 0.353569 cumulative IPC: 0.396499 (Simulation time: 0 hr 57 min 4 sec) 
Heartbeat CPU 0 instructions: 103000002 cycles: 155284612 heartbeat IPC: 0.324798 cumulative IPC: 0.394854 (Simulation time: 0 hr 57 min 46 sec) 
Heartbeat CPU 0 instructions: 104000000 cycles: 157503796 heartbeat IPC: 0.450615 cumulative IPC: 0.395761 (Simulation time: 0 hr 58 min 26 sec) 
Heartbeat CPU 0 instructions: 105000000 cycles: 159821020 heartbeat IPC: 0.431551 cumulative IPC: 0.396358 (Simulation time: 0 hr 58 min 59 sec) 
Heartbeat CPU 0 instructions: 106000001 cycles: 161038251 heartbeat IPC: 0.821538 cumulative IPC: 0.400056 (Simulation time: 0 hr 59 min 24 sec) 
Heartbeat CPU 0 instructions: 107000001 cycles: 164066553 heartbeat IPC: 0.330218 cumulative IPC: 0.398577 (Simulation time: 1 hr 0 min 1 sec) 
Heartbeat CPU 0 instructions: 108000000 cycles: 166426594 heartbeat IPC: 0.423721 cumulative IPC: 0.398985 (Simulation time: 1 hr 0 min 34 sec) 
Heartbeat CPU 0 instructions: 109000003 cycles: 169073509 heartbeat IPC: 0.377799 cumulative IPC: 0.398606 (Simulation time: 1 hr 1 min 7 sec) 
Heartbeat CPU 0 instructions: 110000001 cycles: 172350513 heartbeat IPC: 0.305156 cumulative IPC: 0.396582 (Simulation time: 1 hr 1 min 49 sec) 
Heartbeat CPU 0 instructions: 111000001 cycles: 174400043 heartbeat IPC: 0.487917 cumulative IPC: 0.397803 (Simulation time: 1 hr 2 min 22 sec) 
Heartbeat CPU 0 instructions: 112000000 cycles: 176421083 heartbeat IPC: 0.494794 cumulative IPC: 0.399065 (Simulation time: 1 hr 3 min 6 sec) 
Heartbeat CPU 0 instructions: 113000000 cycles: 179060436 heartbeat IPC: 0.378881 cumulative IPC: 0.398727 (Simulation time: 1 hr 3 min 40 sec) 
Heartbeat CPU 0 instructions: 114000000 cycles: 180296197 heartbeat IPC: 0.809218 cumulative IPC: 0.401913 (Simulation time: 1 hr 4 min 3 sec) 
Heartbeat CPU 0 instructions: 115000003 cycles: 183406570 heartbeat IPC: 0.321506 cumulative IPC: 0.400373 (Simulation time: 1 hr 4 min 40 sec) 
Heartbeat CPU 0 instructions: 116000000 cycles: 185838531 heartbeat IPC: 0.41119 cumulative IPC: 0.400532 (Simulation time: 1 hr 5 min 11 sec) 
Heartbeat CPU 0 instructions: 117000000 cycles: 188576221 heartbeat IPC: 0.365271 cumulative IPC: 0.399956 (Simulation time: 1 hr 5 min 39 sec) 
Heartbeat CPU 0 instructions: 118000003 cycles: 191916841 heartbeat IPC: 0.299347 cumulative IPC: 0.397989 (Simulation time: 1 hr 6 min 19 sec) 
Heartbeat CPU 0 instructions: 119000002 cycles: 193788721 heartbeat IPC: 0.534222 cumulative IPC: 0.399465 (Simulation time: 1 hr 6 min 58 sec) 
Heartbeat CPU 0 instructions: 120000000 cycles: 195720081 heartbeat IPC: 0.517769 cumulative IPC: 0.400773 (Simulation time: 1 hr 7 min 32 sec) 
Heartbeat CPU 0 instructions: 121000000 cycles: 198515624 heartbeat IPC: 0.357712 cumulative IPC: 0.400095 (Simulation time: 1 hr 8 min 4 sec) 
Heartbeat CPU 0 instructions: 122000000 cycles: 199724699 heartbeat IPC: 0.827079 cumulative IPC: 0.402984 (Simulation time: 1 hr 8 min 26 sec) 
Heartbeat CPU 0 instructions: 123000000 cycles: 202392849 heartbeat IPC: 0.374792 cumulative IPC: 0.40257 (Simulation time: 1 hr 8 min 56 sec) 
Heartbeat CPU 0 instructions: 124000000 cycles: 204981738 heartbeat IPC: 0.386266 cumulative IPC: 0.40234 (Simulation time: 1 hr 9 min 29 sec) 
Heartbeat CPU 0 instructions: 125000001 cycles: 207579344 heartbeat IPC: 0.38497 cumulative IPC: 0.402098 (Simulation time: 1 hr 9 min 56 sec) 
Heartbeat CPU 0 instructions: 126000002 cycles: 210505274 heartbeat IPC: 0.341772 cumulative IPC: 0.401167 (Simulation time: 1 hr 10 min 32 sec) 
Heartbeat CPU 0 instructions: 127000002 cycles: 213482192 heartbeat IPC: 0.335918 cumulative IPC: 0.400157 (Simulation time: 1 hr 11 min 11 sec) 
Heartbeat CPU 0 instructions: 128000000 cycles: 215906399 heartbeat IPC: 0.412505 cumulative IPC: 0.400311 (Simulation time: 1 hr 11 min 47 sec) 
Heartbeat CPU 0 instructions: 129000000 cycles: 218041930 heartbeat IPC: 0.468268 cumulative IPC: 0.401047 (Simulation time: 1 hr 12 min 12 sec) 
Heartbeat CPU 0 instructions: 130000000 cycles: 219303070 heartbeat IPC: 0.792933 cumulative IPC: 0.40354 (Simulation time: 1 hr 12 min 33 sec) 
Heartbeat CPU 0 instructions: 131000000 cycles: 222565689 heartbeat IPC: 0.306502 cumulative IPC: 0.401969 (Simulation time: 1 hr 13 min 6 sec) 
Heartbeat CPU 0 instructions: 132000000 cycles: 225037506 heartbeat IPC: 0.404561 cumulative IPC: 0.402001 (Simulation time: 1 hr 13 min 31 sec) 
Heartbeat CPU 0 instructions: 133000000 cycles: 227706833 heartbeat IPC: 0.374626 cumulative IPC: 0.401647 (Simulation time: 1 hr 13 min 58 sec) 
Heartbeat CPU 0 instructions: 134000003 cycles: 231162303 heartbeat IPC: 0.289397 cumulative IPC: 0.399801 (Simulation time: 1 hr 14 min 33 sec) 
Heartbeat CPU 0 instructions: 135000003 cycles: 233093649 heartbeat IPC: 0.517774 cumulative IPC: 0.400876 (Simulation time: 1 hr 14 min 57 sec) 
Heartbeat CPU 0 instructions: 136000000 cycles: 235090134 heartbeat IPC: 0.500879 cumulative IPC: 0.401808 (Simulation time: 1 hr 15 min 22 sec) 
Heartbeat CPU 0 instructions: 137000000 cycles: 237775343 heartbeat IPC: 0.37241 cumulative IPC: 0.401444 (Simulation time: 1 hr 15 min 48 sec) 
Heartbeat CPU 0 instructions: 138000000 cycles: 238984772 heartbeat IPC: 0.826836 cumulative IPC: 0.403805 (Simulation time: 1 hr 16 min 6 sec) 
Heartbeat CPU 0 instructions: 139000001 cycles: 241868155 heartbeat IPC: 0.346815 cumulative IPC: 0.403061 (Simulation time: 1 hr 16 min 30 sec) 
Heartbeat CPU 0 instructions: 140000000 cycles: 244324704 heartbeat IPC: 0.407075 cumulative IPC: 0.403105 (Simulation time: 1 hr 16 min 52 sec) 
Heartbeat CPU 0 instructions: 141000003 cycles: 246966952 heartbeat IPC: 0.378467 cumulative IPC: 0.402817 (Simulation time: 1 hr 17 min 10 sec) 
Heartbeat CPU 0 instructions: 142000001 cycles: 250202930 heartbeat IPC: 0.309025 cumulative IPC: 0.401492 (Simulation time: 1 hr 17 min 34 sec) 
Heartbeat CPU 0 instructions: 143000001 cycles: 254754781 heartbeat IPC: 0.219691 cumulative IPC: 0.397951 (Simulation time: 1 hr 18 min 1 sec) 
Heartbeat CPU 0 instructions: 144000000 cycles: 258435616 heartbeat IPC: 0.271677 cumulative IPC: 0.395993 (Simulation time: 1 hr 18 min 30 sec) 
Heartbeat CPU 0 instructions: 145000002 cycles: 261294107 heartbeat IPC: 0.349836 cumulative IPC: 0.395444 (Simulation time: 1 hr 18 min 57 sec) 
Heartbeat CPU 0 instructions: 146000000 cycles: 265237881 heartbeat IPC: 0.253564 cumulative IPC: 0.393152 (Simulation time: 1 hr 19 min 24 sec) 
Heartbeat CPU 0 instructions: 147000000 cycles: 267844429 heartbeat IPC: 0.383649 cumulative IPC: 0.393052 (Simulation time: 1 hr 19 min 49 sec) 
Heartbeat CPU 0 instructions: 148000000 cycles: 271000570 heartbeat IPC: 0.316843 cumulative IPC: 0.39209 (Simulation time: 1 hr 20 min 15 sec) 
Heartbeat CPU 0 instructions: 149000000 cycles: 274378865 heartbeat IPC: 0.296007 cumulative IPC: 0.390808 (Simulation time: 1 hr 20 min 35 sec) 
Heartbeat CPU 0 instructions: 150000001 cycles: 277390805 heartbeat IPC: 0.332012 cumulative IPC: 0.390117 (Simulation time: 1 hr 20 min 57 sec) 
Finished CPU 0 instructions: 100000001 cycles: 256333049 cummulative IPC: 0.390117 (Simulation time: 1 hr 20 min 57 sec) 

ChampSim completed all CPUs

Region of Interest Statistics

CPU 0 cummulative IPC: 0.390117 instructions: 100000001 cycles: 256333049
LLC TOTAL     ACCESS:    6716025  HIT:    3243568  MISS:    3472457
LLC LOAD      ACCESS:    1680657  HIT:     687201  MISS:     993456
LLC RFO       ACCESS:     736905  HIT:     246708  MISS:     490197
LLC PREFETCH  ACCESS:    2658287  HIT:    1119045  MISS:    1539242
LLC WRITEBACK ACCESS:    1640176  HIT:    1190614  MISS:     449562
OPTgen accesses: 53059
OPTgen hits: 37771
OPTgen hit rate: 71.1868


