
*** ChampSim Multicore Out-of-Order Simulator ***

Warmup Instructions: 50000000
Simulation Instructions: 100000000
Configuration: 2
Number of CPUs: 1
LLC sets: 2048
LLC ways: 16
Off-chip DRAM Channels: 1 Width: 64-bit Data Rate: 1600 MT/s

CPU 0 runs /datasets/cs240c-wi22-a00-public/data/Assignment2-gz/zeusmp_300B.trace.gz
CPU 0 L1D next line prefetcher
CPU 0 L2C IP-based stride prefetcher
Initialize Hawkeye state
Heartbeat CPU 0 instructions: 1000003 cycles: 509580 heartbeat IPC: 1.96241 cumulative IPC: 1.96241 (Simulation time: 0 hr 0 min 30 sec) 
Heartbeat CPU 0 instructions: 2000003 cycles: 1062148 heartbeat IPC: 1.80973 cumulative IPC: 1.88298 (Simulation time: 0 hr 1 min 0 sec) 
Heartbeat CPU 0 instructions: 3000002 cycles: 1606419 heartbeat IPC: 1.83732 cumulative IPC: 1.86751 (Simulation time: 0 hr 1 min 33 sec) 
Heartbeat CPU 0 instructions: 4000000 cycles: 2093208 heartbeat IPC: 2.05427 cumulative IPC: 1.91094 (Simulation time: 0 hr 2 min 3 sec) 
Heartbeat CPU 0 instructions: 5000001 cycles: 2575890 heartbeat IPC: 2.07176 cumulative IPC: 1.94108 (Simulation time: 0 hr 2 min 36 sec) 
Heartbeat CPU 0 instructions: 6000000 cycles: 3062578 heartbeat IPC: 2.0547 cumulative IPC: 1.95913 (Simulation time: 0 hr 3 min 10 sec) 
Heartbeat CPU 0 instructions: 7000001 cycles: 3590722 heartbeat IPC: 1.89342 cumulative IPC: 1.94947 (Simulation time: 0 hr 3 min 39 sec) 
Heartbeat CPU 0 instructions: 8000000 cycles: 4144748 heartbeat IPC: 1.80497 cumulative IPC: 1.93015 (Simulation time: 0 hr 4 min 11 sec) 
Heartbeat CPU 0 instructions: 9000000 cycles: 4672634 heartbeat IPC: 1.89435 cumulative IPC: 1.92611 (Simulation time: 0 hr 4 min 40 sec) 
Heartbeat CPU 0 instructions: 10000002 cycles: 5158923 heartbeat IPC: 2.05639 cumulative IPC: 1.93839 (Simulation time: 0 hr 5 min 10 sec) 
Heartbeat CPU 0 instructions: 11000003 cycles: 5643379 heartbeat IPC: 2.06417 cumulative IPC: 1.94919 (Simulation time: 0 hr 5 min 39 sec) 
Heartbeat CPU 0 instructions: 12000000 cycles: 6129754 heartbeat IPC: 2.05602 cumulative IPC: 1.95766 (Simulation time: 0 hr 6 min 11 sec) 
Heartbeat CPU 0 instructions: 13000001 cycles: 6673156 heartbeat IPC: 1.84026 cumulative IPC: 1.9481 (Simulation time: 0 hr 6 min 44 sec) 
Heartbeat CPU 0 instructions: 14000002 cycles: 7228998 heartbeat IPC: 1.79907 cumulative IPC: 1.93664 (Simulation time: 0 hr 7 min 19 sec) 
Heartbeat CPU 0 instructions: 15000002 cycles: 7738455 heartbeat IPC: 1.96287 cumulative IPC: 1.93837 (Simulation time: 0 hr 7 min 45 sec) 
Heartbeat CPU 0 instructions: 16000000 cycles: 8224611 heartbeat IPC: 2.05695 cumulative IPC: 1.94538 (Simulation time: 0 hr 8 min 14 sec) 
Heartbeat CPU 0 instructions: 17000003 cycles: 8709863 heartbeat IPC: 2.06079 cumulative IPC: 1.95181 (Simulation time: 0 hr 8 min 43 sec) 
Heartbeat CPU 0 instructions: 18000003 cycles: 9196983 heartbeat IPC: 2.05288 cumulative IPC: 1.95716 (Simulation time: 0 hr 9 min 14 sec) 
Heartbeat CPU 0 instructions: 19000003 cycles: 9756223 heartbeat IPC: 1.78814 cumulative IPC: 1.94748 (Simulation time: 0 hr 9 min 43 sec) 
Heartbeat CPU 0 instructions: 20000000 cycles: 10314616 heartbeat IPC: 1.79085 cumulative IPC: 1.939 (Simulation time: 0 hr 10 min 11 sec) 
Heartbeat CPU 0 instructions: 21000003 cycles: 10806414 heartbeat IPC: 2.03336 cumulative IPC: 1.94329 (Simulation time: 0 hr 10 min 39 sec) 
Heartbeat CPU 0 instructions: 22000002 cycles: 11292552 heartbeat IPC: 2.05703 cumulative IPC: 1.94819 (Simulation time: 0 hr 11 min 7 sec) 
Heartbeat CPU 0 instructions: 23000001 cycles: 11778479 heartbeat IPC: 2.05792 cumulative IPC: 1.95271 (Simulation time: 0 hr 11 min 37 sec) 
Heartbeat CPU 0 instructions: 24000000 cycles: 12282953 heartbeat IPC: 1.98226 cumulative IPC: 1.95393 (Simulation time: 0 hr 12 min 5 sec) 
Heartbeat CPU 0 instructions: 25000000 cycles: 12841430 heartbeat IPC: 1.79058 cumulative IPC: 1.94682 (Simulation time: 0 hr 12 min 31 sec) 
Heartbeat CPU 0 instructions: 26000000 cycles: 13389555 heartbeat IPC: 1.8244 cumulative IPC: 1.94181 (Simulation time: 0 hr 12 min 58 sec) 
Heartbeat CPU 0 instructions: 27000002 cycles: 13876388 heartbeat IPC: 2.0541 cumulative IPC: 1.94575 (Simulation time: 0 hr 13 min 27 sec) 
Heartbeat CPU 0 instructions: 28000000 cycles: 14362417 heartbeat IPC: 2.05749 cumulative IPC: 1.94953 (Simulation time: 0 hr 13 min 53 sec) 
Heartbeat CPU 0 instructions: 29000003 cycles: 14849280 heartbeat IPC: 2.05397 cumulative IPC: 1.95296 (Simulation time: 0 hr 14 min 21 sec) 
Heartbeat CPU 0 instructions: 30000001 cycles: 15371444 heartbeat IPC: 1.9151 cumulative IPC: 1.95167 (Simulation time: 0 hr 14 min 49 sec) 
Heartbeat CPU 0 instructions: 31000000 cycles: 15930944 heartbeat IPC: 1.78731 cumulative IPC: 1.9459 (Simulation time: 0 hr 15 min 15 sec) 
Heartbeat CPU 0 instructions: 32000000 cycles: 16464184 heartbeat IPC: 1.87533 cumulative IPC: 1.94361 (Simulation time: 0 hr 15 min 44 sec) 
Heartbeat CPU 0 instructions: 33000000 cycles: 16950358 heartbeat IPC: 2.05688 cumulative IPC: 1.94686 (Simulation time: 0 hr 16 min 12 sec) 
Heartbeat CPU 0 instructions: 34000000 cycles: 17436940 heartbeat IPC: 2.05515 cumulative IPC: 1.94988 (Simulation time: 0 hr 16 min 40 sec) 
Heartbeat CPU 0 instructions: 35000000 cycles: 17923422 heartbeat IPC: 2.05557 cumulative IPC: 1.95275 (Simulation time: 0 hr 17 min 9 sec) 
Heartbeat CPU 0 instructions: 36000000 cycles: 18462433 heartbeat IPC: 1.85525 cumulative IPC: 1.94991 (Simulation time: 0 hr 17 min 37 sec) 
Heartbeat CPU 0 instructions: 37000003 cycles: 19022878 heartbeat IPC: 1.7843 cumulative IPC: 1.94503 (Simulation time: 0 hr 18 min 9 sec) 
Heartbeat CPU 0 instructions: 38000000 cycles: 19538986 heartbeat IPC: 1.93757 cumulative IPC: 1.94483 (Simulation time: 0 hr 18 min 39 sec) 
Heartbeat CPU 0 instructions: 39000003 cycles: 20025861 heartbeat IPC: 2.05392 cumulative IPC: 1.94748 (Simulation time: 0 hr 19 min 7 sec) 
Heartbeat CPU 0 instructions: 40000000 cycles: 20512458 heartbeat IPC: 2.05508 cumulative IPC: 1.95003 (Simulation time: 0 hr 19 min 38 sec) 
Heartbeat CPU 0 instructions: 41000000 cycles: 20998704 heartbeat IPC: 2.05657 cumulative IPC: 1.9525 (Simulation time: 0 hr 20 min 8 sec) 
Heartbeat CPU 0 instructions: 42000002 cycles: 21555789 heartbeat IPC: 1.79506 cumulative IPC: 1.94843 (Simulation time: 0 hr 20 min 37 sec) 
Heartbeat CPU 0 instructions: 43000002 cycles: 22116817 heartbeat IPC: 1.78244 cumulative IPC: 1.94422 (Simulation time: 0 hr 21 min 4 sec) 
Heartbeat CPU 0 instructions: 44000000 cycles: 22615104 heartbeat IPC: 2.00687 cumulative IPC: 1.9456 (Simulation time: 0 hr 21 min 36 sec) 
Heartbeat CPU 0 instructions: 45000003 cycles: 23101707 heartbeat IPC: 2.05507 cumulative IPC: 1.94791 (Simulation time: 0 hr 22 min 4 sec) 
Heartbeat CPU 0 instructions: 46000001 cycles: 23588116 heartbeat IPC: 2.05588 cumulative IPC: 1.95013 (Simulation time: 0 hr 22 min 30 sec) 
Heartbeat CPU 0 instructions: 47000000 cycles: 24086490 heartbeat IPC: 2.00652 cumulative IPC: 1.9513 (Simulation time: 0 hr 22 min 58 sec) 
Heartbeat CPU 0 instructions: 48000000 cycles: 24649756 heartbeat IPC: 1.77536 cumulative IPC: 1.94728 (Simulation time: 0 hr 23 min 27 sec) 
Heartbeat CPU 0 instructions: 49000002 cycles: 25206012 heartbeat IPC: 1.79774 cumulative IPC: 1.94398 (Simulation time: 0 hr 23 min 55 sec) 
Heartbeat CPU 0 instructions: 50000000 cycles: 25692578 heartbeat IPC: 2.05522 cumulative IPC: 1.94609 (Simulation time: 0 hr 24 min 24 sec) 

Warmup complete CPU 0 instructions: 50000004 cycles: 25692579 (Simulation time: 0 hr 24 min 24 sec) 

Heartbeat CPU 0 instructions: 51000002 cycles: 26375823 heartbeat IPC: 1.46361 cumulative IPC: 1.4636 (Simulation time: 0 hr 24 min 51 sec) 
Heartbeat CPU 0 instructions: 52000000 cycles: 27064120 heartbeat IPC: 1.45286 cumulative IPC: 1.45821 (Simulation time: 0 hr 25 min 18 sec) 
Heartbeat CPU 0 instructions: 53000000 cycles: 27815091 heartbeat IPC: 1.33161 cumulative IPC: 1.41342 (Simulation time: 0 hr 25 min 50 sec) 
Heartbeat CPU 0 instructions: 54000002 cycles: 28626549 heartbeat IPC: 1.23235 cumulative IPC: 1.36334 (Simulation time: 0 hr 26 min 24 sec) 
Heartbeat CPU 0 instructions: 55000001 cycles: 29403481 heartbeat IPC: 1.28711 cumulative IPC: 1.34738 (Simulation time: 0 hr 26 min 55 sec) 
Heartbeat CPU 0 instructions: 56000000 cycles: 30085054 heartbeat IPC: 1.46719 cumulative IPC: 1.36597 (Simulation time: 0 hr 27 min 24 sec) 
Heartbeat CPU 0 instructions: 57000000 cycles: 30769338 heartbeat IPC: 1.46138 cumulative IPC: 1.37883 (Simulation time: 0 hr 27 min 55 sec) 
Heartbeat CPU 0 instructions: 58000000 cycles: 31457382 heartbeat IPC: 1.4534 cumulative IPC: 1.38773 (Simulation time: 0 hr 28 min 25 sec) 
Heartbeat CPU 0 instructions: 59000003 cycles: 32234799 heartbeat IPC: 1.28631 cumulative IPC: 1.37568 (Simulation time: 0 hr 28 min 55 sec) 
Heartbeat CPU 0 instructions: 60000000 cycles: 33047334 heartbeat IPC: 1.23071 cumulative IPC: 1.35966 (Simulation time: 0 hr 29 min 24 sec) 
Heartbeat CPU 0 instructions: 61000000 cycles: 33795408 heartbeat IPC: 1.33677 cumulative IPC: 1.35755 (Simulation time: 0 hr 29 min 59 sec) 
Heartbeat CPU 0 instructions: 62000002 cycles: 34478420 heartbeat IPC: 1.46411 cumulative IPC: 1.36583 (Simulation time: 0 hr 30 min 32 sec) 
Heartbeat CPU 0 instructions: 63000003 cycles: 35163775 heartbeat IPC: 1.4591 cumulative IPC: 1.37258 (Simulation time: 0 hr 31 min 3 sec) 
Heartbeat CPU 0 instructions: 64000000 cycles: 35847064 heartbeat IPC: 1.46351 cumulative IPC: 1.3787 (Simulation time: 0 hr 31 min 34 sec) 
Heartbeat CPU 0 instructions: 65000003 cycles: 36657851 heartbeat IPC: 1.23337 cumulative IPC: 1.36796 (Simulation time: 0 hr 32 min 4 sec) 
Heartbeat CPU 0 instructions: 66000003 cycles: 37470840 heartbeat IPC: 1.23003 cumulative IPC: 1.35843 (Simulation time: 0 hr 32 min 35 sec) 
Heartbeat CPU 0 instructions: 67000002 cycles: 38187229 heartbeat IPC: 1.39589 cumulative IPC: 1.36058 (Simulation time: 0 hr 33 min 5 sec) 
Heartbeat CPU 0 instructions: 68000000 cycles: 38866954 heartbeat IPC: 1.47118 cumulative IPC: 1.36629 (Simulation time: 0 hr 33 min 35 sec) 
Heartbeat CPU 0 instructions: 69000000 cycles: 39549997 heartbeat IPC: 1.46404 cumulative IPC: 1.37111 (Simulation time: 0 hr 34 min 7 sec) 
Heartbeat CPU 0 instructions: 70000001 cycles: 40260309 heartbeat IPC: 1.40783 cumulative IPC: 1.3729 (Simulation time: 0 hr 34 min 35 sec) 
Heartbeat CPU 0 instructions: 71000001 cycles: 41069394 heartbeat IPC: 1.23596 cumulative IPC: 1.36569 (Simulation time: 0 hr 35 min 8 sec) 
Heartbeat CPU 0 instructions: 72000000 cycles: 41880892 heartbeat IPC: 1.23229 cumulative IPC: 1.359 (Simulation time: 0 hr 35 min 39 sec) 
Heartbeat CPU 0 instructions: 73000003 cycles: 42568459 heartbeat IPC: 1.45441 cumulative IPC: 1.36289 (Simulation time: 0 hr 36 min 12 sec) 
Heartbeat CPU 0 instructions: 74000001 cycles: 43250921 heartbeat IPC: 1.46528 cumulative IPC: 1.36687 (Simulation time: 0 hr 36 min 45 sec) 
Heartbeat CPU 0 instructions: 75000003 cycles: 43933510 heartbeat IPC: 1.46501 cumulative IPC: 1.37054 (Simulation time: 0 hr 37 min 24 sec) 
Heartbeat CPU 0 instructions: 76000000 cycles: 44673956 heartbeat IPC: 1.35053 cumulative IPC: 1.36976 (Simulation time: 0 hr 37 min 59 sec) 
Heartbeat CPU 0 instructions: 77000001 cycles: 45486137 heartbeat IPC: 1.23125 cumulative IPC: 1.36408 (Simulation time: 0 hr 38 min 34 sec) 
Heartbeat CPU 0 instructions: 78000003 cycles: 46271247 heartbeat IPC: 1.27371 cumulative IPC: 1.36063 (Simulation time: 0 hr 39 min 5 sec) 
Heartbeat CPU 0 instructions: 79000001 cycles: 46950770 heartbeat IPC: 1.47162 cumulative IPC: 1.36418 (Simulation time: 0 hr 39 min 35 sec) 
Heartbeat CPU 0 instructions: 80000000 cycles: 47633109 heartbeat IPC: 1.46555 cumulative IPC: 1.36733 (Simulation time: 0 hr 40 min 4 sec) 
Heartbeat CPU 0 instructions: 81000000 cycles: 48316775 heartbeat IPC: 1.4627 cumulative IPC: 1.37021 (Simulation time: 0 hr 40 min 34 sec) 
Heartbeat CPU 0 instructions: 82000002 cycles: 49085730 heartbeat IPC: 1.30047 cumulative IPC: 1.36792 (Simulation time: 0 hr 41 min 3 sec) 
Heartbeat CPU 0 instructions: 83000001 cycles: 49897394 heartbeat IPC: 1.23204 cumulative IPC: 1.36336 (Simulation time: 0 hr 41 min 33 sec) 
Heartbeat CPU 0 instructions: 84000000 cycles: 50652814 heartbeat IPC: 1.32377 cumulative IPC: 1.36217 (Simulation time: 0 hr 42 min 4 sec) 
Heartbeat CPU 0 instructions: 85000001 cycles: 51332406 heartbeat IPC: 1.47147 cumulative IPC: 1.36506 (Simulation time: 0 hr 42 min 33 sec) 
Heartbeat CPU 0 instructions: 86000002 cycles: 52016186 heartbeat IPC: 1.46246 cumulative IPC: 1.36759 (Simulation time: 0 hr 43 min 2 sec) 
Heartbeat CPU 0 instructions: 87000000 cycles: 52700027 heartbeat IPC: 1.46233 cumulative IPC: 1.36999 (Simulation time: 0 hr 43 min 30 sec) 
Heartbeat CPU 0 instructions: 88000000 cycles: 53497273 heartbeat IPC: 1.25432 cumulative IPC: 1.36668 (Simulation time: 0 hr 44 min 1 sec) 
Heartbeat CPU 0 instructions: 89000000 cycles: 54310004 heartbeat IPC: 1.23042 cumulative IPC: 1.36281 (Simulation time: 0 hr 44 min 33 sec) 
Heartbeat CPU 0 instructions: 90000002 cycles: 55036586 heartbeat IPC: 1.37631 cumulative IPC: 1.36314 (Simulation time: 0 hr 45 min 2 sec) 
Heartbeat CPU 0 instructions: 91000002 cycles: 55717173 heartbeat IPC: 1.46932 cumulative IPC: 1.36555 (Simulation time: 0 hr 45 min 32 sec) 
Heartbeat CPU 0 instructions: 92000000 cycles: 56401158 heartbeat IPC: 1.46202 cumulative IPC: 1.3677 (Simulation time: 0 hr 46 min 1 sec) 
Heartbeat CPU 0 instructions: 93000001 cycles: 57084624 heartbeat IPC: 1.46313 cumulative IPC: 1.36977 (Simulation time: 0 hr 46 min 32 sec) 
Heartbeat CPU 0 instructions: 94000000 cycles: 57909734 heartbeat IPC: 1.21196 cumulative IPC: 1.36573 (Simulation time: 0 hr 47 min 1 sec) 
Heartbeat CPU 0 instructions: 95000003 cycles: 58721935 heartbeat IPC: 1.23123 cumulative IPC: 1.36242 (Simulation time: 0 hr 47 min 30 sec) 
Heartbeat CPU 0 instructions: 96000000 cycles: 59420216 heartbeat IPC: 1.43208 cumulative IPC: 1.36387 (Simulation time: 0 hr 47 min 59 sec) 
Heartbeat CPU 0 instructions: 97000001 cycles: 60102494 heartbeat IPC: 1.46568 cumulative IPC: 1.36589 (Simulation time: 0 hr 48 min 30 sec) 
Heartbeat CPU 0 instructions: 98000000 cycles: 60787660 heartbeat IPC: 1.4595 cumulative IPC: 1.36771 (Simulation time: 0 hr 48 min 57 sec) 
Heartbeat CPU 0 instructions: 99000001 cycles: 61511379 heartbeat IPC: 1.38175 cumulative IPC: 1.368 (Simulation time: 0 hr 49 min 27 sec) 
Heartbeat CPU 0 instructions: 100000000 cycles: 62325028 heartbeat IPC: 1.22903 cumulative IPC: 1.36491 (Simulation time: 0 hr 49 min 57 sec) 
Heartbeat CPU 0 instructions: 101000001 cycles: 63126785 heartbeat IPC: 1.24726 cumulative IPC: 1.36239 (Simulation time: 0 hr 50 min 27 sec) 
Heartbeat CPU 0 instructions: 102000003 cycles: 63805807 heartbeat IPC: 1.47271 cumulative IPC: 1.36436 (Simulation time: 0 hr 50 min 58 sec) 
Heartbeat CPU 0 instructions: 103000003 cycles: 64486516 heartbeat IPC: 1.46906 cumulative IPC: 1.36619 (Simulation time: 0 hr 51 min 29 sec) 
Heartbeat CPU 0 instructions: 104000000 cycles: 65166555 heartbeat IPC: 1.4705 cumulative IPC: 1.36799 (Simulation time: 0 hr 52 min 1 sec) 
Heartbeat CPU 0 instructions: 105000001 cycles: 65926752 heartbeat IPC: 1.31545 cumulative IPC: 1.367 (Simulation time: 0 hr 52 min 32 sec) 
Heartbeat CPU 0 instructions: 106000002 cycles: 66735143 heartbeat IPC: 1.23703 cumulative IPC: 1.36444 (Simulation time: 0 hr 53 min 2 sec) 
Heartbeat CPU 0 instructions: 107000003 cycles: 67504702 heartbeat IPC: 1.29945 cumulative IPC: 1.36324 (Simulation time: 0 hr 53 min 35 sec) 
Heartbeat CPU 0 instructions: 108000000 cycles: 68185577 heartbeat IPC: 1.46869 cumulative IPC: 1.36493 (Simulation time: 0 hr 54 min 6 sec) 
Heartbeat CPU 0 instructions: 109000001 cycles: 68867880 heartbeat IPC: 1.46563 cumulative IPC: 1.36652 (Simulation time: 0 hr 54 min 38 sec) 
Heartbeat CPU 0 instructions: 110000000 cycles: 69551040 heartbeat IPC: 1.46378 cumulative IPC: 1.36804 (Simulation time: 0 hr 55 min 8 sec) 
Heartbeat CPU 0 instructions: 111000002 cycles: 70342299 heartbeat IPC: 1.26381 cumulative IPC: 1.36619 (Simulation time: 0 hr 55 min 39 sec) 
Heartbeat CPU 0 instructions: 112000000 cycles: 71154988 heartbeat IPC: 1.23048 cumulative IPC: 1.36376 (Simulation time: 0 hr 56 min 10 sec) 
Heartbeat CPU 0 instructions: 113000001 cycles: 71891595 heartbeat IPC: 1.35758 cumulative IPC: 1.36367 (Simulation time: 0 hr 56 min 38 sec) 
Heartbeat CPU 0 instructions: 114000002 cycles: 72571960 heartbeat IPC: 1.4698 cumulative IPC: 1.36521 (Simulation time: 0 hr 57 min 10 sec) 
Heartbeat CPU 0 instructions: 115000003 cycles: 73255036 heartbeat IPC: 1.46397 cumulative IPC: 1.36662 (Simulation time: 0 hr 57 min 39 sec) 
Heartbeat CPU 0 instructions: 116000000 cycles: 73939911 heartbeat IPC: 1.46012 cumulative IPC: 1.36795 (Simulation time: 0 hr 58 min 10 sec) 
Heartbeat CPU 0 instructions: 117000000 cycles: 74758701 heartbeat IPC: 1.22131 cumulative IPC: 1.3655 (Simulation time: 0 hr 58 min 40 sec) 
Heartbeat CPU 0 instructions: 118000002 cycles: 75571389 heartbeat IPC: 1.23049 cumulative IPC: 1.3633 (Simulation time: 0 hr 59 min 11 sec) 
Heartbeat CPU 0 instructions: 119000000 cycles: 76278456 heartbeat IPC: 1.41429 cumulative IPC: 1.36402 (Simulation time: 0 hr 59 min 41 sec) 
Heartbeat CPU 0 instructions: 120000000 cycles: 76958115 heartbeat IPC: 1.47133 cumulative IPC: 1.36544 (Simulation time: 1 hr 0 min 10 sec) 
Heartbeat CPU 0 instructions: 121000000 cycles: 77640305 heartbeat IPC: 1.46587 cumulative IPC: 1.36676 (Simulation time: 1 hr 0 min 41 sec) 
Heartbeat CPU 0 instructions: 122000003 cycles: 78352809 heartbeat IPC: 1.40351 cumulative IPC: 1.36726 (Simulation time: 1 hr 1 min 12 sec) 
Heartbeat CPU 0 instructions: 123000000 cycles: 79165534 heartbeat IPC: 1.23042 cumulative IPC: 1.36518 (Simulation time: 1 hr 1 min 42 sec) 
Heartbeat CPU 0 instructions: 124000000 cycles: 79975244 heartbeat IPC: 1.23501 cumulative IPC: 1.36323 (Simulation time: 1 hr 2 min 13 sec) 
Heartbeat CPU 0 instructions: 125000001 cycles: 80658398 heartbeat IPC: 1.4638 cumulative IPC: 1.36448 (Simulation time: 1 hr 2 min 49 sec) 
Heartbeat CPU 0 instructions: 126000000 cycles: 81341859 heartbeat IPC: 1.46314 cumulative IPC: 1.3657 (Simulation time: 1 hr 3 min 25 sec) 
Heartbeat CPU 0 instructions: 127000003 cycles: 82024524 heartbeat IPC: 1.46485 cumulative IPC: 1.3669 (Simulation time: 1 hr 4 min 5 sec) 
Heartbeat CPU 0 instructions: 128000000 cycles: 82768202 heartbeat IPC: 1.34466 cumulative IPC: 1.36661 (Simulation time: 1 hr 4 min 39 sec) 
Heartbeat CPU 0 instructions: 129000002 cycles: 83582300 heartbeat IPC: 1.22836 cumulative IPC: 1.36466 (Simulation time: 1 hr 5 min 9 sec) 
Heartbeat CPU 0 instructions: 130000002 cycles: 84362945 heartbeat IPC: 1.28099 cumulative IPC: 1.36355 (Simulation time: 1 hr 5 min 40 sec) 
Heartbeat CPU 0 instructions: 131000003 cycles: 85045008 heartbeat IPC: 1.46614 cumulative IPC: 1.36473 (Simulation time: 1 hr 6 min 10 sec) 
Heartbeat CPU 0 instructions: 132000000 cycles: 85731282 heartbeat IPC: 1.45714 cumulative IPC: 1.36579 (Simulation time: 1 hr 6 min 40 sec) 
Heartbeat CPU 0 instructions: 133000003 cycles: 86416068 heartbeat IPC: 1.46031 cumulative IPC: 1.36685 (Simulation time: 1 hr 7 min 10 sec) 
Heartbeat CPU 0 instructions: 134000001 cycles: 87190171 heartbeat IPC: 1.29182 cumulative IPC: 1.36591 (Simulation time: 1 hr 7 min 37 sec) 
Heartbeat CPU 0 instructions: 135000001 cycles: 88001364 heartbeat IPC: 1.23275 cumulative IPC: 1.36417 (Simulation time: 1 hr 8 min 7 sec) 
Heartbeat CPU 0 instructions: 136000000 cycles: 88753391 heartbeat IPC: 1.32974 cumulative IPC: 1.36376 (Simulation time: 1 hr 8 min 34 sec) 
Heartbeat CPU 0 instructions: 137000003 cycles: 89436043 heartbeat IPC: 1.46488 cumulative IPC: 1.36485 (Simulation time: 1 hr 9 min 2 sec) 
Heartbeat CPU 0 instructions: 138000000 cycles: 90121184 heartbeat IPC: 1.45955 cumulative IPC: 1.36585 (Simulation time: 1 hr 9 min 30 sec) 
Heartbeat CPU 0 instructions: 139000002 cycles: 90807005 heartbeat IPC: 1.45811 cumulative IPC: 1.36682 (Simulation time: 1 hr 9 min 55 sec) 
Heartbeat CPU 0 instructions: 140000000 cycles: 91611441 heartbeat IPC: 1.2431 cumulative IPC: 1.36531 (Simulation time: 1 hr 10 min 22 sec) 
Heartbeat CPU 0 instructions: 141000003 cycles: 92419537 heartbeat IPC: 1.23748 cumulative IPC: 1.36377 (Simulation time: 1 hr 10 min 48 sec) 
Heartbeat CPU 0 instructions: 142000000 cycles: 93143719 heartbeat IPC: 1.38086 cumulative IPC: 1.36395 (Simulation time: 1 hr 11 min 14 sec) 
Heartbeat CPU 0 instructions: 143000001 cycles: 93826615 heartbeat IPC: 1.46435 cumulative IPC: 1.36496 (Simulation time: 1 hr 11 min 42 sec) 
Heartbeat CPU 0 instructions: 144000000 cycles: 94508824 heartbeat IPC: 1.46582 cumulative IPC: 1.36596 (Simulation time: 1 hr 12 min 10 sec) 
Heartbeat CPU 0 instructions: 145000001 cycles: 95215431 heartbeat IPC: 1.41522 cumulative IPC: 1.36646 (Simulation time: 1 hr 12 min 35 sec) 
Heartbeat CPU 0 instructions: 146000003 cycles: 96027703 heartbeat IPC: 1.23112 cumulative IPC: 1.36489 (Simulation time: 1 hr 13 min 1 sec) 
Heartbeat CPU 0 instructions: 147000001 cycles: 96838291 heartbeat IPC: 1.23367 cumulative IPC: 1.3634 (Simulation time: 1 hr 13 min 27 sec) 
Heartbeat CPU 0 instructions: 148000000 cycles: 97529669 heartbeat IPC: 1.44639 cumulative IPC: 1.3642 (Simulation time: 1 hr 13 min 52 sec) 
Heartbeat CPU 0 instructions: 149000002 cycles: 98212404 heartbeat IPC: 1.4647 cumulative IPC: 1.36514 (Simulation time: 1 hr 14 min 15 sec) 
Heartbeat CPU 0 instructions: 150000002 cycles: 98898189 heartbeat IPC: 1.45818 cumulative IPC: 1.36602 (Simulation time: 1 hr 14 min 38 sec) 
Finished CPU 0 instructions: 100000002 cycles: 73205611 cummulative IPC: 1.36602 (Simulation time: 1 hr 14 min 38 sec) 

ChampSim completed all CPUs

Region of Interest Statistics

CPU 0 cummulative IPC: 1.36602 instructions: 100000002 cycles: 73205611
LLC TOTAL     ACCESS:     631174  HIT:     300953  MISS:     330221
LLC LOAD      ACCESS:      36767  HIT:      24943  MISS:      11824
LLC RFO       ACCESS:     152051  HIT:      75593  MISS:      76458
LLC PREFETCH  ACCESS:     286658  HIT:      98674  MISS:     187984
LLC WRITEBACK ACCESS:     155698  HIT:     101743  MISS:      53955
OPTgen accesses: 4421
OPTgen hits: 3161
OPTgen hit rate: 71.4997


