
*** ChampSim Multicore Out-of-Order Simulator ***

Warmup Instructions: 50000000
Simulation Instructions: 100000000
Configuration: 2
Number of CPUs: 1
LLC sets: 2048
LLC ways: 16
Off-chip DRAM Channels: 1 Width: 64-bit Data Rate: 1600 MT/s

CPU 0 runs /datasets/cs240c-wi22-a00-public/data/Assignment2-gz/bzip2_281B.trace.gz
CPU 0 L1D next line prefetcher
CPU 0 L2C IP-based stride prefetcher
Initialize Hawkeye state
Heartbeat CPU 0 instructions: 1000000 cycles: 445877 heartbeat IPC: 2.24277 cumulative IPC: 2.24277 (Simulation time: 0 hr 0 min 35 sec) 
Heartbeat CPU 0 instructions: 2000003 cycles: 900175 heartbeat IPC: 2.20121 cumulative IPC: 2.22179 (Simulation time: 0 hr 1 min 5 sec) 
Heartbeat CPU 0 instructions: 3000002 cycles: 1315067 heartbeat IPC: 2.41026 cumulative IPC: 2.28125 (Simulation time: 0 hr 1 min 37 sec) 
Heartbeat CPU 0 instructions: 4000000 cycles: 1753556 heartbeat IPC: 2.28055 cumulative IPC: 2.28108 (Simulation time: 0 hr 2 min 6 sec) 
Heartbeat CPU 0 instructions: 5000002 cycles: 2175545 heartbeat IPC: 2.36973 cumulative IPC: 2.29828 (Simulation time: 0 hr 2 min 37 sec) 
Heartbeat CPU 0 instructions: 6000000 cycles: 2666194 heartbeat IPC: 2.03811 cumulative IPC: 2.2504 (Simulation time: 0 hr 3 min 11 sec) 
Heartbeat CPU 0 instructions: 7000001 cycles: 3193462 heartbeat IPC: 1.89657 cumulative IPC: 2.19198 (Simulation time: 0 hr 3 min 47 sec) 
Heartbeat CPU 0 instructions: 8000000 cycles: 3726055 heartbeat IPC: 1.8776 cumulative IPC: 2.14704 (Simulation time: 0 hr 4 min 22 sec) 
Heartbeat CPU 0 instructions: 9000000 cycles: 4232472 heartbeat IPC: 1.97466 cumulative IPC: 2.12642 (Simulation time: 0 hr 4 min 54 sec) 
Heartbeat CPU 0 instructions: 10000002 cycles: 4685414 heartbeat IPC: 2.20779 cumulative IPC: 2.13428 (Simulation time: 0 hr 5 min 27 sec) 
Heartbeat CPU 0 instructions: 11000000 cycles: 5132849 heartbeat IPC: 2.23496 cumulative IPC: 2.14306 (Simulation time: 0 hr 5 min 57 sec) 
Heartbeat CPU 0 instructions: 12000000 cycles: 5613900 heartbeat IPC: 2.07878 cumulative IPC: 2.13755 (Simulation time: 0 hr 6 min 29 sec) 
Heartbeat CPU 0 instructions: 13000001 cycles: 6025301 heartbeat IPC: 2.43072 cumulative IPC: 2.15757 (Simulation time: 0 hr 7 min 2 sec) 
Heartbeat CPU 0 instructions: 14000003 cycles: 6483761 heartbeat IPC: 2.18122 cumulative IPC: 2.15924 (Simulation time: 0 hr 7 min 32 sec) 
Heartbeat CPU 0 instructions: 15000003 cycles: 6944034 heartbeat IPC: 2.17262 cumulative IPC: 2.16013 (Simulation time: 0 hr 8 min 5 sec) 
Heartbeat CPU 0 instructions: 16000000 cycles: 7339867 heartbeat IPC: 2.52631 cumulative IPC: 2.17988 (Simulation time: 0 hr 8 min 36 sec) 
Heartbeat CPU 0 instructions: 17000000 cycles: 7729047 heartbeat IPC: 2.56951 cumulative IPC: 2.1995 (Simulation time: 0 hr 9 min 6 sec) 
Heartbeat CPU 0 instructions: 18000002 cycles: 8185071 heartbeat IPC: 2.19287 cumulative IPC: 2.19913 (Simulation time: 0 hr 9 min 41 sec) 
Heartbeat CPU 0 instructions: 19000000 cycles: 8631006 heartbeat IPC: 2.24247 cumulative IPC: 2.20137 (Simulation time: 0 hr 10 min 13 sec) 
Heartbeat CPU 0 instructions: 20000000 cycles: 9076004 heartbeat IPC: 2.2472 cumulative IPC: 2.20361 (Simulation time: 0 hr 10 min 41 sec) 
Heartbeat CPU 0 instructions: 21000000 cycles: 9463094 heartbeat IPC: 2.58338 cumulative IPC: 2.21915 (Simulation time: 0 hr 11 min 10 sec) 
Heartbeat CPU 0 instructions: 22000003 cycles: 9838927 heartbeat IPC: 2.66076 cumulative IPC: 2.23602 (Simulation time: 0 hr 11 min 40 sec) 
Heartbeat CPU 0 instructions: 23000001 cycles: 10291907 heartbeat IPC: 2.2076 cumulative IPC: 2.23477 (Simulation time: 0 hr 12 min 13 sec) 
Heartbeat CPU 0 instructions: 24000000 cycles: 10746504 heartbeat IPC: 2.19975 cumulative IPC: 2.23328 (Simulation time: 0 hr 12 min 44 sec) 
Heartbeat CPU 0 instructions: 25000001 cycles: 11090012 heartbeat IPC: 2.91114 cumulative IPC: 2.25428 (Simulation time: 0 hr 13 min 16 sec) 
Heartbeat CPU 0 instructions: 26000003 cycles: 11527669 heartbeat IPC: 2.2849 cumulative IPC: 2.25544 (Simulation time: 0 hr 13 min 51 sec) 
Heartbeat CPU 0 instructions: 27000003 cycles: 12000220 heartbeat IPC: 2.11617 cumulative IPC: 2.24996 (Simulation time: 0 hr 14 min 21 sec) 
Heartbeat CPU 0 instructions: 28000000 cycles: 12326722 heartbeat IPC: 3.06276 cumulative IPC: 2.27149 (Simulation time: 0 hr 14 min 46 sec) 
Heartbeat CPU 0 instructions: 29000001 cycles: 12623599 heartbeat IPC: 3.3684 cumulative IPC: 2.29728 (Simulation time: 0 hr 15 min 11 sec) 
Heartbeat CPU 0 instructions: 30000000 cycles: 12920473 heartbeat IPC: 3.36843 cumulative IPC: 2.3219 (Simulation time: 0 hr 15 min 34 sec) 
Heartbeat CPU 0 instructions: 31000000 cycles: 13262861 heartbeat IPC: 2.92066 cumulative IPC: 2.33735 (Simulation time: 0 hr 15 min 58 sec) 
Heartbeat CPU 0 instructions: 32000000 cycles: 13609404 heartbeat IPC: 2.88564 cumulative IPC: 2.35132 (Simulation time: 0 hr 16 min 25 sec) 
Heartbeat CPU 0 instructions: 33000001 cycles: 13967919 heartbeat IPC: 2.78929 cumulative IPC: 2.36256 (Simulation time: 0 hr 16 min 51 sec) 
Heartbeat CPU 0 instructions: 34000001 cycles: 14311513 heartbeat IPC: 2.91041 cumulative IPC: 2.37571 (Simulation time: 0 hr 17 min 15 sec) 
Heartbeat CPU 0 instructions: 35000003 cycles: 14652600 heartbeat IPC: 2.93181 cumulative IPC: 2.38865 (Simulation time: 0 hr 17 min 39 sec) 
Heartbeat CPU 0 instructions: 36000000 cycles: 14990968 heartbeat IPC: 2.95535 cumulative IPC: 2.40145 (Simulation time: 0 hr 18 min 3 sec) 
Heartbeat CPU 0 instructions: 37000000 cycles: 15330084 heartbeat IPC: 2.94884 cumulative IPC: 2.41355 (Simulation time: 0 hr 18 min 28 sec) 
Heartbeat CPU 0 instructions: 38000002 cycles: 15672141 heartbeat IPC: 2.9235 cumulative IPC: 2.42468 (Simulation time: 0 hr 18 min 51 sec) 
Heartbeat CPU 0 instructions: 39000001 cycles: 16011858 heartbeat IPC: 2.94362 cumulative IPC: 2.43569 (Simulation time: 0 hr 19 min 15 sec) 
Heartbeat CPU 0 instructions: 40000000 cycles: 16368207 heartbeat IPC: 2.80623 cumulative IPC: 2.44376 (Simulation time: 0 hr 19 min 39 sec) 
Heartbeat CPU 0 instructions: 41000000 cycles: 16711682 heartbeat IPC: 2.91142 cumulative IPC: 2.45337 (Simulation time: 0 hr 20 min 5 sec) 
Heartbeat CPU 0 instructions: 42000002 cycles: 17053306 heartbeat IPC: 2.9272 cumulative IPC: 2.46287 (Simulation time: 0 hr 20 min 32 sec) 
Heartbeat CPU 0 instructions: 43000000 cycles: 17389341 heartbeat IPC: 2.97587 cumulative IPC: 2.47278 (Simulation time: 0 hr 20 min 57 sec) 
Heartbeat CPU 0 instructions: 44000000 cycles: 17730104 heartbeat IPC: 2.93459 cumulative IPC: 2.48165 (Simulation time: 0 hr 21 min 22 sec) 
Heartbeat CPU 0 instructions: 45000001 cycles: 18066710 heartbeat IPC: 2.97084 cumulative IPC: 2.49077 (Simulation time: 0 hr 21 min 47 sec) 
Heartbeat CPU 0 instructions: 46000000 cycles: 18420153 heartbeat IPC: 2.82931 cumulative IPC: 2.49726 (Simulation time: 0 hr 22 min 11 sec) 
Heartbeat CPU 0 instructions: 47000003 cycles: 18769823 heartbeat IPC: 2.85985 cumulative IPC: 2.50402 (Simulation time: 0 hr 22 min 33 sec) 
Heartbeat CPU 0 instructions: 48000000 cycles: 19119746 heartbeat IPC: 2.85776 cumulative IPC: 2.51049 (Simulation time: 0 hr 22 min 57 sec) 
Heartbeat CPU 0 instructions: 49000003 cycles: 19475148 heartbeat IPC: 2.81372 cumulative IPC: 2.51603 (Simulation time: 0 hr 23 min 21 sec) 
Heartbeat CPU 0 instructions: 50000003 cycles: 19823420 heartbeat IPC: 2.87132 cumulative IPC: 2.52227 (Simulation time: 0 hr 23 min 46 sec) 

Warmup complete CPU 0 instructions: 50000003 cycles: 19823420 (Simulation time: 0 hr 23 min 46 sec) 

Heartbeat CPU 0 instructions: 51000002 cycles: 20780589 heartbeat IPC: 1.04475 cumulative IPC: 1.04475 (Simulation time: 0 hr 24 min 17 sec) 
Heartbeat CPU 0 instructions: 52000000 cycles: 21745882 heartbeat IPC: 1.03595 cumulative IPC: 1.04033 (Simulation time: 0 hr 24 min 47 sec) 
Heartbeat CPU 0 instructions: 53000001 cycles: 22724005 heartbeat IPC: 1.02237 cumulative IPC: 1.03427 (Simulation time: 0 hr 25 min 18 sec) 
Heartbeat CPU 0 instructions: 54000003 cycles: 23704645 heartbeat IPC: 1.01974 cumulative IPC: 1.0306 (Simulation time: 0 hr 25 min 47 sec) 
Heartbeat CPU 0 instructions: 55000000 cycles: 24668661 heartbeat IPC: 1.03732 cumulative IPC: 1.03194 (Simulation time: 0 hr 26 min 17 sec) 
Heartbeat CPU 0 instructions: 56000000 cycles: 25644677 heartbeat IPC: 1.02457 cumulative IPC: 1.0307 (Simulation time: 0 hr 26 min 50 sec) 
Heartbeat CPU 0 instructions: 57000002 cycles: 26612101 heartbeat IPC: 1.03367 cumulative IPC: 1.03113 (Simulation time: 0 hr 27 min 19 sec) 
Heartbeat CPU 0 instructions: 58000003 cycles: 27584668 heartbeat IPC: 1.02821 cumulative IPC: 1.03076 (Simulation time: 0 hr 27 min 47 sec) 
Heartbeat CPU 0 instructions: 59000003 cycles: 28612802 heartbeat IPC: 0.972636 cumulative IPC: 1.02396 (Simulation time: 0 hr 28 min 18 sec) 
Heartbeat CPU 0 instructions: 60000000 cycles: 29821623 heartbeat IPC: 0.82725 cumulative IPC: 1.00018 (Simulation time: 0 hr 28 min 59 sec) 
Heartbeat CPU 0 instructions: 61000000 cycles: 31029132 heartbeat IPC: 0.828151 cumulative IPC: 0.981642 (Simulation time: 0 hr 29 min 33 sec) 
Heartbeat CPU 0 instructions: 62000003 cycles: 32253981 heartbeat IPC: 0.81643 cumulative IPC: 0.965363 (Simulation time: 0 hr 30 min 7 sec) 
Heartbeat CPU 0 instructions: 63000001 cycles: 33486080 heartbeat IPC: 0.811621 cumulative IPC: 0.951498 (Simulation time: 0 hr 30 min 41 sec) 
Heartbeat CPU 0 instructions: 64000000 cycles: 34806872 heartbeat IPC: 0.757121 cumulative IPC: 0.934364 (Simulation time: 0 hr 31 min 15 sec) 
Heartbeat CPU 0 instructions: 65000001 cycles: 36011005 heartbeat IPC: 0.830474 cumulative IPC: 0.926636 (Simulation time: 0 hr 31 min 49 sec) 
Heartbeat CPU 0 instructions: 66000003 cycles: 37212845 heartbeat IPC: 0.832059 cumulative IPC: 0.920099 (Simulation time: 0 hr 32 min 26 sec) 
Heartbeat CPU 0 instructions: 67000000 cycles: 38424148 heartbeat IPC: 0.825555 cumulative IPC: 0.913943 (Simulation time: 0 hr 33 min 3 sec) 
Heartbeat CPU 0 instructions: 68000000 cycles: 39737790 heartbeat IPC: 0.761242 cumulative IPC: 0.90387 (Simulation time: 0 hr 33 min 32 sec) 
Heartbeat CPU 0 instructions: 69000000 cycles: 40934306 heartbeat IPC: 0.83576 cumulative IPC: 0.900009 (Simulation time: 0 hr 34 min 6 sec) 
Heartbeat CPU 0 instructions: 70000002 cycles: 42136520 heartbeat IPC: 0.8318 cumulative IPC: 0.896334 (Simulation time: 0 hr 34 min 41 sec) 
Heartbeat CPU 0 instructions: 71000003 cycles: 43343150 heartbeat IPC: 0.828755 cumulative IPC: 0.892867 (Simulation time: 0 hr 35 min 16 sec) 
Heartbeat CPU 0 instructions: 72000000 cycles: 44551151 heartbeat IPC: 0.827811 cumulative IPC: 0.889689 (Simulation time: 0 hr 35 min 48 sec) 
Heartbeat CPU 0 instructions: 73000002 cycles: 45854546 heartbeat IPC: 0.767229 cumulative IPC: 0.883558 (Simulation time: 0 hr 36 min 21 sec) 
Heartbeat CPU 0 instructions: 74000000 cycles: 47054035 heartbeat IPC: 0.833687 cumulative IPC: 0.881361 (Simulation time: 0 hr 36 min 54 sec) 
Heartbeat CPU 0 instructions: 75000001 cycles: 48255424 heartbeat IPC: 0.832371 cumulative IPC: 0.879291 (Simulation time: 0 hr 37 min 29 sec) 
Heartbeat CPU 0 instructions: 76000000 cycles: 49464721 heartbeat IPC: 0.826926 cumulative IPC: 0.877154 (Simulation time: 0 hr 38 min 5 sec) 
Heartbeat CPU 0 instructions: 77000001 cycles: 50721825 heartbeat IPC: 0.79548 cumulative IPC: 0.873831 (Simulation time: 0 hr 38 min 40 sec) 
Heartbeat CPU 0 instructions: 78000003 cycles: 51888650 heartbeat IPC: 0.857028 cumulative IPC: 0.87322 (Simulation time: 0 hr 39 min 3 sec) 
Heartbeat CPU 0 instructions: 79000000 cycles: 52807529 heartbeat IPC: 1.08828 cumulative IPC: 0.879211 (Simulation time: 0 hr 39 min 27 sec) 
Heartbeat CPU 0 instructions: 80000000 cycles: 53710976 heartbeat IPC: 1.10687 cumulative IPC: 0.885281 (Simulation time: 0 hr 39 min 57 sec) 
Heartbeat CPU 0 instructions: 81000000 cycles: 54556715 heartbeat IPC: 1.1824 cumulative IPC: 0.892515 (Simulation time: 0 hr 40 min 23 sec) 
Heartbeat CPU 0 instructions: 82000001 cycles: 55448737 heartbeat IPC: 1.12105 cumulative IPC: 0.898238 (Simulation time: 0 hr 40 min 52 sec) 
Heartbeat CPU 0 instructions: 83000000 cycles: 56372809 heartbeat IPC: 1.08217 cumulative IPC: 0.902888 (Simulation time: 0 hr 41 min 20 sec) 
Heartbeat CPU 0 instructions: 84000000 cycles: 57289638 heartbeat IPC: 1.09072 cumulative IPC: 0.907484 (Simulation time: 0 hr 41 min 45 sec) 
Heartbeat CPU 0 instructions: 85000002 cycles: 58224949 heartbeat IPC: 1.06917 cumulative IPC: 0.911422 (Simulation time: 0 hr 42 min 21 sec) 
Heartbeat CPU 0 instructions: 86000002 cycles: 59154157 heartbeat IPC: 1.07619 cumulative IPC: 0.915315 (Simulation time: 0 hr 42 min 58 sec) 
Heartbeat CPU 0 instructions: 87000002 cycles: 60083169 heartbeat IPC: 1.07641 cumulative IPC: 0.919032 (Simulation time: 0 hr 43 min 32 sec) 
Heartbeat CPU 0 instructions: 88000000 cycles: 61135138 heartbeat IPC: 0.950596 cumulative IPC: 0.919836 (Simulation time: 0 hr 44 min 6 sec) 
Heartbeat CPU 0 instructions: 89000002 cycles: 62233196 heartbeat IPC: 0.910701 cumulative IPC: 0.919599 (Simulation time: 0 hr 44 min 46 sec) 
Heartbeat CPU 0 instructions: 90000001 cycles: 63328335 heartbeat IPC: 0.913125 cumulative IPC: 0.919436 (Simulation time: 0 hr 45 min 20 sec) 
Heartbeat CPU 0 instructions: 91000001 cycles: 64429716 heartbeat IPC: 0.907951 cumulative IPC: 0.919153 (Simulation time: 0 hr 45 min 58 sec) 
Heartbeat CPU 0 instructions: 92000000 cycles: 65519396 heartbeat IPC: 0.9177 cumulative IPC: 0.919118 (Simulation time: 0 hr 46 min 36 sec) 
Heartbeat CPU 0 instructions: 93000001 cycles: 66604663 heartbeat IPC: 0.921433 cumulative IPC: 0.919172 (Simulation time: 0 hr 47 min 10 sec) 
Heartbeat CPU 0 instructions: 94000001 cycles: 67690619 heartbeat IPC: 0.920848 cumulative IPC: 0.91921 (Simulation time: 0 hr 47 min 48 sec) 
Heartbeat CPU 0 instructions: 95000000 cycles: 68781379 heartbeat IPC: 0.916791 cumulative IPC: 0.919156 (Simulation time: 0 hr 48 min 22 sec) 
Heartbeat CPU 0 instructions: 96000000 cycles: 69871954 heartbeat IPC: 0.916947 cumulative IPC: 0.919108 (Simulation time: 0 hr 48 min 56 sec) 
Heartbeat CPU 0 instructions: 97000002 cycles: 70957951 heartbeat IPC: 0.920815 cumulative IPC: 0.919144 (Simulation time: 0 hr 49 min 33 sec) 
Heartbeat CPU 0 instructions: 98000002 cycles: 72048966 heartbeat IPC: 0.916578 cumulative IPC: 0.91909 (Simulation time: 0 hr 50 min 8 sec) 
Heartbeat CPU 0 instructions: 99000000 cycles: 73136689 heartbeat IPC: 0.91935 cumulative IPC: 0.919096 (Simulation time: 0 hr 50 min 46 sec) 
Heartbeat CPU 0 instructions: 100000000 cycles: 74226694 heartbeat IPC: 0.917427 cumulative IPC: 0.919062 (Simulation time: 0 hr 51 min 23 sec) 
Heartbeat CPU 0 instructions: 101000000 cycles: 75318287 heartbeat IPC: 0.916092 cumulative IPC: 0.919004 (Simulation time: 0 hr 52 min 2 sec) 
Heartbeat CPU 0 instructions: 102000000 cycles: 76416668 heartbeat IPC: 0.910431 cumulative IPC: 0.918837 (Simulation time: 0 hr 52 min 35 sec) 
Heartbeat CPU 0 instructions: 103000002 cycles: 77511988 heartbeat IPC: 0.912977 cumulative IPC: 0.918726 (Simulation time: 0 hr 53 min 8 sec) 
Heartbeat CPU 0 instructions: 104000000 cycles: 78604613 heartbeat IPC: 0.915225 cumulative IPC: 0.918661 (Simulation time: 0 hr 53 min 46 sec) 
Heartbeat CPU 0 instructions: 105000003 cycles: 79699582 heartbeat IPC: 0.913271 cumulative IPC: 0.918563 (Simulation time: 0 hr 54 min 19 sec) 
Heartbeat CPU 0 instructions: 106000002 cycles: 80799516 heartbeat IPC: 0.909145 cumulative IPC: 0.918393 (Simulation time: 0 hr 54 min 53 sec) 
Heartbeat CPU 0 instructions: 107000001 cycles: 81886910 heartbeat IPC: 0.919629 cumulative IPC: 0.918414 (Simulation time: 0 hr 55 min 31 sec) 
Heartbeat CPU 0 instructions: 108000000 cycles: 82981281 heartbeat IPC: 0.913766 cumulative IPC: 0.918334 (Simulation time: 0 hr 56 min 5 sec) 
Heartbeat CPU 0 instructions: 109000001 cycles: 84076353 heartbeat IPC: 0.913183 cumulative IPC: 0.918246 (Simulation time: 0 hr 56 min 38 sec) 
Heartbeat CPU 0 instructions: 110000002 cycles: 85176023 heartbeat IPC: 0.909365 cumulative IPC: 0.918097 (Simulation time: 0 hr 57 min 12 sec) 
Heartbeat CPU 0 instructions: 111000000 cycles: 86264721 heartbeat IPC: 0.918527 cumulative IPC: 0.918104 (Simulation time: 0 hr 57 min 44 sec) 
Heartbeat CPU 0 instructions: 112000000 cycles: 87356065 heartbeat IPC: 0.916301 cumulative IPC: 0.918074 (Simulation time: 0 hr 58 min 17 sec) 
Heartbeat CPU 0 instructions: 113000002 cycles: 88446533 heartbeat IPC: 0.917039 cumulative IPC: 0.918058 (Simulation time: 0 hr 58 min 50 sec) 
Heartbeat CPU 0 instructions: 114000001 cycles: 89540269 heartbeat IPC: 0.914297 cumulative IPC: 0.917999 (Simulation time: 0 hr 59 min 24 sec) 
Heartbeat CPU 0 instructions: 115000001 cycles: 90630482 heartbeat IPC: 0.917252 cumulative IPC: 0.917988 (Simulation time: 1 hr 0 min 4 sec) 
Heartbeat CPU 0 instructions: 116000000 cycles: 91717843 heartbeat IPC: 0.919657 cumulative IPC: 0.918013 (Simulation time: 1 hr 0 min 39 sec) 
Heartbeat CPU 0 instructions: 117000001 cycles: 92805115 heartbeat IPC: 0.919734 cumulative IPC: 0.918038 (Simulation time: 1 hr 1 min 14 sec) 
Heartbeat CPU 0 instructions: 118000000 cycles: 93892695 heartbeat IPC: 0.919472 cumulative IPC: 0.918059 (Simulation time: 1 hr 1 min 49 sec) 
Heartbeat CPU 0 instructions: 119000000 cycles: 94982015 heartbeat IPC: 0.918004 cumulative IPC: 0.918059 (Simulation time: 1 hr 2 min 25 sec) 
Heartbeat CPU 0 instructions: 120000000 cycles: 96071471 heartbeat IPC: 0.917889 cumulative IPC: 0.918056 (Simulation time: 1 hr 3 min 2 sec) 
Heartbeat CPU 0 instructions: 121000000 cycles: 97159877 heartbeat IPC: 0.918775 cumulative IPC: 0.918066 (Simulation time: 1 hr 3 min 34 sec) 
Heartbeat CPU 0 instructions: 122000000 cycles: 98252738 heartbeat IPC: 0.915029 cumulative IPC: 0.918024 (Simulation time: 1 hr 4 min 7 sec) 
Heartbeat CPU 0 instructions: 123000001 cycles: 99346926 heartbeat IPC: 0.913921 cumulative IPC: 0.917968 (Simulation time: 1 hr 4 min 42 sec) 
Heartbeat CPU 0 instructions: 124000000 cycles: 100444557 heartbeat IPC: 0.911052 cumulative IPC: 0.917873 (Simulation time: 1 hr 5 min 15 sec) 
Heartbeat CPU 0 instructions: 125000002 cycles: 101537932 heartbeat IPC: 0.914601 cumulative IPC: 0.91783 (Simulation time: 1 hr 5 min 51 sec) 
Heartbeat CPU 0 instructions: 126000002 cycles: 102629553 heartbeat IPC: 0.916069 cumulative IPC: 0.917806 (Simulation time: 1 hr 6 min 24 sec) 
Heartbeat CPU 0 instructions: 127000003 cycles: 103718202 heartbeat IPC: 0.918571 cumulative IPC: 0.917816 (Simulation time: 1 hr 6 min 58 sec) 
Heartbeat CPU 0 instructions: 128000000 cycles: 104808547 heartbeat IPC: 0.917138 cumulative IPC: 0.917808 (Simulation time: 1 hr 7 min 30 sec) 
Heartbeat CPU 0 instructions: 129000001 cycles: 105897664 heartbeat IPC: 0.918176 cumulative IPC: 0.917812 (Simulation time: 1 hr 7 min 59 sec) 
Heartbeat CPU 0 instructions: 130000001 cycles: 106986296 heartbeat IPC: 0.918584 cumulative IPC: 0.917822 (Simulation time: 1 hr 8 min 28 sec) 
Heartbeat CPU 0 instructions: 131000001 cycles: 108080021 heartbeat IPC: 0.914307 cumulative IPC: 0.917778 (Simulation time: 1 hr 8 min 59 sec) 
Heartbeat CPU 0 instructions: 132000000 cycles: 109174908 heartbeat IPC: 0.913335 cumulative IPC: 0.917724 (Simulation time: 1 hr 9 min 34 sec) 
Heartbeat CPU 0 instructions: 133000002 cycles: 110279283 heartbeat IPC: 0.905491 cumulative IPC: 0.917575 (Simulation time: 1 hr 10 min 3 sec) 
Heartbeat CPU 0 instructions: 134000000 cycles: 111374475 heartbeat IPC: 0.91308 cumulative IPC: 0.917521 (Simulation time: 1 hr 10 min 33 sec) 
Heartbeat CPU 0 instructions: 135000003 cycles: 112477828 heartbeat IPC: 0.906331 cumulative IPC: 0.917388 (Simulation time: 1 hr 11 min 2 sec) 
Heartbeat CPU 0 instructions: 136000000 cycles: 113579416 heartbeat IPC: 0.907778 cumulative IPC: 0.917275 (Simulation time: 1 hr 11 min 33 sec) 
Heartbeat CPU 0 instructions: 137000001 cycles: 114675968 heartbeat IPC: 0.91195 cumulative IPC: 0.917213 (Simulation time: 1 hr 12 min 2 sec) 
Heartbeat CPU 0 instructions: 138000000 cycles: 115791750 heartbeat IPC: 0.896232 cumulative IPC: 0.916969 (Simulation time: 1 hr 12 min 32 sec) 
Heartbeat CPU 0 instructions: 139000002 cycles: 116426161 heartbeat IPC: 1.57627 cumulative IPC: 0.921299 (Simulation time: 1 hr 13 min 2 sec) 
Heartbeat CPU 0 instructions: 140000000 cycles: 117057792 heartbeat IPC: 1.5832 cumulative IPC: 0.925599 (Simulation time: 1 hr 13 min 29 sec) 
Heartbeat CPU 0 instructions: 141000000 cycles: 117689470 heartbeat IPC: 1.58309 cumulative IPC: 0.929842 (Simulation time: 1 hr 13 min 56 sec) 
Heartbeat CPU 0 instructions: 142000002 cycles: 118322272 heartbeat IPC: 1.58028 cumulative IPC: 0.934021 (Simulation time: 1 hr 14 min 22 sec) 
Heartbeat CPU 0 instructions: 143000002 cycles: 118960978 heartbeat IPC: 1.56567 cumulative IPC: 0.938091 (Simulation time: 1 hr 14 min 47 sec) 
Heartbeat CPU 0 instructions: 144000000 cycles: 119600943 heartbeat IPC: 1.56258 cumulative IPC: 0.942096 (Simulation time: 1 hr 15 min 12 sec) 
Heartbeat CPU 0 instructions: 145000001 cycles: 120239945 heartbeat IPC: 1.56494 cumulative IPC: 0.946059 (Simulation time: 1 hr 15 min 36 sec) 
Heartbeat CPU 0 instructions: 146000002 cycles: 120878953 heartbeat IPC: 1.56493 cumulative IPC: 0.949973 (Simulation time: 1 hr 16 min 1 sec) 
Heartbeat CPU 0 instructions: 147000002 cycles: 122215631 heartbeat IPC: 0.748123 cumulative IPC: 0.947338 (Simulation time: 1 hr 16 min 27 sec) 
Heartbeat CPU 0 instructions: 148000000 cycles: 122735563 heartbeat IPC: 1.92332 cumulative IPC: 0.952269 (Simulation time: 1 hr 16 min 45 sec) 
Heartbeat CPU 0 instructions: 149000000 cycles: 123248011 heartbeat IPC: 1.95142 cumulative IPC: 0.957219 (Simulation time: 1 hr 17 min 3 sec) 
Heartbeat CPU 0 instructions: 150000003 cycles: 123760366 heartbeat IPC: 1.95178 cumulative IPC: 0.962122 (Simulation time: 1 hr 17 min 22 sec) 
Finished CPU 0 instructions: 100000000 cycles: 103936946 cummulative IPC: 0.962122 (Simulation time: 1 hr 17 min 22 sec) 

ChampSim completed all CPUs

Region of Interest Statistics

CPU 0 cummulative IPC: 0.962122 instructions: 100000000 cycles: 103936946
LLC TOTAL     ACCESS:     678830  HIT:     549508  MISS:     129322
LLC LOAD      ACCESS:     201690  HIT:     200235  MISS:       1455
LLC RFO       ACCESS:      77432  HIT:      17166  MISS:      60266
LLC PREFETCH  ACCESS:     319041  HIT:     267911  MISS:      51130
LLC WRITEBACK ACCESS:      80667  HIT:      64196  MISS:      16471
OPTgen accesses: 19489
OPTgen hits: 22347
OPTgen hit rate: 114.665


