
*** ChampSim Multicore Out-of-Order Simulator ***

Warmup Instructions: 50000000
Simulation Instructions: 100000000
Configuration: 2
Number of CPUs: 1
LLC sets: 2048
LLC ways: 16
Off-chip DRAM Channels: 1 Width: 64-bit Data Rate: 1600 MT/s

CPU 0 runs /datasets/cs240c-wi22-a00-public/data/Assignment2-gz/omnetpp_340B.trace.gz
CPU 0 L1D next line prefetcher
CPU 0 L2C IP-based stride prefetcher
Initialize Hawkeye state
Heartbeat CPU 0 instructions: 1000001 cycles: 576945 heartbeat IPC: 1.73327 cumulative IPC: 1.73327 (Simulation time: 0 hr 0 min 41 sec) 
Heartbeat CPU 0 instructions: 2000000 cycles: 1160883 heartbeat IPC: 1.71251 cumulative IPC: 1.72283 (Simulation time: 0 hr 1 min 18 sec) 
Heartbeat CPU 0 instructions: 3000001 cycles: 1758200 heartbeat IPC: 1.67415 cumulative IPC: 1.70629 (Simulation time: 0 hr 1 min 54 sec) 
Heartbeat CPU 0 instructions: 4000000 cycles: 2379163 heartbeat IPC: 1.6104 cumulative IPC: 1.68126 (Simulation time: 0 hr 2 min 33 sec) 
Heartbeat CPU 0 instructions: 5000002 cycles: 2954467 heartbeat IPC: 1.73821 cumulative IPC: 1.69235 (Simulation time: 0 hr 3 min 10 sec) 
Heartbeat CPU 0 instructions: 6000003 cycles: 3555923 heartbeat IPC: 1.66263 cumulative IPC: 1.68733 (Simulation time: 0 hr 3 min 55 sec) 
Heartbeat CPU 0 instructions: 7000003 cycles: 4205321 heartbeat IPC: 1.53989 cumulative IPC: 1.66456 (Simulation time: 0 hr 4 min 32 sec) 
Heartbeat CPU 0 instructions: 8000000 cycles: 4799853 heartbeat IPC: 1.68199 cumulative IPC: 1.66672 (Simulation time: 0 hr 5 min 11 sec) 
Heartbeat CPU 0 instructions: 9000002 cycles: 5433147 heartbeat IPC: 1.57905 cumulative IPC: 1.6565 (Simulation time: 0 hr 5 min 52 sec) 
Heartbeat CPU 0 instructions: 10000002 cycles: 6027768 heartbeat IPC: 1.68174 cumulative IPC: 1.65899 (Simulation time: 0 hr 6 min 28 sec) 
Heartbeat CPU 0 instructions: 11000003 cycles: 6627242 heartbeat IPC: 1.66813 cumulative IPC: 1.65982 (Simulation time: 0 hr 7 min 6 sec) 
Heartbeat CPU 0 instructions: 12000000 cycles: 7229782 heartbeat IPC: 1.65964 cumulative IPC: 1.6598 (Simulation time: 0 hr 7 min 44 sec) 
Heartbeat CPU 0 instructions: 13000002 cycles: 7833405 heartbeat IPC: 1.65667 cumulative IPC: 1.65956 (Simulation time: 0 hr 8 min 22 sec) 
Heartbeat CPU 0 instructions: 14000000 cycles: 8429230 heartbeat IPC: 1.67834 cumulative IPC: 1.66089 (Simulation time: 0 hr 9 min 0 sec) 
Heartbeat CPU 0 instructions: 15000001 cycles: 9020913 heartbeat IPC: 1.6901 cumulative IPC: 1.6628 (Simulation time: 0 hr 9 min 43 sec) 
Heartbeat CPU 0 instructions: 16000000 cycles: 9644076 heartbeat IPC: 1.60471 cumulative IPC: 1.65905 (Simulation time: 0 hr 10 min 21 sec) 
Heartbeat CPU 0 instructions: 17000000 cycles: 10249906 heartbeat IPC: 1.65063 cumulative IPC: 1.65855 (Simulation time: 0 hr 10 min 59 sec) 
Heartbeat CPU 0 instructions: 18000000 cycles: 10870219 heartbeat IPC: 1.61209 cumulative IPC: 1.6559 (Simulation time: 0 hr 11 min 39 sec) 
Heartbeat CPU 0 instructions: 19000000 cycles: 11501879 heartbeat IPC: 1.58313 cumulative IPC: 1.6519 (Simulation time: 0 hr 12 min 19 sec) 
Heartbeat CPU 0 instructions: 20000000 cycles: 12088137 heartbeat IPC: 1.70573 cumulative IPC: 1.65451 (Simulation time: 0 hr 12 min 57 sec) 
Heartbeat CPU 0 instructions: 21000000 cycles: 12685647 heartbeat IPC: 1.67361 cumulative IPC: 1.65541 (Simulation time: 0 hr 13 min 35 sec) 
Heartbeat CPU 0 instructions: 22000001 cycles: 13300047 heartbeat IPC: 1.62761 cumulative IPC: 1.65413 (Simulation time: 0 hr 14 min 12 sec) 
Heartbeat CPU 0 instructions: 23000001 cycles: 13922054 heartbeat IPC: 1.6077 cumulative IPC: 1.65206 (Simulation time: 0 hr 14 min 48 sec) 
Heartbeat CPU 0 instructions: 24000000 cycles: 14545046 heartbeat IPC: 1.60516 cumulative IPC: 1.65005 (Simulation time: 0 hr 15 min 25 sec) 
Heartbeat CPU 0 instructions: 25000001 cycles: 15161977 heartbeat IPC: 1.62093 cumulative IPC: 1.64886 (Simulation time: 0 hr 16 min 1 sec) 
Heartbeat CPU 0 instructions: 26000001 cycles: 15752698 heartbeat IPC: 1.69285 cumulative IPC: 1.65051 (Simulation time: 0 hr 16 min 39 sec) 
Heartbeat CPU 0 instructions: 27000000 cycles: 16323453 heartbeat IPC: 1.75206 cumulative IPC: 1.65406 (Simulation time: 0 hr 17 min 18 sec) 
Heartbeat CPU 0 instructions: 28000000 cycles: 16918984 heartbeat IPC: 1.67917 cumulative IPC: 1.65495 (Simulation time: 0 hr 17 min 58 sec) 
Heartbeat CPU 0 instructions: 29000003 cycles: 17542719 heartbeat IPC: 1.60325 cumulative IPC: 1.65311 (Simulation time: 0 hr 18 min 42 sec) 
Heartbeat CPU 0 instructions: 30000003 cycles: 18119834 heartbeat IPC: 1.73276 cumulative IPC: 1.65564 (Simulation time: 0 hr 19 min 20 sec) 
Heartbeat CPU 0 instructions: 31000001 cycles: 18728774 heartbeat IPC: 1.64219 cumulative IPC: 1.65521 (Simulation time: 0 hr 20 min 1 sec) 
Heartbeat CPU 0 instructions: 32000000 cycles: 19334112 heartbeat IPC: 1.65197 cumulative IPC: 1.65511 (Simulation time: 0 hr 20 min 40 sec) 
Heartbeat CPU 0 instructions: 33000001 cycles: 19914075 heartbeat IPC: 1.72425 cumulative IPC: 1.65712 (Simulation time: 0 hr 21 min 15 sec) 
Heartbeat CPU 0 instructions: 34000001 cycles: 20564903 heartbeat IPC: 1.5365 cumulative IPC: 1.6533 (Simulation time: 0 hr 21 min 54 sec) 
Heartbeat CPU 0 instructions: 35000002 cycles: 21145288 heartbeat IPC: 1.723 cumulative IPC: 1.65522 (Simulation time: 0 hr 22 min 32 sec) 
Heartbeat CPU 0 instructions: 36000000 cycles: 21754704 heartbeat IPC: 1.64091 cumulative IPC: 1.65481 (Simulation time: 0 hr 23 min 10 sec) 
Heartbeat CPU 0 instructions: 37000002 cycles: 22393838 heartbeat IPC: 1.56462 cumulative IPC: 1.65224 (Simulation time: 0 hr 23 min 47 sec) 
Heartbeat CPU 0 instructions: 38000000 cycles: 22976693 heartbeat IPC: 1.71569 cumulative IPC: 1.65385 (Simulation time: 0 hr 24 min 23 sec) 
Heartbeat CPU 0 instructions: 39000001 cycles: 23645291 heartbeat IPC: 1.49567 cumulative IPC: 1.64938 (Simulation time: 0 hr 25 min 2 sec) 
Heartbeat CPU 0 instructions: 40000000 cycles: 24235131 heartbeat IPC: 1.69537 cumulative IPC: 1.6505 (Simulation time: 0 hr 25 min 38 sec) 
Heartbeat CPU 0 instructions: 41000000 cycles: 24823498 heartbeat IPC: 1.69962 cumulative IPC: 1.65166 (Simulation time: 0 hr 26 min 14 sec) 
Heartbeat CPU 0 instructions: 42000001 cycles: 25451278 heartbeat IPC: 1.59292 cumulative IPC: 1.65021 (Simulation time: 0 hr 26 min 53 sec) 
Heartbeat CPU 0 instructions: 43000003 cycles: 26057189 heartbeat IPC: 1.65041 cumulative IPC: 1.65022 (Simulation time: 0 hr 27 min 30 sec) 
Heartbeat CPU 0 instructions: 44000000 cycles: 26610663 heartbeat IPC: 1.80676 cumulative IPC: 1.65347 (Simulation time: 0 hr 28 min 9 sec) 
Heartbeat CPU 0 instructions: 45000003 cycles: 27170013 heartbeat IPC: 1.78779 cumulative IPC: 1.65624 (Simulation time: 0 hr 28 min 47 sec) 
Heartbeat CPU 0 instructions: 46000001 cycles: 27785268 heartbeat IPC: 1.62534 cumulative IPC: 1.65555 (Simulation time: 0 hr 29 min 24 sec) 
Heartbeat CPU 0 instructions: 47000000 cycles: 28358741 heartbeat IPC: 1.74376 cumulative IPC: 1.65734 (Simulation time: 0 hr 30 min 3 sec) 
Heartbeat CPU 0 instructions: 48000000 cycles: 28960749 heartbeat IPC: 1.66111 cumulative IPC: 1.65742 (Simulation time: 0 hr 30 min 42 sec) 
Heartbeat CPU 0 instructions: 49000000 cycles: 29540397 heartbeat IPC: 1.72518 cumulative IPC: 1.65875 (Simulation time: 0 hr 31 min 18 sec) 
Heartbeat CPU 0 instructions: 50000000 cycles: 30183778 heartbeat IPC: 1.55429 cumulative IPC: 1.65652 (Simulation time: 0 hr 31 min 56 sec) 

Warmup complete CPU 0 instructions: 50000004 cycles: 30183779 (Simulation time: 0 hr 31 min 56 sec) 

Heartbeat CPU 0 instructions: 51000003 cycles: 33942158 heartbeat IPC: 0.266073 cumulative IPC: 0.266072 (Simulation time: 0 hr 32 min 47 sec) 
Heartbeat CPU 0 instructions: 52000000 cycles: 37913616 heartbeat IPC: 0.251796 cumulative IPC: 0.258737 (Simulation time: 0 hr 33 min 43 sec) 
Heartbeat CPU 0 instructions: 53000000 cycles: 42466794 heartbeat IPC: 0.219627 cumulative IPC: 0.244239 (Simulation time: 0 hr 34 min 31 sec) 
Heartbeat CPU 0 instructions: 54000002 cycles: 46547884 heartbeat IPC: 0.245033 cumulative IPC: 0.244437 (Simulation time: 0 hr 35 min 18 sec) 
Heartbeat CPU 0 instructions: 55000001 cycles: 50392310 heartbeat IPC: 0.260117 cumulative IPC: 0.24742 (Simulation time: 0 hr 36 min 8 sec) 
Heartbeat CPU 0 instructions: 56000000 cycles: 54640701 heartbeat IPC: 0.235383 cumulative IPC: 0.245329 (Simulation time: 0 hr 36 min 54 sec) 
Heartbeat CPU 0 instructions: 57000001 cycles: 58707529 heartbeat IPC: 0.245892 cumulative IPC: 0.245409 (Simulation time: 0 hr 37 min 41 sec) 
Heartbeat CPU 0 instructions: 58000000 cycles: 61937153 heartbeat IPC: 0.309633 cumulative IPC: 0.251942 (Simulation time: 0 hr 38 min 28 sec) 
Heartbeat CPU 0 instructions: 59000003 cycles: 65899693 heartbeat IPC: 0.252364 cumulative IPC: 0.251988 (Simulation time: 0 hr 39 min 16 sec) 
Heartbeat CPU 0 instructions: 60000000 cycles: 70294076 heartbeat IPC: 0.227563 cumulative IPC: 0.249312 (Simulation time: 0 hr 40 min 9 sec) 
Heartbeat CPU 0 instructions: 61000001 cycles: 74741695 heartbeat IPC: 0.22484 cumulative IPC: 0.24687 (Simulation time: 0 hr 41 min 3 sec) 
Heartbeat CPU 0 instructions: 62000000 cycles: 79190162 heartbeat IPC: 0.224796 cumulative IPC: 0.244866 (Simulation time: 0 hr 41 min 48 sec) 
Heartbeat CPU 0 instructions: 63000001 cycles: 82905194 heartbeat IPC: 0.269177 cumulative IPC: 0.246579 (Simulation time: 0 hr 42 min 37 sec) 
Heartbeat CPU 0 instructions: 64000000 cycles: 86717247 heartbeat IPC: 0.262326 cumulative IPC: 0.247641 (Simulation time: 0 hr 43 min 25 sec) 
Heartbeat CPU 0 instructions: 65000001 cycles: 90136321 heartbeat IPC: 0.292477 cumulative IPC: 0.250198 (Simulation time: 0 hr 44 min 10 sec) 
Heartbeat CPU 0 instructions: 66000002 cycles: 94156230 heartbeat IPC: 0.248762 cumulative IPC: 0.250108 (Simulation time: 0 hr 44 min 56 sec) 
Heartbeat CPU 0 instructions: 67000002 cycles: 97908191 heartbeat IPC: 0.266527 cumulative IPC: 0.251017 (Simulation time: 0 hr 45 min 41 sec) 
Heartbeat CPU 0 instructions: 68000000 cycles: 101801203 heartbeat IPC: 0.25687 cumulative IPC: 0.251335 (Simulation time: 0 hr 46 min 30 sec) 
Heartbeat CPU 0 instructions: 69000000 cycles: 105832778 heartbeat IPC: 0.248042 cumulative IPC: 0.25116 (Simulation time: 0 hr 47 min 17 sec) 
Heartbeat CPU 0 instructions: 70000001 cycles: 109542572 heartbeat IPC: 0.269557 cumulative IPC: 0.25202 (Simulation time: 0 hr 48 min 2 sec) 
Heartbeat CPU 0 instructions: 71000003 cycles: 113491439 heartbeat IPC: 0.253238 cumulative IPC: 0.252078 (Simulation time: 0 hr 48 min 51 sec) 
Heartbeat CPU 0 instructions: 72000000 cycles: 117959852 heartbeat IPC: 0.223792 cumulative IPC: 0.250638 (Simulation time: 0 hr 49 min 42 sec) 
Heartbeat CPU 0 instructions: 73000002 cycles: 121957686 heartbeat IPC: 0.250136 cumulative IPC: 0.250616 (Simulation time: 0 hr 50 min 33 sec) 
Heartbeat CPU 0 instructions: 74000000 cycles: 125740814 heartbeat IPC: 0.264331 cumulative IPC: 0.251159 (Simulation time: 0 hr 51 min 22 sec) 
Heartbeat CPU 0 instructions: 75000003 cycles: 129744741 heartbeat IPC: 0.249756 cumulative IPC: 0.251102 (Simulation time: 0 hr 52 min 14 sec) 
Heartbeat CPU 0 instructions: 76000000 cycles: 133529078 heartbeat IPC: 0.264246 cumulative IPC: 0.251584 (Simulation time: 0 hr 53 min 4 sec) 
Heartbeat CPU 0 instructions: 77000002 cycles: 138154331 heartbeat IPC: 0.216205 cumulative IPC: 0.250068 (Simulation time: 0 hr 53 min 56 sec) 
Heartbeat CPU 0 instructions: 78000003 cycles: 141969816 heartbeat IPC: 0.26209 cumulative IPC: 0.250479 (Simulation time: 0 hr 54 min 49 sec) 
Heartbeat CPU 0 instructions: 79000002 cycles: 145834281 heartbeat IPC: 0.258768 cumulative IPC: 0.250755 (Simulation time: 0 hr 55 min 34 sec) 
Heartbeat CPU 0 instructions: 80000000 cycles: 149645297 heartbeat IPC: 0.262397 cumulative IPC: 0.251127 (Simulation time: 0 hr 56 min 20 sec) 
Heartbeat CPU 0 instructions: 81000002 cycles: 153730977 heartbeat IPC: 0.244758 cumulative IPC: 0.250916 (Simulation time: 0 hr 57 min 6 sec) 
Heartbeat CPU 0 instructions: 82000000 cycles: 158272196 heartbeat IPC: 0.220205 cumulative IPC: 0.249827 (Simulation time: 0 hr 57 min 58 sec) 
Heartbeat CPU 0 instructions: 83000002 cycles: 161965648 heartbeat IPC: 0.27075 cumulative IPC: 0.250414 (Simulation time: 0 hr 58 min 43 sec) 
Heartbeat CPU 0 instructions: 84000000 cycles: 165900774 heartbeat IPC: 0.254121 cumulative IPC: 0.250521 (Simulation time: 0 hr 59 min 31 sec) 
Heartbeat CPU 0 instructions: 85000000 cycles: 169676822 heartbeat IPC: 0.264827 cumulative IPC: 0.250909 (Simulation time: 1 hr 0 min 18 sec) 
Heartbeat CPU 0 instructions: 86000000 cycles: 173560195 heartbeat IPC: 0.257508 cumulative IPC: 0.251087 (Simulation time: 1 hr 1 min 10 sec) 
Heartbeat CPU 0 instructions: 87000001 cycles: 177360318 heartbeat IPC: 0.26315 cumulative IPC: 0.251399 (Simulation time: 1 hr 1 min 59 sec) 
Heartbeat CPU 0 instructions: 88000000 cycles: 181155178 heartbeat IPC: 0.263514 cumulative IPC: 0.251703 (Simulation time: 1 hr 2 min 47 sec) 
Heartbeat CPU 0 instructions: 89000003 cycles: 184681879 heartbeat IPC: 0.283552 cumulative IPC: 0.25243 (Simulation time: 1 hr 3 min 35 sec) 
Heartbeat CPU 0 instructions: 90000000 cycles: 188546798 heartbeat IPC: 0.258737 cumulative IPC: 0.252584 (Simulation time: 1 hr 4 min 22 sec) 
Heartbeat CPU 0 instructions: 91000001 cycles: 192164214 heartbeat IPC: 0.276441 cumulative IPC: 0.253117 (Simulation time: 1 hr 5 min 6 sec) 
Heartbeat CPU 0 instructions: 92000000 cycles: 196234497 heartbeat IPC: 0.245683 cumulative IPC: 0.252935 (Simulation time: 1 hr 5 min 51 sec) 
Heartbeat CPU 0 instructions: 93000001 cycles: 200613322 heartbeat IPC: 0.228372 cumulative IPC: 0.252304 (Simulation time: 1 hr 6 min 41 sec) 
Heartbeat CPU 0 instructions: 94000001 cycles: 204415205 heartbeat IPC: 0.263028 cumulative IPC: 0.252538 (Simulation time: 1 hr 7 min 31 sec) 
Heartbeat CPU 0 instructions: 95000000 cycles: 208401254 heartbeat IPC: 0.250875 cumulative IPC: 0.2525 (Simulation time: 1 hr 8 min 17 sec) 
Heartbeat CPU 0 instructions: 96000000 cycles: 212773086 heartbeat IPC: 0.228737 cumulative IPC: 0.251931 (Simulation time: 1 hr 9 min 1 sec) 
Heartbeat CPU 0 instructions: 97000000 cycles: 216369755 heartbeat IPC: 0.278035 cumulative IPC: 0.252436 (Simulation time: 1 hr 9 min 42 sec) 
Heartbeat CPU 0 instructions: 98000000 cycles: 220586592 heartbeat IPC: 0.237145 cumulative IPC: 0.252097 (Simulation time: 1 hr 10 min 26 sec) 
Heartbeat CPU 0 instructions: 99000000 cycles: 225131927 heartbeat IPC: 0.220006 cumulative IPC: 0.251349 (Simulation time: 1 hr 11 min 9 sec) 
Heartbeat CPU 0 instructions: 100000000 cycles: 229189901 heartbeat IPC: 0.246428 cumulative IPC: 0.251249 (Simulation time: 1 hr 11 min 50 sec) 
Heartbeat CPU 0 instructions: 101000000 cycles: 233065487 heartbeat IPC: 0.258025 cumulative IPC: 0.251378 (Simulation time: 1 hr 12 min 30 sec) 
Heartbeat CPU 0 instructions: 102000003 cycles: 237276894 heartbeat IPC: 0.237451 cumulative IPC: 0.251095 (Simulation time: 1 hr 13 min 11 sec) 
Heartbeat CPU 0 instructions: 103000000 cycles: 241065853 heartbeat IPC: 0.263924 cumulative IPC: 0.251325 (Simulation time: 1 hr 13 min 47 sec) 
Heartbeat CPU 0 instructions: 104000000 cycles: 244870144 heartbeat IPC: 0.262861 cumulative IPC: 0.25153 (Simulation time: 1 hr 14 min 25 sec) 
Heartbeat CPU 0 instructions: 105000003 cycles: 248965677 heartbeat IPC: 0.244169 cumulative IPC: 0.251392 (Simulation time: 1 hr 15 min 2 sec) 
Heartbeat CPU 0 instructions: 106000001 cycles: 252614964 heartbeat IPC: 0.274026 cumulative IPC: 0.251763 (Simulation time: 1 hr 15 min 35 sec) 
Heartbeat CPU 0 instructions: 107000000 cycles: 256801796 heartbeat IPC: 0.238844 cumulative IPC: 0.251525 (Simulation time: 1 hr 16 min 14 sec) 
Heartbeat CPU 0 instructions: 108000000 cycles: 260771030 heartbeat IPC: 0.251938 cumulative IPC: 0.251532 (Simulation time: 1 hr 16 min 49 sec) 
Heartbeat CPU 0 instructions: 109000000 cycles: 265233968 heartbeat IPC: 0.224068 cumulative IPC: 0.25101 (Simulation time: 1 hr 17 min 21 sec) 
Heartbeat CPU 0 instructions: 110000000 cycles: 268855602 heartbeat IPC: 0.276118 cumulative IPC: 0.251391 (Simulation time: 1 hr 17 min 51 sec) 
Heartbeat CPU 0 instructions: 111000002 cycles: 273324156 heartbeat IPC: 0.223786 cumulative IPC: 0.250884 (Simulation time: 1 hr 18 min 21 sec) 
Heartbeat CPU 0 instructions: 112000000 cycles: 277262323 heartbeat IPC: 0.253925 cumulative IPC: 0.250932 (Simulation time: 1 hr 18 min 50 sec) 
Heartbeat CPU 0 instructions: 113000002 cycles: 280853477 heartbeat IPC: 0.278463 cumulative IPC: 0.251327 (Simulation time: 1 hr 19 min 16 sec) 
Heartbeat CPU 0 instructions: 114000000 cycles: 284318522 heartbeat IPC: 0.288596 cumulative IPC: 0.251835 (Simulation time: 1 hr 19 min 41 sec) 
Heartbeat CPU 0 instructions: 115000000 cycles: 288063156 heartbeat IPC: 0.267049 cumulative IPC: 0.252056 (Simulation time: 1 hr 20 min 9 sec) 
Heartbeat CPU 0 instructions: 116000000 cycles: 292240894 heartbeat IPC: 0.239364 cumulative IPC: 0.251853 (Simulation time: 1 hr 20 min 35 sec) 
Heartbeat CPU 0 instructions: 117000000 cycles: 296007700 heartbeat IPC: 0.265477 cumulative IPC: 0.252047 (Simulation time: 1 hr 20 min 59 sec) 
Heartbeat CPU 0 instructions: 118000000 cycles: 299698366 heartbeat IPC: 0.270954 cumulative IPC: 0.252305 (Simulation time: 1 hr 21 min 23 sec) 
Heartbeat CPU 0 instructions: 119000003 cycles: 303507482 heartbeat IPC: 0.262529 cumulative IPC: 0.252448 (Simulation time: 1 hr 21 min 47 sec) 
Heartbeat CPU 0 instructions: 120000000 cycles: 307164033 heartbeat IPC: 0.273481 cumulative IPC: 0.252726 (Simulation time: 1 hr 22 min 10 sec) 
Heartbeat CPU 0 instructions: 121000001 cycles: 310657025 heartbeat IPC: 0.286288 cumulative IPC: 0.253144 (Simulation time: 1 hr 22 min 34 sec) 
Heartbeat CPU 0 instructions: 122000001 cycles: 314273005 heartbeat IPC: 0.27655 cumulative IPC: 0.253441 (Simulation time: 1 hr 22 min 58 sec) 
Heartbeat CPU 0 instructions: 123000000 cycles: 317885142 heartbeat IPC: 0.276844 cumulative IPC: 0.253735 (Simulation time: 1 hr 23 min 20 sec) 
Heartbeat CPU 0 instructions: 124000000 cycles: 321549313 heartbeat IPC: 0.272913 cumulative IPC: 0.253976 (Simulation time: 1 hr 23 min 42 sec) 
Heartbeat CPU 0 instructions: 125000001 cycles: 325196741 heartbeat IPC: 0.274166 cumulative IPC: 0.254226 (Simulation time: 1 hr 24 min 2 sec) 
Heartbeat CPU 0 instructions: 126000003 cycles: 328761509 heartbeat IPC: 0.280524 cumulative IPC: 0.25454 (Simulation time: 1 hr 24 min 22 sec) 
Heartbeat CPU 0 instructions: 127000001 cycles: 332294278 heartbeat IPC: 0.283064 cumulative IPC: 0.254874 (Simulation time: 1 hr 24 min 40 sec) 
Heartbeat CPU 0 instructions: 128000000 cycles: 335866380 heartbeat IPC: 0.279947 cumulative IPC: 0.255167 (Simulation time: 1 hr 24 min 58 sec) 
Heartbeat CPU 0 instructions: 129000001 cycles: 339149558 heartbeat IPC: 0.304583 cumulative IPC: 0.255692 (Simulation time: 1 hr 25 min 16 sec) 
Heartbeat CPU 0 instructions: 130000000 cycles: 342771623 heartbeat IPC: 0.276085 cumulative IPC: 0.255928 (Simulation time: 1 hr 25 min 35 sec) 
Heartbeat CPU 0 instructions: 131000000 cycles: 346448826 heartbeat IPC: 0.271946 cumulative IPC: 0.256114 (Simulation time: 1 hr 25 min 53 sec) 
Heartbeat CPU 0 instructions: 132000000 cycles: 350278710 heartbeat IPC: 0.261105 cumulative IPC: 0.256174 (Simulation time: 1 hr 26 min 11 sec) 
Heartbeat CPU 0 instructions: 133000003 cycles: 354206122 heartbeat IPC: 0.254621 cumulative IPC: 0.256155 (Simulation time: 1 hr 26 min 27 sec) 
Heartbeat CPU 0 instructions: 134000000 cycles: 358246404 heartbeat IPC: 0.247507 cumulative IPC: 0.256049 (Simulation time: 1 hr 26 min 42 sec) 
Heartbeat CPU 0 instructions: 135000001 cycles: 362077158 heartbeat IPC: 0.261045 cumulative IPC: 0.256106 (Simulation time: 1 hr 26 min 55 sec) 
Heartbeat CPU 0 instructions: 136000000 cycles: 365874065 heartbeat IPC: 0.263372 cumulative IPC: 0.256189 (Simulation time: 1 hr 27 min 10 sec) 
Heartbeat CPU 0 instructions: 137000000 cycles: 369743905 heartbeat IPC: 0.258409 cumulative IPC: 0.256214 (Simulation time: 1 hr 27 min 23 sec) 
Heartbeat CPU 0 instructions: 138000000 cycles: 373575185 heartbeat IPC: 0.261009 cumulative IPC: 0.256267 (Simulation time: 1 hr 27 min 34 sec) 
Heartbeat CPU 0 instructions: 139000000 cycles: 377652412 heartbeat IPC: 0.245265 cumulative IPC: 0.256138 (Simulation time: 1 hr 27 min 45 sec) 
Heartbeat CPU 0 instructions: 140000000 cycles: 381240606 heartbeat IPC: 0.278692 cumulative IPC: 0.256369 (Simulation time: 1 hr 27 min 55 sec) 
Heartbeat CPU 0 instructions: 141000001 cycles: 385557060 heartbeat IPC: 0.231672 cumulative IPC: 0.256069 (Simulation time: 1 hr 28 min 4 sec) 
Heartbeat CPU 0 instructions: 142000000 cycles: 389608684 heartbeat IPC: 0.246814 cumulative IPC: 0.255964 (Simulation time: 1 hr 28 min 12 sec) 
Heartbeat CPU 0 instructions: 143000000 cycles: 393748591 heartbeat IPC: 0.241551 cumulative IPC: 0.2558 (Simulation time: 1 hr 28 min 20 sec) 
Heartbeat CPU 0 instructions: 144000000 cycles: 397777405 heartbeat IPC: 0.248212 cumulative IPC: 0.255717 (Simulation time: 1 hr 28 min 28 sec) 
Heartbeat CPU 0 instructions: 145000001 cycles: 401101862 heartbeat IPC: 0.300801 cumulative IPC: 0.256121 (Simulation time: 1 hr 28 min 35 sec) 
Heartbeat CPU 0 instructions: 146000001 cycles: 405377908 heartbeat IPC: 0.233861 cumulative IPC: 0.255868 (Simulation time: 1 hr 28 min 43 sec) 
Heartbeat CPU 0 instructions: 147000002 cycles: 409641013 heartbeat IPC: 0.234571 cumulative IPC: 0.255628 (Simulation time: 1 hr 28 min 50 sec) 
Heartbeat CPU 0 instructions: 148000000 cycles: 413423737 heartbeat IPC: 0.264359 cumulative IPC: 0.255714 (Simulation time: 1 hr 28 min 56 sec) 
Heartbeat CPU 0 instructions: 149000000 cycles: 417185796 heartbeat IPC: 0.265812 cumulative IPC: 0.255813 (Simulation time: 1 hr 29 min 1 sec) 
Heartbeat CPU 0 instructions: 150000000 cycles: 420397923 heartbeat IPC: 0.31132 cumulative IPC: 0.25627 (Simulation time: 1 hr 29 min 6 sec) 
Finished CPU 0 instructions: 100000000 cycles: 390214145 cummulative IPC: 0.25627 (Simulation time: 1 hr 29 min 6 sec) 

ChampSim completed all CPUs

Region of Interest Statistics

CPU 0 cummulative IPC: 0.25627 instructions: 100000000 cycles: 390214145
LLC TOTAL     ACCESS:    4288059  HIT:    1609616  MISS:    2678443
LLC LOAD      ACCESS:    1519064  HIT:     461044  MISS:    1058020
LLC RFO       ACCESS:     246554  HIT:     100351  MISS:     146203
LLC PREFETCH  ACCESS:    1524906  HIT:     309162  MISS:    1215744
LLC WRITEBACK ACCESS:     997535  HIT:     739059  MISS:     258476
OPTgen accesses: 39535
OPTgen hits: 22433
OPTgen hit rate: 56.7421


