
*** ChampSim Multicore Out-of-Order Simulator ***

Warmup Instructions: 50000000
Simulation Instructions: 100000000
Configuration: 2
Number of CPUs: 1
LLC sets: 2048
LLC ways: 16
Off-chip DRAM Channels: 1 Width: 64-bit Data Rate: 1600 MT/s

CPU 0 runs /datasets/cs240c-wi22-a00-public/data/Assignment2-gz/GemsFDTD_109B.trace.gz
CPU 0 L1D next line prefetcher
CPU 0 L2C IP-based stride prefetcher
Initialize Hawkeye state
Heartbeat CPU 0 instructions: 1000002 cycles: 579772 heartbeat IPC: 1.72482 cumulative IPC: 1.72482 (Simulation time: 0 hr 0 min 43 sec) 
Heartbeat CPU 0 instructions: 2000001 cycles: 1159543 heartbeat IPC: 1.72482 cumulative IPC: 1.72482 (Simulation time: 0 hr 1 min 28 sec) 
Heartbeat CPU 0 instructions: 3000000 cycles: 1738734 heartbeat IPC: 1.72654 cumulative IPC: 1.72539 (Simulation time: 0 hr 2 min 11 sec) 
Heartbeat CPU 0 instructions: 4000000 cycles: 2317736 heartbeat IPC: 1.72711 cumulative IPC: 1.72582 (Simulation time: 0 hr 2 min 54 sec) 
Heartbeat CPU 0 instructions: 5000000 cycles: 2897550 heartbeat IPC: 1.72469 cumulative IPC: 1.7256 (Simulation time: 0 hr 3 min 32 sec) 
Heartbeat CPU 0 instructions: 6000002 cycles: 3478270 heartbeat IPC: 1.722 cumulative IPC: 1.725 (Simulation time: 0 hr 4 min 13 sec) 
Heartbeat CPU 0 instructions: 7000001 cycles: 4058932 heartbeat IPC: 1.72217 cumulative IPC: 1.72459 (Simulation time: 0 hr 4 min 53 sec) 
Heartbeat CPU 0 instructions: 8000000 cycles: 4639128 heartbeat IPC: 1.72355 cumulative IPC: 1.72446 (Simulation time: 0 hr 5 min 33 sec) 
Heartbeat CPU 0 instructions: 9000002 cycles: 5219298 heartbeat IPC: 1.72364 cumulative IPC: 1.72437 (Simulation time: 0 hr 6 min 17 sec) 
Heartbeat CPU 0 instructions: 10000001 cycles: 5799481 heartbeat IPC: 1.72359 cumulative IPC: 1.72429 (Simulation time: 0 hr 6 min 59 sec) 
Heartbeat CPU 0 instructions: 11000000 cycles: 6379302 heartbeat IPC: 1.72467 cumulative IPC: 1.72433 (Simulation time: 0 hr 7 min 42 sec) 
Heartbeat CPU 0 instructions: 12000000 cycles: 6959185 heartbeat IPC: 1.72449 cumulative IPC: 1.72434 (Simulation time: 0 hr 8 min 24 sec) 
Heartbeat CPU 0 instructions: 13000001 cycles: 7539243 heartbeat IPC: 1.72397 cumulative IPC: 1.72431 (Simulation time: 0 hr 9 min 3 sec) 
Heartbeat CPU 0 instructions: 14000003 cycles: 8119138 heartbeat IPC: 1.72445 cumulative IPC: 1.72432 (Simulation time: 0 hr 9 min 43 sec) 
Heartbeat CPU 0 instructions: 15000000 cycles: 8699237 heartbeat IPC: 1.72384 cumulative IPC: 1.72429 (Simulation time: 0 hr 10 min 20 sec) 
Heartbeat CPU 0 instructions: 16000000 cycles: 9279410 heartbeat IPC: 1.72362 cumulative IPC: 1.72425 (Simulation time: 0 hr 10 min 58 sec) 
Heartbeat CPU 0 instructions: 17000002 cycles: 9859632 heartbeat IPC: 1.72348 cumulative IPC: 1.7242 (Simulation time: 0 hr 11 min 39 sec) 
Heartbeat CPU 0 instructions: 18000003 cycles: 10439478 heartbeat IPC: 1.7246 cumulative IPC: 1.72422 (Simulation time: 0 hr 12 min 17 sec) 
Heartbeat CPU 0 instructions: 19000000 cycles: 11019320 heartbeat IPC: 1.7246 cumulative IPC: 1.72424 (Simulation time: 0 hr 12 min 59 sec) 
Heartbeat CPU 0 instructions: 20000000 cycles: 11596235 heartbeat IPC: 1.73336 cumulative IPC: 1.7247 (Simulation time: 0 hr 13 min 34 sec) 
Heartbeat CPU 0 instructions: 21000000 cycles: 12041368 heartbeat IPC: 2.24652 cumulative IPC: 1.74399 (Simulation time: 0 hr 14 min 4 sec) 
Heartbeat CPU 0 instructions: 22000000 cycles: 12573580 heartbeat IPC: 1.87895 cumulative IPC: 1.7497 (Simulation time: 0 hr 14 min 35 sec) 
Heartbeat CPU 0 instructions: 23000000 cycles: 13023018 heartbeat IPC: 2.225 cumulative IPC: 1.7661 (Simulation time: 0 hr 15 min 7 sec) 
Heartbeat CPU 0 instructions: 24000000 cycles: 13564894 heartbeat IPC: 1.84544 cumulative IPC: 1.76927 (Simulation time: 0 hr 15 min 39 sec) 
Heartbeat CPU 0 instructions: 25000001 cycles: 14023977 heartbeat IPC: 2.17826 cumulative IPC: 1.78266 (Simulation time: 0 hr 16 min 8 sec) 
Heartbeat CPU 0 instructions: 26000000 cycles: 14554216 heartbeat IPC: 1.88594 cumulative IPC: 1.78642 (Simulation time: 0 hr 16 min 42 sec) 
Heartbeat CPU 0 instructions: 27000000 cycles: 15030188 heartbeat IPC: 2.10096 cumulative IPC: 1.79638 (Simulation time: 0 hr 17 min 10 sec) 
Heartbeat CPU 0 instructions: 28000000 cycles: 15533186 heartbeat IPC: 1.98808 cumulative IPC: 1.80259 (Simulation time: 0 hr 17 min 43 sec) 
Heartbeat CPU 0 instructions: 29000000 cycles: 16006156 heartbeat IPC: 2.1143 cumulative IPC: 1.8118 (Simulation time: 0 hr 18 min 14 sec) 
Heartbeat CPU 0 instructions: 30000001 cycles: 16526095 heartbeat IPC: 1.9233 cumulative IPC: 1.81531 (Simulation time: 0 hr 18 min 46 sec) 
Heartbeat CPU 0 instructions: 31000001 cycles: 17026824 heartbeat IPC: 1.99709 cumulative IPC: 1.82066 (Simulation time: 0 hr 19 min 13 sec) 
Heartbeat CPU 0 instructions: 32000000 cycles: 17509025 heartbeat IPC: 2.07382 cumulative IPC: 1.82763 (Simulation time: 0 hr 19 min 40 sec) 
Heartbeat CPU 0 instructions: 33000003 cycles: 18012028 heartbeat IPC: 1.98807 cumulative IPC: 1.83211 (Simulation time: 0 hr 20 min 11 sec) 
Heartbeat CPU 0 instructions: 34000002 cycles: 18491913 heartbeat IPC: 2.08383 cumulative IPC: 1.83864 (Simulation time: 0 hr 20 min 39 sec) 
Heartbeat CPU 0 instructions: 35000002 cycles: 18994625 heartbeat IPC: 1.98921 cumulative IPC: 1.84263 (Simulation time: 0 hr 21 min 13 sec) 
Heartbeat CPU 0 instructions: 36000000 cycles: 19486777 heartbeat IPC: 2.03189 cumulative IPC: 1.84741 (Simulation time: 0 hr 21 min 46 sec) 
Heartbeat CPU 0 instructions: 37000000 cycles: 19901824 heartbeat IPC: 2.40937 cumulative IPC: 1.85913 (Simulation time: 0 hr 22 min 20 sec) 
Heartbeat CPU 0 instructions: 38000001 cycles: 20316869 heartbeat IPC: 2.40938 cumulative IPC: 1.87037 (Simulation time: 0 hr 22 min 52 sec) 
Heartbeat CPU 0 instructions: 39000000 cycles: 20731855 heartbeat IPC: 2.40972 cumulative IPC: 1.88116 (Simulation time: 0 hr 23 min 23 sec) 
Heartbeat CPU 0 instructions: 40000000 cycles: 21146864 heartbeat IPC: 2.40959 cumulative IPC: 1.89153 (Simulation time: 0 hr 23 min 57 sec) 
Heartbeat CPU 0 instructions: 41000000 cycles: 21657606 heartbeat IPC: 1.95794 cumulative IPC: 1.8931 (Simulation time: 0 hr 24 min 26 sec) 
Heartbeat CPU 0 instructions: 42000000 cycles: 22072623 heartbeat IPC: 2.40954 cumulative IPC: 1.90281 (Simulation time: 0 hr 24 min 58 sec) 
Heartbeat CPU 0 instructions: 43000000 cycles: 22487676 heartbeat IPC: 2.40933 cumulative IPC: 1.91216 (Simulation time: 0 hr 25 min 31 sec) 
Heartbeat CPU 0 instructions: 44000000 cycles: 22902628 heartbeat IPC: 2.40992 cumulative IPC: 1.92118 (Simulation time: 0 hr 26 min 4 sec) 
Heartbeat CPU 0 instructions: 45000000 cycles: 23317637 heartbeat IPC: 2.40959 cumulative IPC: 1.92987 (Simulation time: 0 hr 26 min 35 sec) 
Heartbeat CPU 0 instructions: 46000003 cycles: 23728100 heartbeat IPC: 2.43628 cumulative IPC: 1.93863 (Simulation time: 0 hr 27 min 7 sec) 
Heartbeat CPU 0 instructions: 47000001 cycles: 24361975 heartbeat IPC: 1.57759 cumulative IPC: 1.92924 (Simulation time: 0 hr 27 min 33 sec) 
Heartbeat CPU 0 instructions: 48000000 cycles: 24962777 heartbeat IPC: 1.66444 cumulative IPC: 1.92286 (Simulation time: 0 hr 28 min 0 sec) 
Heartbeat CPU 0 instructions: 49000003 cycles: 25556618 heartbeat IPC: 1.68396 cumulative IPC: 1.91731 (Simulation time: 0 hr 28 min 47 sec) 
Heartbeat CPU 0 instructions: 50000001 cycles: 26222833 heartbeat IPC: 1.50101 cumulative IPC: 1.90674 (Simulation time: 0 hr 29 min 23 sec) 

Warmup complete CPU 0 instructions: 50000001 cycles: 26222833 (Simulation time: 0 hr 29 min 23 sec) 

Heartbeat CPU 0 instructions: 51000001 cycles: 27730827 heartbeat IPC: 0.663133 cumulative IPC: 0.663133 (Simulation time: 0 hr 30 min 8 sec) 
Heartbeat CPU 0 instructions: 52000000 cycles: 29281120 heartbeat IPC: 0.645039 cumulative IPC: 0.653961 (Simulation time: 0 hr 30 min 52 sec) 
Heartbeat CPU 0 instructions: 53000000 cycles: 30889706 heartbeat IPC: 0.621664 cumulative IPC: 0.642829 (Simulation time: 0 hr 31 min 34 sec) 
Heartbeat CPU 0 instructions: 54000000 cycles: 32494573 heartbeat IPC: 0.623105 cumulative IPC: 0.637781 (Simulation time: 0 hr 32 min 14 sec) 
Heartbeat CPU 0 instructions: 55000000 cycles: 34087169 heartbeat IPC: 0.627906 cumulative IPC: 0.635781 (Simulation time: 0 hr 32 min 55 sec) 
Heartbeat CPU 0 instructions: 56000000 cycles: 35691826 heartbeat IPC: 0.623186 cumulative IPC: 0.633647 (Simulation time: 0 hr 33 min 41 sec) 
Heartbeat CPU 0 instructions: 57000003 cycles: 37321621 heartbeat IPC: 0.613576 cumulative IPC: 0.6307 (Simulation time: 0 hr 34 min 23 sec) 
Heartbeat CPU 0 instructions: 58000002 cycles: 38926470 heartbeat IPC: 0.623111 cumulative IPC: 0.629741 (Simulation time: 0 hr 35 min 8 sec) 
Heartbeat CPU 0 instructions: 59000001 cycles: 40549270 heartbeat IPC: 0.616218 cumulative IPC: 0.628209 (Simulation time: 0 hr 35 min 48 sec) 
Heartbeat CPU 0 instructions: 60000000 cycles: 42157240 heartbeat IPC: 0.621902 cumulative IPC: 0.627573 (Simulation time: 0 hr 36 min 35 sec) 
Heartbeat CPU 0 instructions: 61000000 cycles: 43746374 heartbeat IPC: 0.629274 cumulative IPC: 0.627727 (Simulation time: 0 hr 37 min 21 sec) 
Heartbeat CPU 0 instructions: 62000003 cycles: 45329890 heartbeat IPC: 0.631508 cumulative IPC: 0.62804 (Simulation time: 0 hr 38 min 5 sec) 
Heartbeat CPU 0 instructions: 63000002 cycles: 46931909 heartbeat IPC: 0.624212 cumulative IPC: 0.627744 (Simulation time: 0 hr 38 min 46 sec) 
Heartbeat CPU 0 instructions: 64000000 cycles: 48555156 heartbeat IPC: 0.616048 cumulative IPC: 0.626894 (Simulation time: 0 hr 39 min 29 sec) 
Heartbeat CPU 0 instructions: 65000003 cycles: 50178660 heartbeat IPC: 0.615954 cumulative IPC: 0.626153 (Simulation time: 0 hr 40 min 13 sec) 
Heartbeat CPU 0 instructions: 66000001 cycles: 51814063 heartbeat IPC: 0.611469 cumulative IPC: 0.625214 (Simulation time: 0 hr 40 min 57 sec) 
Heartbeat CPU 0 instructions: 67000000 cycles: 53422244 heartbeat IPC: 0.62182 cumulative IPC: 0.625013 (Simulation time: 0 hr 41 min 44 sec) 
Heartbeat CPU 0 instructions: 68000000 cycles: 55044292 heartbeat IPC: 0.616505 cumulative IPC: 0.624535 (Simulation time: 0 hr 42 min 25 sec) 
Heartbeat CPU 0 instructions: 69000000 cycles: 56668685 heartbeat IPC: 0.615615 cumulative IPC: 0.624059 (Simulation time: 0 hr 43 min 6 sec) 
Heartbeat CPU 0 instructions: 70000003 cycles: 58252989 heartbeat IPC: 0.631194 cumulative IPC: 0.624412 (Simulation time: 0 hr 43 min 47 sec) 
Heartbeat CPU 0 instructions: 71000003 cycles: 59867600 heartbeat IPC: 0.619344 cumulative IPC: 0.624168 (Simulation time: 0 hr 44 min 29 sec) 
Heartbeat CPU 0 instructions: 72000000 cycles: 61458670 heartbeat IPC: 0.628506 cumulative IPC: 0.624364 (Simulation time: 0 hr 45 min 12 sec) 
Heartbeat CPU 0 instructions: 73000002 cycles: 63079891 heartbeat IPC: 0.61682 cumulative IPC: 0.624032 (Simulation time: 0 hr 45 min 54 sec) 
Heartbeat CPU 0 instructions: 74000000 cycles: 64706811 heartbeat IPC: 0.614657 cumulative IPC: 0.623636 (Simulation time: 0 hr 46 min 37 sec) 
Heartbeat CPU 0 instructions: 75000000 cycles: 66339716 heartbeat IPC: 0.612405 cumulative IPC: 0.623179 (Simulation time: 0 hr 47 min 19 sec) 
Heartbeat CPU 0 instructions: 76000000 cycles: 67927305 heartbeat IPC: 0.629886 cumulative IPC: 0.623434 (Simulation time: 0 hr 48 min 3 sec) 
Heartbeat CPU 0 instructions: 77000003 cycles: 69568447 heartbeat IPC: 0.609334 cumulative IPC: 0.6229 (Simulation time: 0 hr 48 min 46 sec) 
Heartbeat CPU 0 instructions: 78000001 cycles: 71173139 heartbeat IPC: 0.623171 cumulative IPC: 0.62291 (Simulation time: 0 hr 49 min 30 sec) 
Heartbeat CPU 0 instructions: 79000001 cycles: 72761249 heartbeat IPC: 0.629679 cumulative IPC: 0.623141 (Simulation time: 0 hr 50 min 12 sec) 
Heartbeat CPU 0 instructions: 80000000 cycles: 74358842 heartbeat IPC: 0.625941 cumulative IPC: 0.623234 (Simulation time: 0 hr 50 min 57 sec) 
Heartbeat CPU 0 instructions: 81000001 cycles: 75967933 heartbeat IPC: 0.621469 cumulative IPC: 0.623177 (Simulation time: 0 hr 51 min 41 sec) 
Heartbeat CPU 0 instructions: 82000000 cycles: 77572033 heartbeat IPC: 0.623402 cumulative IPC: 0.623184 (Simulation time: 0 hr 52 min 27 sec) 
Heartbeat CPU 0 instructions: 83000003 cycles: 79166986 heartbeat IPC: 0.62698 cumulative IPC: 0.623298 (Simulation time: 0 hr 53 min 11 sec) 
Heartbeat CPU 0 instructions: 84000000 cycles: 80753760 heartbeat IPC: 0.630208 cumulative IPC: 0.623499 (Simulation time: 0 hr 53 min 58 sec) 
Heartbeat CPU 0 instructions: 85000001 cycles: 82376875 heartbeat IPC: 0.6161 cumulative IPC: 0.623285 (Simulation time: 0 hr 54 min 42 sec) 
Heartbeat CPU 0 instructions: 86000000 cycles: 83994533 heartbeat IPC: 0.618177 cumulative IPC: 0.623142 (Simulation time: 0 hr 55 min 27 sec) 
Heartbeat CPU 0 instructions: 87000002 cycles: 85608377 heartbeat IPC: 0.61964 cumulative IPC: 0.623047 (Simulation time: 0 hr 56 min 13 sec) 
Heartbeat CPU 0 instructions: 88000000 cycles: 87235517 heartbeat IPC: 0.614574 cumulative IPC: 0.622821 (Simulation time: 0 hr 56 min 53 sec) 
Heartbeat CPU 0 instructions: 89000003 cycles: 88877208 heartbeat IPC: 0.60913 cumulative IPC: 0.622463 (Simulation time: 0 hr 57 min 35 sec) 
Heartbeat CPU 0 instructions: 90000000 cycles: 90515893 heartbeat IPC: 0.610244 cumulative IPC: 0.622151 (Simulation time: 0 hr 58 min 29 sec) 
Heartbeat CPU 0 instructions: 91000002 cycles: 92150115 heartbeat IPC: 0.611913 cumulative IPC: 0.621897 (Simulation time: 0 hr 59 min 13 sec) 
Heartbeat CPU 0 instructions: 92000000 cycles: 93763367 heartbeat IPC: 0.619865 cumulative IPC: 0.621849 (Simulation time: 0 hr 59 min 57 sec) 
Heartbeat CPU 0 instructions: 93000001 cycles: 95384783 heartbeat IPC: 0.616745 cumulative IPC: 0.621729 (Simulation time: 1 hr 0 min 40 sec) 
Heartbeat CPU 0 instructions: 94000003 cycles: 96988498 heartbeat IPC: 0.623553 cumulative IPC: 0.621771 (Simulation time: 1 hr 1 min 25 sec) 
Heartbeat CPU 0 instructions: 95000000 cycles: 98585168 heartbeat IPC: 0.626302 cumulative IPC: 0.62187 (Simulation time: 1 hr 2 min 4 sec) 
Heartbeat CPU 0 instructions: 96000000 cycles: 100196301 heartbeat IPC: 0.620681 cumulative IPC: 0.621845 (Simulation time: 1 hr 2 min 55 sec) 
Heartbeat CPU 0 instructions: 97000002 cycles: 101807493 heartbeat IPC: 0.62066 cumulative IPC: 0.621819 (Simulation time: 1 hr 3 min 42 sec) 
Heartbeat CPU 0 instructions: 98000000 cycles: 103434637 heartbeat IPC: 0.614573 cumulative IPC: 0.621667 (Simulation time: 1 hr 4 min 26 sec) 
Heartbeat CPU 0 instructions: 99000001 cycles: 105020457 heartbeat IPC: 0.630589 cumulative IPC: 0.621846 (Simulation time: 1 hr 5 min 12 sec) 
Heartbeat CPU 0 instructions: 100000000 cycles: 106647450 heartbeat IPC: 0.61463 cumulative IPC: 0.6217 (Simulation time: 1 hr 5 min 54 sec) 
Heartbeat CPU 0 instructions: 101000001 cycles: 108264528 heartbeat IPC: 0.6184 cumulative IPC: 0.621635 (Simulation time: 1 hr 6 min 38 sec) 
Heartbeat CPU 0 instructions: 102000000 cycles: 109886055 heartbeat IPC: 0.616702 cumulative IPC: 0.62154 (Simulation time: 1 hr 7 min 18 sec) 
Heartbeat CPU 0 instructions: 103000000 cycles: 111487453 heartbeat IPC: 0.624454 cumulative IPC: 0.621594 (Simulation time: 1 hr 7 min 59 sec) 
Heartbeat CPU 0 instructions: 104000000 cycles: 113111658 heartbeat IPC: 0.615686 cumulative IPC: 0.621484 (Simulation time: 1 hr 8 min 39 sec) 
Heartbeat CPU 0 instructions: 105000000 cycles: 114745634 heartbeat IPC: 0.612004 cumulative IPC: 0.621309 (Simulation time: 1 hr 9 min 21 sec) 
Heartbeat CPU 0 instructions: 106000001 cycles: 116365744 heartbeat IPC: 0.617243 cumulative IPC: 0.621236 (Simulation time: 1 hr 9 min 59 sec) 
Heartbeat CPU 0 instructions: 107000001 cycles: 117985164 heartbeat IPC: 0.617505 cumulative IPC: 0.62117 (Simulation time: 1 hr 10 min 37 sec) 
Heartbeat CPU 0 instructions: 108000000 cycles: 119608010 heartbeat IPC: 0.616201 cumulative IPC: 0.621084 (Simulation time: 1 hr 11 min 12 sec) 
Heartbeat CPU 0 instructions: 109000003 cycles: 121191038 heartbeat IPC: 0.631703 cumulative IPC: 0.621261 (Simulation time: 1 hr 11 min 48 sec) 
Heartbeat CPU 0 instructions: 110000002 cycles: 122804994 heartbeat IPC: 0.619595 cumulative IPC: 0.621233 (Simulation time: 1 hr 12 min 27 sec) 
Heartbeat CPU 0 instructions: 111000000 cycles: 124394300 heartbeat IPC: 0.629204 cumulative IPC: 0.621362 (Simulation time: 1 hr 13 min 2 sec) 
Heartbeat CPU 0 instructions: 112000000 cycles: 125998202 heartbeat IPC: 0.623479 cumulative IPC: 0.621396 (Simulation time: 1 hr 13 min 37 sec) 
Heartbeat CPU 0 instructions: 113000000 cycles: 127584241 heartbeat IPC: 0.630502 cumulative IPC: 0.621538 (Simulation time: 1 hr 14 min 13 sec) 
Heartbeat CPU 0 instructions: 114000000 cycles: 129174047 heartbeat IPC: 0.629008 cumulative IPC: 0.621654 (Simulation time: 1 hr 14 min 46 sec) 
Heartbeat CPU 0 instructions: 115000001 cycles: 130791768 heartbeat IPC: 0.618154 cumulative IPC: 0.621599 (Simulation time: 1 hr 15 min 16 sec) 
Heartbeat CPU 0 instructions: 116000000 cycles: 132379559 heartbeat IPC: 0.629805 cumulative IPC: 0.621722 (Simulation time: 1 hr 15 min 47 sec) 
Heartbeat CPU 0 instructions: 117000002 cycles: 133984437 heartbeat IPC: 0.623102 cumulative IPC: 0.621743 (Simulation time: 1 hr 16 min 16 sec) 
Heartbeat CPU 0 instructions: 118000003 cycles: 135594556 heartbeat IPC: 0.621073 cumulative IPC: 0.621733 (Simulation time: 1 hr 16 min 44 sec) 
Heartbeat CPU 0 instructions: 119000001 cycles: 137207843 heartbeat IPC: 0.619851 cumulative IPC: 0.621706 (Simulation time: 1 hr 17 min 12 sec) 
Heartbeat CPU 0 instructions: 120000000 cycles: 138849718 heartbeat IPC: 0.609059 cumulative IPC: 0.621521 (Simulation time: 1 hr 17 min 38 sec) 
Heartbeat CPU 0 instructions: 121000000 cycles: 140436019 heartbeat IPC: 0.630397 cumulative IPC: 0.621644 (Simulation time: 1 hr 18 min 4 sec) 
Heartbeat CPU 0 instructions: 122000002 cycles: 142046565 heartbeat IPC: 0.620909 cumulative IPC: 0.621634 (Simulation time: 1 hr 18 min 29 sec) 
Heartbeat CPU 0 instructions: 123000000 cycles: 143683033 heartbeat IPC: 0.611071 cumulative IPC: 0.621487 (Simulation time: 1 hr 18 min 55 sec) 
Heartbeat CPU 0 instructions: 124000000 cycles: 145289306 heartbeat IPC: 0.622559 cumulative IPC: 0.621502 (Simulation time: 1 hr 19 min 20 sec) 
Heartbeat CPU 0 instructions: 125000000 cycles: 146884062 heartbeat IPC: 0.627055 cumulative IPC: 0.621575 (Simulation time: 1 hr 19 min 46 sec) 
Heartbeat CPU 0 instructions: 126000000 cycles: 148475754 heartbeat IPC: 0.628262 cumulative IPC: 0.621662 (Simulation time: 1 hr 20 min 11 sec) 
Heartbeat CPU 0 instructions: 127000003 cycles: 150103906 heartbeat IPC: 0.614195 cumulative IPC: 0.621564 (Simulation time: 1 hr 20 min 35 sec) 
Heartbeat CPU 0 instructions: 128000000 cycles: 151729935 heartbeat IPC: 0.614993 cumulative IPC: 0.621479 (Simulation time: 1 hr 20 min 58 sec) 
Heartbeat CPU 0 instructions: 129000002 cycles: 153303390 heartbeat IPC: 0.635545 cumulative IPC: 0.621653 (Simulation time: 1 hr 21 min 21 sec) 
Heartbeat CPU 0 instructions: 130000000 cycles: 154918047 heartbeat IPC: 0.619325 cumulative IPC: 0.621624 (Simulation time: 1 hr 21 min 45 sec) 
Heartbeat CPU 0 instructions: 131000001 cycles: 156493180 heartbeat IPC: 0.634868 cumulative IPC: 0.621784 (Simulation time: 1 hr 22 min 7 sec) 
Heartbeat CPU 0 instructions: 132000000 cycles: 158112759 heartbeat IPC: 0.617444 cumulative IPC: 0.621731 (Simulation time: 1 hr 22 min 30 sec) 
Heartbeat CPU 0 instructions: 133000001 cycles: 159743123 heartbeat IPC: 0.613361 cumulative IPC: 0.621628 (Simulation time: 1 hr 22 min 53 sec) 
Heartbeat CPU 0 instructions: 134000003 cycles: 161370145 heartbeat IPC: 0.614621 cumulative IPC: 0.621544 (Simulation time: 1 hr 23 min 15 sec) 
Heartbeat CPU 0 instructions: 135000002 cycles: 162981256 heartbeat IPC: 0.620689 cumulative IPC: 0.621534 (Simulation time: 1 hr 23 min 36 sec) 
Heartbeat CPU 0 instructions: 136000000 cycles: 164582716 heartbeat IPC: 0.624429 cumulative IPC: 0.621567 (Simulation time: 1 hr 23 min 55 sec) 
Heartbeat CPU 0 instructions: 137000001 cycles: 166207044 heartbeat IPC: 0.61564 cumulative IPC: 0.621499 (Simulation time: 1 hr 24 min 13 sec) 
Heartbeat CPU 0 instructions: 138000002 cycles: 167805220 heartbeat IPC: 0.625714 cumulative IPC: 0.621546 (Simulation time: 1 hr 24 min 29 sec) 
Heartbeat CPU 0 instructions: 139000000 cycles: 169407249 heartbeat IPC: 0.624207 cumulative IPC: 0.621576 (Simulation time: 1 hr 24 min 45 sec) 
Heartbeat CPU 0 instructions: 140000000 cycles: 171024456 heartbeat IPC: 0.61835 cumulative IPC: 0.62154 (Simulation time: 1 hr 25 min 1 sec) 
Heartbeat CPU 0 instructions: 141000003 cycles: 172609666 heartbeat IPC: 0.630833 cumulative IPC: 0.621641 (Simulation time: 1 hr 25 min 18 sec) 
Heartbeat CPU 0 instructions: 142000001 cycles: 174219286 heartbeat IPC: 0.621263 cumulative IPC: 0.621637 (Simulation time: 1 hr 25 min 33 sec) 
Heartbeat CPU 0 instructions: 143000001 cycles: 175810360 heartbeat IPC: 0.628506 cumulative IPC: 0.62171 (Simulation time: 1 hr 25 min 48 sec) 
Heartbeat CPU 0 instructions: 144000000 cycles: 177399149 heartbeat IPC: 0.62941 cumulative IPC: 0.621791 (Simulation time: 1 hr 26 min 2 sec) 
Heartbeat CPU 0 instructions: 145000003 cycles: 179000112 heartbeat IPC: 0.624626 cumulative IPC: 0.62182 (Simulation time: 1 hr 26 min 16 sec) 
Heartbeat CPU 0 instructions: 146000000 cycles: 180591235 heartbeat IPC: 0.628485 cumulative IPC: 0.621889 (Simulation time: 1 hr 26 min 29 sec) 
Heartbeat CPU 0 instructions: 147000002 cycles: 182231888 heartbeat IPC: 0.609515 cumulative IPC: 0.621759 (Simulation time: 1 hr 26 min 42 sec) 
Heartbeat CPU 0 instructions: 148000000 cycles: 183833854 heartbeat IPC: 0.624232 cumulative IPC: 0.621784 (Simulation time: 1 hr 26 min 56 sec) 
Heartbeat CPU 0 instructions: 149000002 cycles: 185448230 heartbeat IPC: 0.619436 cumulative IPC: 0.62176 (Simulation time: 1 hr 27 min 8 sec) 
Heartbeat CPU 0 instructions: 150000001 cycles: 187083123 heartbeat IPC: 0.61166 cumulative IPC: 0.621657 (Simulation time: 1 hr 27 min 20 sec) 
Finished CPU 0 instructions: 100000000 cycles: 160860290 cummulative IPC: 0.621657 (Simulation time: 1 hr 27 min 20 sec) 

ChampSim completed all CPUs

Region of Interest Statistics

CPU 0 cummulative IPC: 0.621657 instructions: 100000000 cycles: 160860290
LLC TOTAL     ACCESS:    5406456  HIT:     236960  MISS:    5169496
LLC LOAD      ACCESS:     223261  HIT:      58059  MISS:     165202
LLC RFO       ACCESS:          0  HIT:          0  MISS:          0
LLC PREFETCH  ACCESS:    3748155  HIT:      30367  MISS:    3717788
LLC WRITEBACK ACCESS:    1435040  HIT:     148534  MISS:    1286506
OPTgen accesses: 11254
OPTgen hits: 3571
OPTgen hit rate: 31.7309


