
*** ChampSim Multicore Out-of-Order Simulator ***

Warmup Instructions: 50000000
Simulation Instructions: 100000000
Configuration: 2
Number of CPUs: 1
LLC sets: 2048
LLC ways: 16
Off-chip DRAM Channels: 1 Width: 64-bit Data Rate: 1600 MT/s

CPU 0 runs /datasets/cs240c-wi22-a00-public/data/Assignment2-gz/leslie3d_1186B.trace.gz
CPU 0 L1D next line prefetcher
CPU 0 L2C IP-based stride prefetcher
Initialize Hawkeye state
Heartbeat CPU 0 instructions: 1000002 cycles: 564509 heartbeat IPC: 1.77145 cumulative IPC: 1.77145 (Simulation time: 0 hr 0 min 41 sec) 
Heartbeat CPU 0 instructions: 2000000 cycles: 1215807 heartbeat IPC: 1.53539 cumulative IPC: 1.645 (Simulation time: 0 hr 1 min 34 sec) 
Heartbeat CPU 0 instructions: 3000000 cycles: 1867535 heartbeat IPC: 1.53438 cumulative IPC: 1.6064 (Simulation time: 0 hr 2 min 19 sec) 
Heartbeat CPU 0 instructions: 4000000 cycles: 2473069 heartbeat IPC: 1.65143 cumulative IPC: 1.61742 (Simulation time: 0 hr 3 min 5 sec) 
Heartbeat CPU 0 instructions: 5000000 cycles: 3083388 heartbeat IPC: 1.63849 cumulative IPC: 1.62159 (Simulation time: 0 hr 3 min 47 sec) 
Heartbeat CPU 0 instructions: 6000000 cycles: 3735112 heartbeat IPC: 1.53439 cumulative IPC: 1.60638 (Simulation time: 0 hr 4 min 28 sec) 
Heartbeat CPU 0 instructions: 7000001 cycles: 4386347 heartbeat IPC: 1.53555 cumulative IPC: 1.59586 (Simulation time: 0 hr 5 min 9 sec) 
Heartbeat CPU 0 instructions: 8000000 cycles: 4950927 heartbeat IPC: 1.77123 cumulative IPC: 1.61586 (Simulation time: 0 hr 5 min 50 sec) 
Heartbeat CPU 0 instructions: 9000003 cycles: 5602214 heartbeat IPC: 1.53543 cumulative IPC: 1.60651 (Simulation time: 0 hr 6 min 27 sec) 
Heartbeat CPU 0 instructions: 10000001 cycles: 6253377 heartbeat IPC: 1.53571 cumulative IPC: 1.59914 (Simulation time: 0 hr 7 min 5 sec) 
Heartbeat CPU 0 instructions: 11000000 cycles: 6820163 heartbeat IPC: 1.76433 cumulative IPC: 1.61286 (Simulation time: 0 hr 7 min 47 sec) 
Heartbeat CPU 0 instructions: 12000000 cycles: 7469254 heartbeat IPC: 1.54062 cumulative IPC: 1.60659 (Simulation time: 0 hr 8 min 30 sec) 
Heartbeat CPU 0 instructions: 13000002 cycles: 8120737 heartbeat IPC: 1.53496 cumulative IPC: 1.60084 (Simulation time: 0 hr 9 min 10 sec) 
Heartbeat CPU 0 instructions: 14000000 cycles: 8755164 heartbeat IPC: 1.57622 cumulative IPC: 1.59906 (Simulation time: 0 hr 9 min 52 sec) 
Heartbeat CPU 0 instructions: 15000000 cycles: 9336249 heartbeat IPC: 1.72092 cumulative IPC: 1.60664 (Simulation time: 0 hr 10 min 29 sec) 
Heartbeat CPU 0 instructions: 16000000 cycles: 9987812 heartbeat IPC: 1.53477 cumulative IPC: 1.60195 (Simulation time: 0 hr 11 min 7 sec) 
Heartbeat CPU 0 instructions: 17000000 cycles: 10638875 heartbeat IPC: 1.53595 cumulative IPC: 1.59791 (Simulation time: 0 hr 11 min 48 sec) 
Heartbeat CPU 0 instructions: 18000003 cycles: 11203351 heartbeat IPC: 1.77156 cumulative IPC: 1.60666 (Simulation time: 0 hr 12 min 23 sec) 
Heartbeat CPU 0 instructions: 19000003 cycles: 11854631 heartbeat IPC: 1.53544 cumulative IPC: 1.60275 (Simulation time: 0 hr 13 min 2 sec) 
Heartbeat CPU 0 instructions: 20000000 cycles: 12505797 heartbeat IPC: 1.5357 cumulative IPC: 1.59926 (Simulation time: 0 hr 13 min 43 sec) 
Heartbeat CPU 0 instructions: 21000001 cycles: 13101436 heartbeat IPC: 1.67887 cumulative IPC: 1.60288 (Simulation time: 0 hr 14 min 23 sec) 
Heartbeat CPU 0 instructions: 22000003 cycles: 13721417 heartbeat IPC: 1.61296 cumulative IPC: 1.60333 (Simulation time: 0 hr 15 min 0 sec) 
Heartbeat CPU 0 instructions: 23000001 cycles: 14372579 heartbeat IPC: 1.53571 cumulative IPC: 1.60027 (Simulation time: 0 hr 15 min 39 sec) 
Heartbeat CPU 0 instructions: 24000000 cycles: 15024215 heartbeat IPC: 1.5346 cumulative IPC: 1.59742 (Simulation time: 0 hr 16 min 18 sec) 
Heartbeat CPU 0 instructions: 25000000 cycles: 15588272 heartbeat IPC: 1.77287 cumulative IPC: 1.60377 (Simulation time: 0 hr 16 min 55 sec) 
Heartbeat CPU 0 instructions: 26000003 cycles: 16240249 heartbeat IPC: 1.5338 cumulative IPC: 1.60096 (Simulation time: 0 hr 17 min 33 sec) 
Heartbeat CPU 0 instructions: 27000000 cycles: 16891880 heartbeat IPC: 1.53461 cumulative IPC: 1.5984 (Simulation time: 0 hr 18 min 10 sec) 
Heartbeat CPU 0 instructions: 28000000 cycles: 17456015 heartbeat IPC: 1.77263 cumulative IPC: 1.60403 (Simulation time: 0 hr 18 min 46 sec) 
Heartbeat CPU 0 instructions: 29000002 cycles: 18107457 heartbeat IPC: 1.53506 cumulative IPC: 1.60155 (Simulation time: 0 hr 19 min 30 sec) 
Heartbeat CPU 0 instructions: 30000002 cycles: 18758805 heartbeat IPC: 1.53528 cumulative IPC: 1.59925 (Simulation time: 0 hr 20 min 13 sec) 
Heartbeat CPU 0 instructions: 31000002 cycles: 19382856 heartbeat IPC: 1.60243 cumulative IPC: 1.59935 (Simulation time: 0 hr 20 min 53 sec) 
Heartbeat CPU 0 instructions: 32000000 cycles: 19974329 heartbeat IPC: 1.69069 cumulative IPC: 1.60206 (Simulation time: 0 hr 21 min 31 sec) 
Heartbeat CPU 0 instructions: 33000000 cycles: 20625885 heartbeat IPC: 1.53479 cumulative IPC: 1.59993 (Simulation time: 0 hr 22 min 16 sec) 
Heartbeat CPU 0 instructions: 34000000 cycles: 21277918 heartbeat IPC: 1.53366 cumulative IPC: 1.5979 (Simulation time: 0 hr 22 min 54 sec) 
Heartbeat CPU 0 instructions: 35000000 cycles: 21842160 heartbeat IPC: 1.77229 cumulative IPC: 1.60241 (Simulation time: 0 hr 23 min 32 sec) 
Heartbeat CPU 0 instructions: 36000000 cycles: 22493727 heartbeat IPC: 1.53476 cumulative IPC: 1.60045 (Simulation time: 0 hr 24 min 11 sec) 
Heartbeat CPU 0 instructions: 37000003 cycles: 23145444 heartbeat IPC: 1.53441 cumulative IPC: 1.59859 (Simulation time: 0 hr 24 min 50 sec) 
Heartbeat CPU 0 instructions: 38000002 cycles: 23731124 heartbeat IPC: 1.70742 cumulative IPC: 1.60127 (Simulation time: 0 hr 25 min 26 sec) 
Heartbeat CPU 0 instructions: 39000000 cycles: 24361331 heartbeat IPC: 1.58678 cumulative IPC: 1.6009 (Simulation time: 0 hr 26 min 3 sec) 
Heartbeat CPU 0 instructions: 40000000 cycles: 25013139 heartbeat IPC: 1.53419 cumulative IPC: 1.59916 (Simulation time: 0 hr 26 min 42 sec) 
Heartbeat CPU 0 instructions: 41000000 cycles: 25664116 heartbeat IPC: 1.53615 cumulative IPC: 1.59756 (Simulation time: 0 hr 27 min 21 sec) 
Heartbeat CPU 0 instructions: 42000000 cycles: 26228938 heartbeat IPC: 1.77047 cumulative IPC: 1.60128 (Simulation time: 0 hr 28 min 0 sec) 
Heartbeat CPU 0 instructions: 43000002 cycles: 26880050 heartbeat IPC: 1.53584 cumulative IPC: 1.5997 (Simulation time: 0 hr 28 min 40 sec) 
Heartbeat CPU 0 instructions: 44000000 cycles: 27531619 heartbeat IPC: 1.53475 cumulative IPC: 1.59816 (Simulation time: 0 hr 29 min 18 sec) 
Heartbeat CPU 0 instructions: 45000001 cycles: 28090746 heartbeat IPC: 1.7885 cumulative IPC: 1.60195 (Simulation time: 0 hr 29 min 54 sec) 
Heartbeat CPU 0 instructions: 46000001 cycles: 28591488 heartbeat IPC: 1.99704 cumulative IPC: 1.60887 (Simulation time: 0 hr 30 min 32 sec) 
Heartbeat CPU 0 instructions: 47000001 cycles: 29092162 heartbeat IPC: 1.99731 cumulative IPC: 1.61556 (Simulation time: 0 hr 31 min 7 sec) 
Heartbeat CPU 0 instructions: 48000000 cycles: 29593017 heartbeat IPC: 1.99658 cumulative IPC: 1.622 (Simulation time: 0 hr 31 min 40 sec) 
Heartbeat CPU 0 instructions: 49000002 cycles: 30093403 heartbeat IPC: 1.99846 cumulative IPC: 1.62826 (Simulation time: 0 hr 32 min 15 sec) 
Heartbeat CPU 0 instructions: 50000001 cycles: 30594330 heartbeat IPC: 1.9963 cumulative IPC: 1.63429 (Simulation time: 0 hr 32 min 50 sec) 

Warmup complete CPU 0 instructions: 50000001 cycles: 30594330 (Simulation time: 0 hr 32 min 50 sec) 

Heartbeat CPU 0 instructions: 51000000 cycles: 32235732 heartbeat IPC: 0.609235 cumulative IPC: 0.609235 (Simulation time: 0 hr 33 min 29 sec) 
Heartbeat CPU 0 instructions: 52000000 cycles: 33789425 heartbeat IPC: 0.643628 cumulative IPC: 0.625959 (Simulation time: 0 hr 34 min 7 sec) 
Heartbeat CPU 0 instructions: 53000003 cycles: 35435167 heartbeat IPC: 0.60763 cumulative IPC: 0.619728 (Simulation time: 0 hr 34 min 44 sec) 
Heartbeat CPU 0 instructions: 54000003 cycles: 36993970 heartbeat IPC: 0.641518 cumulative IPC: 0.625035 (Simulation time: 0 hr 35 min 24 sec) 
Heartbeat CPU 0 instructions: 55000001 cycles: 38856531 heartbeat IPC: 0.536894 cumulative IPC: 0.605166 (Simulation time: 0 hr 36 min 4 sec) 
Heartbeat CPU 0 instructions: 56000000 cycles: 41246409 heartbeat IPC: 0.418431 cumulative IPC: 0.56327 (Simulation time: 0 hr 36 min 50 sec) 
Heartbeat CPU 0 instructions: 57000003 cycles: 43563037 heartbeat IPC: 0.431663 cumulative IPC: 0.539761 (Simulation time: 0 hr 37 min 36 sec) 
Heartbeat CPU 0 instructions: 58000001 cycles: 45932030 heartbeat IPC: 0.422119 cumulative IPC: 0.521591 (Simulation time: 0 hr 38 min 16 sec) 
Heartbeat CPU 0 instructions: 59000003 cycles: 48242918 heartbeat IPC: 0.432735 cumulative IPC: 0.509956 (Simulation time: 0 hr 39 min 2 sec) 
Heartbeat CPU 0 instructions: 60000000 cycles: 50594455 heartbeat IPC: 0.425252 cumulative IPC: 0.499997 (Simulation time: 0 hr 39 min 52 sec) 
Heartbeat CPU 0 instructions: 61000003 cycles: 52937761 heartbeat IPC: 0.426749 cumulative IPC: 0.492315 (Simulation time: 0 hr 40 min 47 sec) 
Heartbeat CPU 0 instructions: 62000001 cycles: 55272944 heartbeat IPC: 0.428231 cumulative IPC: 0.486251 (Simulation time: 0 hr 41 min 37 sec) 
Heartbeat CPU 0 instructions: 63000000 cycles: 57254600 heartbeat IPC: 0.504628 cumulative IPC: 0.487617 (Simulation time: 0 hr 42 min 26 sec) 
Heartbeat CPU 0 instructions: 64000000 cycles: 58494668 heartbeat IPC: 0.806407 cumulative IPC: 0.501786 (Simulation time: 0 hr 43 min 12 sec) 
Heartbeat CPU 0 instructions: 65000000 cycles: 59756098 heartbeat IPC: 0.792751 cumulative IPC: 0.514372 (Simulation time: 0 hr 43 min 51 sec) 
Heartbeat CPU 0 instructions: 66000002 cycles: 61003598 heartbeat IPC: 0.801605 cumulative IPC: 0.526155 (Simulation time: 0 hr 44 min 30 sec) 
Heartbeat CPU 0 instructions: 67000001 cycles: 62246155 heartbeat IPC: 0.804791 cumulative IPC: 0.537094 (Simulation time: 0 hr 45 min 13 sec) 
Heartbeat CPU 0 instructions: 68000000 cycles: 63559672 heartbeat IPC: 0.761314 cumulative IPC: 0.546028 (Simulation time: 0 hr 45 min 51 sec) 
Heartbeat CPU 0 instructions: 69000000 cycles: 64802643 heartbeat IPC: 0.804524 cumulative IPC: 0.555421 (Simulation time: 0 hr 46 min 32 sec) 
Heartbeat CPU 0 instructions: 70000000 cycles: 66088559 heartbeat IPC: 0.777656 cumulative IPC: 0.563472 (Simulation time: 0 hr 47 min 11 sec) 
Heartbeat CPU 0 instructions: 71000003 cycles: 67332688 heartbeat IPC: 0.803778 cumulative IPC: 0.57161 (Simulation time: 0 hr 47 min 51 sec) 
Heartbeat CPU 0 instructions: 72000000 cycles: 68605741 heartbeat IPC: 0.785511 cumulative IPC: 0.578774 (Simulation time: 0 hr 48 min 36 sec) 
Heartbeat CPU 0 instructions: 73000000 cycles: 69877732 heartbeat IPC: 0.786169 cumulative IPC: 0.585489 (Simulation time: 0 hr 49 min 16 sec) 
Heartbeat CPU 0 instructions: 74000000 cycles: 71119474 heartbeat IPC: 0.80532 cumulative IPC: 0.592225 (Simulation time: 0 hr 50 min 0 sec) 
Heartbeat CPU 0 instructions: 75000003 cycles: 72410735 heartbeat IPC: 0.774439 cumulative IPC: 0.597852 (Simulation time: 0 hr 50 min 48 sec) 
Heartbeat CPU 0 instructions: 76000000 cycles: 73660332 heartbeat IPC: 0.800256 cumulative IPC: 0.603724 (Simulation time: 0 hr 51 min 33 sec) 
Heartbeat CPU 0 instructions: 77000000 cycles: 74949152 heartbeat IPC: 0.775904 cumulative IPC: 0.608727 (Simulation time: 0 hr 52 min 10 sec) 
Heartbeat CPU 0 instructions: 78000001 cycles: 76215545 heartbeat IPC: 0.789645 cumulative IPC: 0.61375 (Simulation time: 0 hr 52 min 54 sec) 
Heartbeat CPU 0 instructions: 79000001 cycles: 77504349 heartbeat IPC: 0.775913 cumulative IPC: 0.618205 (Simulation time: 0 hr 53 min 38 sec) 
Heartbeat CPU 0 instructions: 80000000 cycles: 78786639 heartbeat IPC: 0.779854 cumulative IPC: 0.622506 (Simulation time: 0 hr 54 min 21 sec) 
Heartbeat CPU 0 instructions: 81000000 cycles: 80033689 heartbeat IPC: 0.801892 cumulative IPC: 0.627031 (Simulation time: 0 hr 55 min 0 sec) 
Heartbeat CPU 0 instructions: 82000003 cycles: 81324096 heartbeat IPC: 0.774952 cumulative IPC: 0.630793 (Simulation time: 0 hr 55 min 41 sec) 
Heartbeat CPU 0 instructions: 83000001 cycles: 82584270 heartbeat IPC: 0.79354 cumulative IPC: 0.634738 (Simulation time: 0 hr 56 min 24 sec) 
Heartbeat CPU 0 instructions: 84000000 cycles: 83868049 heartbeat IPC: 0.778949 cumulative IPC: 0.638213 (Simulation time: 0 hr 57 min 5 sec) 
Heartbeat CPU 0 instructions: 85000001 cycles: 85126100 heartbeat IPC: 0.794881 cumulative IPC: 0.641828 (Simulation time: 0 hr 57 min 46 sec) 
Heartbeat CPU 0 instructions: 86000003 cycles: 86405703 heartbeat IPC: 0.781494 cumulative IPC: 0.64503 (Simulation time: 0 hr 58 min 26 sec) 
Heartbeat CPU 0 instructions: 87000001 cycles: 87661500 heartbeat IPC: 0.796305 cumulative IPC: 0.648359 (Simulation time: 0 hr 59 min 9 sec) 
Heartbeat CPU 0 instructions: 88000000 cycles: 88928086 heartbeat IPC: 0.789523 cumulative IPC: 0.651424 (Simulation time: 0 hr 59 min 50 sec) 
Heartbeat CPU 0 instructions: 89000001 cycles: 90221200 heartbeat IPC: 0.773328 cumulative IPC: 0.654068 (Simulation time: 1 hr 0 min 33 sec) 
Heartbeat CPU 0 instructions: 90000002 cycles: 91490402 heartbeat IPC: 0.787897 cumulative IPC: 0.656857 (Simulation time: 1 hr 1 min 12 sec) 
Heartbeat CPU 0 instructions: 91000000 cycles: 92790606 heartbeat IPC: 0.769109 cumulative IPC: 0.659203 (Simulation time: 1 hr 1 min 53 sec) 
Heartbeat CPU 0 instructions: 92000000 cycles: 94048698 heartbeat IPC: 0.794854 cumulative IPC: 0.661893 (Simulation time: 1 hr 2 min 35 sec) 
Heartbeat CPU 0 instructions: 93000002 cycles: 95353593 heartbeat IPC: 0.766347 cumulative IPC: 0.663998 (Simulation time: 1 hr 3 min 19 sec) 
Heartbeat CPU 0 instructions: 94000000 cycles: 96598250 heartbeat IPC: 0.803433 cumulative IPC: 0.666627 (Simulation time: 1 hr 4 min 0 sec) 
Heartbeat CPU 0 instructions: 95000003 cycles: 97846124 heartbeat IPC: 0.801365 cumulative IPC: 0.669127 (Simulation time: 1 hr 4 min 39 sec) 
Heartbeat CPU 0 instructions: 96000000 cycles: 99131838 heartbeat IPC: 0.777776 cumulative IPC: 0.671165 (Simulation time: 1 hr 5 min 16 sec) 
Heartbeat CPU 0 instructions: 97000001 cycles: 100374692 heartbeat IPC: 0.804601 cumulative IPC: 0.673542 (Simulation time: 1 hr 6 min 2 sec) 
Heartbeat CPU 0 instructions: 98000002 cycles: 101675377 heartbeat IPC: 0.768826 cumulative IPC: 0.675286 (Simulation time: 1 hr 6 min 47 sec) 
Heartbeat CPU 0 instructions: 99000000 cycles: 102925162 heartbeat IPC: 0.800136 cumulative IPC: 0.677443 (Simulation time: 1 hr 7 min 31 sec) 
Heartbeat CPU 0 instructions: 100000000 cycles: 104221253 heartbeat IPC: 0.771551 cumulative IPC: 0.679099 (Simulation time: 1 hr 8 min 8 sec) 
Heartbeat CPU 0 instructions: 101000000 cycles: 105478132 heartbeat IPC: 0.795622 cumulative IPC: 0.681055 (Simulation time: 1 hr 8 min 42 sec) 
Heartbeat CPU 0 instructions: 102000001 cycles: 106733787 heartbeat IPC: 0.796398 cumulative IPC: 0.682957 (Simulation time: 1 hr 9 min 21 sec) 
Heartbeat CPU 0 instructions: 103000002 cycles: 108039965 heartbeat IPC: 0.765593 cumulative IPC: 0.684351 (Simulation time: 1 hr 9 min 55 sec) 
Heartbeat CPU 0 instructions: 104000000 cycles: 109286535 heartbeat IPC: 0.8022 cumulative IPC: 0.686218 (Simulation time: 1 hr 10 min 29 sec) 
Heartbeat CPU 0 instructions: 105000001 cycles: 110587212 heartbeat IPC: 0.768831 cumulative IPC: 0.687561 (Simulation time: 1 hr 11 min 4 sec) 
Heartbeat CPU 0 instructions: 106000002 cycles: 111839000 heartbeat IPC: 0.798858 cumulative IPC: 0.689276 (Simulation time: 1 hr 11 min 38 sec) 
Heartbeat CPU 0 instructions: 107000000 cycles: 113128241 heartbeat IPC: 0.775649 cumulative IPC: 0.690625 (Simulation time: 1 hr 12 min 11 sec) 
Heartbeat CPU 0 instructions: 108000000 cycles: 114385829 heartbeat IPC: 0.795173 cumulative IPC: 0.692194 (Simulation time: 1 hr 12 min 47 sec) 
Heartbeat CPU 0 instructions: 109000003 cycles: 115637591 heartbeat IPC: 0.798876 cumulative IPC: 0.693765 (Simulation time: 1 hr 13 min 19 sec) 
Heartbeat CPU 0 instructions: 110000001 cycles: 116937791 heartbeat IPC: 0.769111 cumulative IPC: 0.694899 (Simulation time: 1 hr 13 min 50 sec) 
Heartbeat CPU 0 instructions: 111000001 cycles: 118181266 heartbeat IPC: 0.804198 cumulative IPC: 0.696451 (Simulation time: 1 hr 14 min 22 sec) 
Heartbeat CPU 0 instructions: 112000000 cycles: 119507706 heartbeat IPC: 0.753897 cumulative IPC: 0.697308 (Simulation time: 1 hr 14 min 52 sec) 
Heartbeat CPU 0 instructions: 113000000 cycles: 121164945 heartbeat IPC: 0.603413 cumulative IPC: 0.69559 (Simulation time: 1 hr 15 min 21 sec) 
Heartbeat CPU 0 instructions: 114000000 cycles: 122786181 heartbeat IPC: 0.616813 cumulative IPC: 0.694205 (Simulation time: 1 hr 15 min 50 sec) 
Heartbeat CPU 0 instructions: 115000000 cycles: 124404598 heartbeat IPC: 0.617888 cumulative IPC: 0.692888 (Simulation time: 1 hr 16 min 20 sec) 
Heartbeat CPU 0 instructions: 116000000 cycles: 126026803 heartbeat IPC: 0.616445 cumulative IPC: 0.691588 (Simulation time: 1 hr 16 min 48 sec) 
Heartbeat CPU 0 instructions: 117000002 cycles: 127657937 heartbeat IPC: 0.613072 cumulative IPC: 0.690269 (Simulation time: 1 hr 17 min 12 sec) 
Heartbeat CPU 0 instructions: 118000000 cycles: 129285490 heartbeat IPC: 0.614418 cumulative IPC: 0.689018 (Simulation time: 1 hr 17 min 36 sec) 
Heartbeat CPU 0 instructions: 119000001 cycles: 130913106 heartbeat IPC: 0.614396 cumulative IPC: 0.687807 (Simulation time: 1 hr 17 min 59 sec) 
Heartbeat CPU 0 instructions: 120000000 cycles: 132567627 heartbeat IPC: 0.604404 cumulative IPC: 0.686454 (Simulation time: 1 hr 18 min 23 sec) 
Heartbeat CPU 0 instructions: 121000002 cycles: 134214017 heartbeat IPC: 0.607391 cumulative IPC: 0.685198 (Simulation time: 1 hr 18 min 45 sec) 
Heartbeat CPU 0 instructions: 122000000 cycles: 135888013 heartbeat IPC: 0.597372 cumulative IPC: 0.683802 (Simulation time: 1 hr 19 min 6 sec) 
Heartbeat CPU 0 instructions: 123000002 cycles: 137530837 heartbeat IPC: 0.608709 cumulative IPC: 0.682648 (Simulation time: 1 hr 19 min 28 sec) 
Heartbeat CPU 0 instructions: 124000000 cycles: 139185812 heartbeat IPC: 0.604237 cumulative IPC: 0.681453 (Simulation time: 1 hr 19 min 51 sec) 
Heartbeat CPU 0 instructions: 125000003 cycles: 140849872 heartbeat IPC: 0.600942 cumulative IPC: 0.680238 (Simulation time: 1 hr 20 min 12 sec) 
Heartbeat CPU 0 instructions: 126000000 cycles: 142490589 heartbeat IPC: 0.609488 cumulative IPC: 0.679201 (Simulation time: 1 hr 20 min 35 sec) 
Heartbeat CPU 0 instructions: 127000001 cycles: 144177935 heartbeat IPC: 0.592647 cumulative IPC: 0.677915 (Simulation time: 1 hr 20 min 57 sec) 
Heartbeat CPU 0 instructions: 128000000 cycles: 145828626 heartbeat IPC: 0.605806 cumulative IPC: 0.676882 (Simulation time: 1 hr 21 min 18 sec) 
Heartbeat CPU 0 instructions: 129000001 cycles: 147468678 heartbeat IPC: 0.609737 cumulative IPC: 0.67594 (Simulation time: 1 hr 21 min 39 sec) 
Heartbeat CPU 0 instructions: 130000003 cycles: 149145519 heartbeat IPC: 0.596361 cumulative IPC: 0.674814 (Simulation time: 1 hr 22 min 0 sec) 
Heartbeat CPU 0 instructions: 131000001 cycles: 154368681 heartbeat IPC: 0.191455 cumulative IPC: 0.654417 (Simulation time: 1 hr 22 min 38 sec) 
Heartbeat CPU 0 instructions: 132000000 cycles: 157285032 heartbeat IPC: 0.342894 cumulative IPC: 0.647246 (Simulation time: 1 hr 23 min 14 sec) 
Heartbeat CPU 0 instructions: 133000002 cycles: 159861970 heartbeat IPC: 0.388058 cumulative IPC: 0.642079 (Simulation time: 1 hr 23 min 42 sec) 
Heartbeat CPU 0 instructions: 134000000 cycles: 161184815 heartbeat IPC: 0.755945 cumulative IPC: 0.643232 (Simulation time: 1 hr 23 min 57 sec) 
Heartbeat CPU 0 instructions: 135000001 cycles: 162443688 heartbeat IPC: 0.794362 cumulative IPC: 0.644675 (Simulation time: 1 hr 24 min 10 sec) 
Heartbeat CPU 0 instructions: 136000000 cycles: 163795194 heartbeat IPC: 0.739915 cumulative IPC: 0.645641 (Simulation time: 1 hr 24 min 23 sec) 
Heartbeat CPU 0 instructions: 137000001 cycles: 165131047 heartbeat IPC: 0.748586 cumulative IPC: 0.646664 (Simulation time: 1 hr 24 min 37 sec) 
Heartbeat CPU 0 instructions: 138000003 cycles: 166651779 heartbeat IPC: 0.657579 cumulative IPC: 0.646786 (Simulation time: 1 hr 24 min 50 sec) 
Heartbeat CPU 0 instructions: 139000001 cycles: 168153841 heartbeat IPC: 0.66575 cumulative IPC: 0.646993 (Simulation time: 1 hr 25 min 3 sec) 
Heartbeat CPU 0 instructions: 140000000 cycles: 169661069 heartbeat IPC: 0.663469 cumulative IPC: 0.647171 (Simulation time: 1 hr 25 min 17 sec) 
Heartbeat CPU 0 instructions: 141000003 cycles: 171176025 heartbeat IPC: 0.660087 cumulative IPC: 0.64731 (Simulation time: 1 hr 25 min 30 sec) 
Heartbeat CPU 0 instructions: 142000003 cycles: 172720543 heartbeat IPC: 0.647451 cumulative IPC: 0.647312 (Simulation time: 1 hr 25 min 43 sec) 
Heartbeat CPU 0 instructions: 143000000 cycles: 174228611 heartbeat IPC: 0.663098 cumulative IPC: 0.647478 (Simulation time: 1 hr 25 min 56 sec) 
Heartbeat CPU 0 instructions: 144000000 cycles: 175738231 heartbeat IPC: 0.662418 cumulative IPC: 0.647633 (Simulation time: 1 hr 26 min 7 sec) 
Heartbeat CPU 0 instructions: 145000001 cycles: 177287520 heartbeat IPC: 0.645458 cumulative IPC: 0.64761 (Simulation time: 1 hr 26 min 18 sec) 
Heartbeat CPU 0 instructions: 146000003 cycles: 178807509 heartbeat IPC: 0.657901 cumulative IPC: 0.647716 (Simulation time: 1 hr 26 min 28 sec) 
Heartbeat CPU 0 instructions: 147000000 cycles: 180815827 heartbeat IPC: 0.497928 cumulative IPC: 0.645713 (Simulation time: 1 hr 26 min 41 sec) 
Heartbeat CPU 0 instructions: 148000000 cycles: 183259590 heartbeat IPC: 0.409205 cumulative IPC: 0.641927 (Simulation time: 1 hr 26 min 54 sec) 
Heartbeat CPU 0 instructions: 149000003 cycles: 185646795 heartbeat IPC: 0.418901 cumulative IPC: 0.638494 (Simulation time: 1 hr 27 min 6 sec) 
Heartbeat CPU 0 instructions: 150000001 cycles: 187971155 heartbeat IPC: 0.430225 cumulative IPC: 0.635418 (Simulation time: 1 hr 27 min 16 sec) 
Finished CPU 0 instructions: 100000000 cycles: 157376825 cummulative IPC: 0.635418 (Simulation time: 1 hr 27 min 16 sec) 

ChampSim completed all CPUs

Region of Interest Statistics

CPU 0 cummulative IPC: 0.635418 instructions: 100000000 cycles: 157376825
LLC TOTAL     ACCESS:    4659852  HIT:    1231314  MISS:    3428538
LLC LOAD      ACCESS:     475113  HIT:     128031  MISS:     347082
LLC RFO       ACCESS:     796660  HIT:      94368  MISS:     702292
LLC PREFETCH  ACCESS:    2243503  HIT:     524368  MISS:    1719135
LLC WRITEBACK ACCESS:    1144576  HIT:     484547  MISS:     660029
OPTgen accesses: 23833
OPTgen hits: 11410
OPTgen hit rate: 47.8748


