
*** ChampSim Multicore Out-of-Order Simulator ***

Warmup Instructions: 50000000
Simulation Instructions: 100000000
Configuration: 2
Number of CPUs: 1
LLC sets: 2048
LLC ways: 16
Off-chip DRAM Channels: 1 Width: 64-bit Data Rate: 1600 MT/s

CPU 0 runs /datasets/cs240c-wi22-a00-public/data/Assignment2-gz/mcf_46B.trace.gz
CPU 0 L1D next line prefetcher
CPU 0 L2C IP-based stride prefetcher
Initialize Hawkeye state
Heartbeat CPU 0 instructions: 1000002 cycles: 492244 heartbeat IPC: 2.03152 cumulative IPC: 2.03152 (Simulation time: 0 hr 0 min 39 sec) 
Heartbeat CPU 0 instructions: 2000002 cycles: 987690 heartbeat IPC: 2.01838 cumulative IPC: 2.02493 (Simulation time: 0 hr 1 min 25 sec) 
Heartbeat CPU 0 instructions: 3000003 cycles: 1514876 heartbeat IPC: 1.89687 cumulative IPC: 1.98036 (Simulation time: 0 hr 2 min 12 sec) 
Heartbeat CPU 0 instructions: 4000000 cycles: 2032868 heartbeat IPC: 1.93053 cumulative IPC: 1.96766 (Simulation time: 0 hr 3 min 2 sec) 
Heartbeat CPU 0 instructions: 5000000 cycles: 2526698 heartbeat IPC: 2.02499 cumulative IPC: 1.97887 (Simulation time: 0 hr 3 min 47 sec) 
Heartbeat CPU 0 instructions: 6000002 cycles: 3029990 heartbeat IPC: 1.98692 cumulative IPC: 1.98021 (Simulation time: 0 hr 4 min 29 sec) 
Heartbeat CPU 0 instructions: 7000001 cycles: 3575072 heartbeat IPC: 1.83458 cumulative IPC: 1.958 (Simulation time: 0 hr 5 min 12 sec) 
Heartbeat CPU 0 instructions: 8000000 cycles: 4065890 heartbeat IPC: 2.03741 cumulative IPC: 1.96759 (Simulation time: 0 hr 5 min 54 sec) 
Heartbeat CPU 0 instructions: 9000001 cycles: 4549490 heartbeat IPC: 2.06783 cumulative IPC: 1.97824 (Simulation time: 0 hr 6 min 38 sec) 
Heartbeat CPU 0 instructions: 10000001 cycles: 5084834 heartbeat IPC: 1.86796 cumulative IPC: 1.96663 (Simulation time: 0 hr 7 min 19 sec) 
Heartbeat CPU 0 instructions: 11000002 cycles: 5630391 heartbeat IPC: 1.83299 cumulative IPC: 1.95368 (Simulation time: 0 hr 8 min 1 sec) 
Heartbeat CPU 0 instructions: 12000000 cycles: 6109194 heartbeat IPC: 2.08854 cumulative IPC: 1.96425 (Simulation time: 0 hr 8 min 41 sec) 
Heartbeat CPU 0 instructions: 13000000 cycles: 6604326 heartbeat IPC: 2.01966 cumulative IPC: 1.96841 (Simulation time: 0 hr 9 min 23 sec) 
Heartbeat CPU 0 instructions: 14000003 cycles: 7149795 heartbeat IPC: 1.83329 cumulative IPC: 1.9581 (Simulation time: 0 hr 10 min 6 sec) 
Heartbeat CPU 0 instructions: 15000000 cycles: 7627061 heartbeat IPC: 2.09526 cumulative IPC: 1.96668 (Simulation time: 0 hr 10 min 42 sec) 
Heartbeat CPU 0 instructions: 16000000 cycles: 8104417 heartbeat IPC: 2.09487 cumulative IPC: 1.97423 (Simulation time: 0 hr 11 min 20 sec) 
Heartbeat CPU 0 instructions: 17000002 cycles: 8648944 heartbeat IPC: 1.83646 cumulative IPC: 1.96556 (Simulation time: 0 hr 12 min 0 sec) 
Heartbeat CPU 0 instructions: 18000000 cycles: 9136025 heartbeat IPC: 2.05304 cumulative IPC: 1.97022 (Simulation time: 0 hr 12 min 39 sec) 
Heartbeat CPU 0 instructions: 19000002 cycles: 9624524 heartbeat IPC: 2.04709 cumulative IPC: 1.97412 (Simulation time: 0 hr 13 min 16 sec) 
Heartbeat CPU 0 instructions: 20000000 cycles: 10201061 heartbeat IPC: 1.73449 cumulative IPC: 1.96058 (Simulation time: 0 hr 13 min 55 sec) 
Heartbeat CPU 0 instructions: 21000001 cycles: 10745273 heartbeat IPC: 1.83752 cumulative IPC: 1.95435 (Simulation time: 0 hr 14 min 36 sec) 
Heartbeat CPU 0 instructions: 22000002 cycles: 11224068 heartbeat IPC: 2.08858 cumulative IPC: 1.96007 (Simulation time: 0 hr 15 min 16 sec) 
Heartbeat CPU 0 instructions: 23000000 cycles: 11704049 heartbeat IPC: 2.08341 cumulative IPC: 1.96513 (Simulation time: 0 hr 15 min 56 sec) 
Heartbeat CPU 0 instructions: 24000000 cycles: 12235815 heartbeat IPC: 1.88053 cumulative IPC: 1.96145 (Simulation time: 0 hr 16 min 43 sec) 
Heartbeat CPU 0 instructions: 25000002 cycles: 12735749 heartbeat IPC: 2.00027 cumulative IPC: 1.96298 (Simulation time: 0 hr 17 min 22 sec) 
Heartbeat CPU 0 instructions: 26000000 cycles: 13216770 heartbeat IPC: 2.07891 cumulative IPC: 1.9672 (Simulation time: 0 hr 18 min 3 sec) 
Heartbeat CPU 0 instructions: 27000002 cycles: 13728916 heartbeat IPC: 1.95257 cumulative IPC: 1.96665 (Simulation time: 0 hr 18 min 43 sec) 
Heartbeat CPU 0 instructions: 28000000 cycles: 14244447 heartbeat IPC: 1.93974 cumulative IPC: 1.96568 (Simulation time: 0 hr 19 min 24 sec) 
Heartbeat CPU 0 instructions: 29000001 cycles: 14723166 heartbeat IPC: 2.08891 cumulative IPC: 1.96969 (Simulation time: 0 hr 20 min 0 sec) 
Heartbeat CPU 0 instructions: 30000000 cycles: 15219900 heartbeat IPC: 2.01315 cumulative IPC: 1.9711 (Simulation time: 0 hr 20 min 41 sec) 
Heartbeat CPU 0 instructions: 31000002 cycles: 15750770 heartbeat IPC: 1.8837 cumulative IPC: 1.96816 (Simulation time: 0 hr 21 min 21 sec) 
Heartbeat CPU 0 instructions: 32000000 cycles: 16230373 heartbeat IPC: 2.08505 cumulative IPC: 1.97161 (Simulation time: 0 hr 21 min 59 sec) 
Heartbeat CPU 0 instructions: 33000000 cycles: 16734537 heartbeat IPC: 1.98348 cumulative IPC: 1.97197 (Simulation time: 0 hr 22 min 35 sec) 
Heartbeat CPU 0 instructions: 34000000 cycles: 17277574 heartbeat IPC: 1.8415 cumulative IPC: 1.96787 (Simulation time: 0 hr 23 min 19 sec) 
Heartbeat CPU 0 instructions: 35000001 cycles: 17766385 heartbeat IPC: 2.04578 cumulative IPC: 1.97001 (Simulation time: 0 hr 24 min 0 sec) 
Heartbeat CPU 0 instructions: 36000000 cycles: 18272998 heartbeat IPC: 1.97389 cumulative IPC: 1.97012 (Simulation time: 0 hr 24 min 40 sec) 
Heartbeat CPU 0 instructions: 37000002 cycles: 18790222 heartbeat IPC: 1.9334 cumulative IPC: 1.96911 (Simulation time: 0 hr 25 min 22 sec) 
Heartbeat CPU 0 instructions: 38000001 cycles: 19304371 heartbeat IPC: 1.94496 cumulative IPC: 1.96847 (Simulation time: 0 hr 26 min 4 sec) 
Heartbeat CPU 0 instructions: 39000000 cycles: 19781757 heartbeat IPC: 2.09474 cumulative IPC: 1.97151 (Simulation time: 0 hr 26 min 41 sec) 
Heartbeat CPU 0 instructions: 40000000 cycles: 20271089 heartbeat IPC: 2.0436 cumulative IPC: 1.97325 (Simulation time: 0 hr 27 min 23 sec) 
Heartbeat CPU 0 instructions: 41000000 cycles: 20812789 heartbeat IPC: 1.84604 cumulative IPC: 1.96994 (Simulation time: 0 hr 28 min 5 sec) 
Heartbeat CPU 0 instructions: 42000001 cycles: 21296859 heartbeat IPC: 2.06582 cumulative IPC: 1.97212 (Simulation time: 0 hr 28 min 41 sec) 
Heartbeat CPU 0 instructions: 43000000 cycles: 21774558 heartbeat IPC: 2.09337 cumulative IPC: 1.97478 (Simulation time: 0 hr 29 min 21 sec) 
Heartbeat CPU 0 instructions: 44000000 cycles: 22304384 heartbeat IPC: 1.88741 cumulative IPC: 1.97271 (Simulation time: 0 hr 30 min 1 sec) 
Heartbeat CPU 0 instructions: 45000001 cycles: 22797487 heartbeat IPC: 2.02798 cumulative IPC: 1.9739 (Simulation time: 0 hr 30 min 41 sec) 
Heartbeat CPU 0 instructions: 46000001 cycles: 23277712 heartbeat IPC: 2.08236 cumulative IPC: 1.97614 (Simulation time: 0 hr 31 min 20 sec) 
Heartbeat CPU 0 instructions: 47000002 cycles: 23790833 heartbeat IPC: 1.94886 cumulative IPC: 1.97555 (Simulation time: 0 hr 32 min 0 sec) 
Heartbeat CPU 0 instructions: 48000000 cycles: 24311708 heartbeat IPC: 1.91984 cumulative IPC: 1.97436 (Simulation time: 0 hr 32 min 41 sec) 
Heartbeat CPU 0 instructions: 49000000 cycles: 24794887 heartbeat IPC: 2.06963 cumulative IPC: 1.97621 (Simulation time: 0 hr 33 min 19 sec) 
Heartbeat CPU 0 instructions: 50000000 cycles: 25286116 heartbeat IPC: 2.03571 cumulative IPC: 1.97737 (Simulation time: 0 hr 33 min 57 sec) 

Warmup complete CPU 0 instructions: 50000004 cycles: 25286117 (Simulation time: 0 hr 33 min 57 sec) 

Heartbeat CPU 0 instructions: 51000001 cycles: 39469254 heartbeat IPC: 0.0705063 cumulative IPC: 0.0705061 (Simulation time: 0 hr 35 min 14 sec) 
Heartbeat CPU 0 instructions: 52000000 cycles: 44063099 heartbeat IPC: 0.217682 cumulative IPC: 0.106513 (Simulation time: 0 hr 36 min 4 sec) 
Heartbeat CPU 0 instructions: 53000000 cycles: 48282241 heartbeat IPC: 0.237015 cumulative IPC: 0.130457 (Simulation time: 0 hr 36 min 50 sec) 
Heartbeat CPU 0 instructions: 54000002 cycles: 63123437 heartbeat IPC: 0.0673802 cumulative IPC: 0.105716 (Simulation time: 0 hr 38 min 13 sec) 
Heartbeat CPU 0 instructions: 55000002 cycles: 68348207 heartbeat IPC: 0.191396 cumulative IPC: 0.116111 (Simulation time: 0 hr 39 min 8 sec) 
Heartbeat CPU 0 instructions: 56000000 cycles: 72705401 heartbeat IPC: 0.229505 cumulative IPC: 0.126531 (Simulation time: 0 hr 40 min 1 sec) 
Heartbeat CPU 0 instructions: 57000000 cycles: 85799445 heartbeat IPC: 0.0763706 cumulative IPC: 0.115677 (Simulation time: 0 hr 41 min 9 sec) 
Heartbeat CPU 0 instructions: 58000000 cycles: 93224824 heartbeat IPC: 0.134673 cumulative IPC: 0.117753 (Simulation time: 0 hr 42 min 8 sec) 
Heartbeat CPU 0 instructions: 59000002 cycles: 97670399 heartbeat IPC: 0.224943 cumulative IPC: 0.124336 (Simulation time: 0 hr 42 min 58 sec) 
Heartbeat CPU 0 instructions: 60000000 cycles: 109008652 heartbeat IPC: 0.0881968 cumulative IPC: 0.119442 (Simulation time: 0 hr 44 min 3 sec) 
Heartbeat CPU 0 instructions: 61000002 cycles: 118057651 heartbeat IPC: 0.11051 cumulative IPC: 0.118571 (Simulation time: 0 hr 45 min 7 sec) 
Heartbeat CPU 0 instructions: 62000001 cycles: 122275712 heartbeat IPC: 0.237076 cumulative IPC: 0.123725 (Simulation time: 0 hr 45 min 54 sec) 
Heartbeat CPU 0 instructions: 63000001 cycles: 132355576 heartbeat IPC: 0.0992077 cumulative IPC: 0.121416 (Simulation time: 0 hr 47 min 1 sec) 
Heartbeat CPU 0 instructions: 64000000 cycles: 143567917 heartbeat IPC: 0.0891874 cumulative IPC: 0.118361 (Simulation time: 0 hr 48 min 15 sec) 
Heartbeat CPU 0 instructions: 65000002 cycles: 148823802 heartbeat IPC: 0.190263 cumulative IPC: 0.12142 (Simulation time: 0 hr 49 min 4 sec) 
Heartbeat CPU 0 instructions: 66000000 cycles: 155365926 heartbeat IPC: 0.152855 cumulative IPC: 0.123001 (Simulation time: 0 hr 49 min 55 sec) 
Heartbeat CPU 0 instructions: 67000002 cycles: 170574857 heartbeat IPC: 0.065751 cumulative IPC: 0.117008 (Simulation time: 0 hr 51 min 12 sec) 
Heartbeat CPU 0 instructions: 68000000 cycles: 175087186 heartbeat IPC: 0.221615 cumulative IPC: 0.120159 (Simulation time: 0 hr 52 min 3 sec) 
Heartbeat CPU 0 instructions: 69000000 cycles: 179181183 heartbeat IPC: 0.24426 cumulative IPC: 0.123461 (Simulation time: 0 hr 52 min 50 sec) 
Heartbeat CPU 0 instructions: 70000001 cycles: 193255361 heartbeat IPC: 0.0710522 cumulative IPC: 0.119069 (Simulation time: 0 hr 54 min 7 sec) 
Heartbeat CPU 0 instructions: 71000002 cycles: 201848312 heartbeat IPC: 0.116375 cumulative IPC: 0.118938 (Simulation time: 0 hr 55 min 5 sec) 
Heartbeat CPU 0 instructions: 72000000 cycles: 206756635 heartbeat IPC: 0.203735 cumulative IPC: 0.121232 (Simulation time: 0 hr 55 min 58 sec) 
Heartbeat CPU 0 instructions: 73000002 cycles: 215724143 heartbeat IPC: 0.111514 cumulative IPC: 0.120774 (Simulation time: 0 hr 56 min 56 sec) 
Heartbeat CPU 0 instructions: 74000001 cycles: 227062984 heartbeat IPC: 0.0881923 cumulative IPC: 0.118943 (Simulation time: 0 hr 58 min 8 sec) 
Heartbeat CPU 0 instructions: 75000002 cycles: 231610776 heartbeat IPC: 0.219887 cumulative IPC: 0.121168 (Simulation time: 0 hr 58 min 54 sec) 
Heartbeat CPU 0 instructions: 76000000 cycles: 237683328 heartbeat IPC: 0.164675 cumulative IPC: 0.122412 (Simulation time: 0 hr 59 min 49 sec) 
Heartbeat CPU 0 instructions: 77000001 cycles: 253793254 heartbeat IPC: 0.0620736 cumulative IPC: 0.118158 (Simulation time: 1 hr 1 min 13 sec) 
Heartbeat CPU 0 instructions: 78000002 cycles: 258683248 heartbeat IPC: 0.204499 cumulative IPC: 0.119967 (Simulation time: 1 hr 2 min 2 sec) 
Heartbeat CPU 0 instructions: 79000001 cycles: 263104641 heartbeat IPC: 0.226173 cumulative IPC: 0.121942 (Simulation time: 1 hr 2 min 52 sec) 
Heartbeat CPU 0 instructions: 80000000 cycles: 275818804 heartbeat IPC: 0.0786524 cumulative IPC: 0.119745 (Simulation time: 1 hr 4 min 10 sec) 
Heartbeat CPU 0 instructions: 81000000 cycles: 283128146 heartbeat IPC: 0.136811 cumulative IPC: 0.120229 (Simulation time: 1 hr 5 min 4 sec) 
Heartbeat CPU 0 instructions: 82000000 cycles: 287963945 heartbeat IPC: 0.206791 cumulative IPC: 0.121822 (Simulation time: 1 hr 5 min 50 sec) 
Heartbeat CPU 0 instructions: 83000001 cycles: 297781256 heartbeat IPC: 0.101861 cumulative IPC: 0.121103 (Simulation time: 1 hr 6 min 47 sec) 
Heartbeat CPU 0 instructions: 84000000 cycles: 308908904 heartbeat IPC: 0.0898662 cumulative IPC: 0.119878 (Simulation time: 1 hr 7 min 53 sec) 
Heartbeat CPU 0 instructions: 85000001 cycles: 313199785 heartbeat IPC: 0.233053 cumulative IPC: 0.121564 (Simulation time: 1 hr 8 min 37 sec) 
Heartbeat CPU 0 instructions: 86000000 cycles: 321309505 heartbeat IPC: 0.123309 cumulative IPC: 0.121612 (Simulation time: 1 hr 9 min 28 sec) 
Heartbeat CPU 0 instructions: 87000000 cycles: 335538626 heartbeat IPC: 0.0702784 cumulative IPC: 0.119258 (Simulation time: 1 hr 10 min 32 sec) 
Heartbeat CPU 0 instructions: 88000000 cycles: 341690058 heartbeat IPC: 0.162564 cumulative IPC: 0.1201 (Simulation time: 1 hr 11 min 20 sec) 
Heartbeat CPU 0 instructions: 89000000 cycles: 345904089 heartbeat IPC: 0.237302 cumulative IPC: 0.12164 (Simulation time: 1 hr 12 min 0 sec) 
Heartbeat CPU 0 instructions: 90000003 cycles: 357380023 heartbeat IPC: 0.0871391 cumulative IPC: 0.120448 (Simulation time: 1 hr 12 min 58 sec) 
Heartbeat CPU 0 instructions: 91000000 cycles: 365817550 heartbeat IPC: 0.118518 cumulative IPC: 0.1204 (Simulation time: 1 hr 13 min 50 sec) 
Heartbeat CPU 0 instructions: 92000000 cycles: 370070031 heartbeat IPC: 0.235157 cumulative IPC: 0.121815 (Simulation time: 1 hr 14 min 27 sec) 
Heartbeat CPU 0 instructions: 93000002 cycles: 379189155 heartbeat IPC: 0.10966 cumulative IPC: 0.121502 (Simulation time: 1 hr 15 min 12 sec) 
Heartbeat CPU 0 instructions: 94000002 cycles: 390845402 heartbeat IPC: 0.0857909 cumulative IPC: 0.120364 (Simulation time: 1 hr 16 min 1 sec) 
Heartbeat CPU 0 instructions: 95000000 cycles: 396603543 heartbeat IPC: 0.173667 cumulative IPC: 0.12119 (Simulation time: 1 hr 16 min 36 sec) 
Heartbeat CPU 0 instructions: 96000000 cycles: 402232286 heartbeat IPC: 0.17766 cumulative IPC: 0.122033 (Simulation time: 1 hr 17 min 10 sec) 
Heartbeat CPU 0 instructions: 97000000 cycles: 416918278 heartbeat IPC: 0.0680921 cumulative IPC: 0.120011 (Simulation time: 1 hr 17 min 58 sec) 
Heartbeat CPU 0 instructions: 98000002 cycles: 421632945 heartbeat IPC: 0.212104 cumulative IPC: 0.121106 (Simulation time: 1 hr 18 min 29 sec) 
Heartbeat CPU 0 instructions: 99000002 cycles: 426513393 heartbeat IPC: 0.204899 cumulative IPC: 0.122125 (Simulation time: 1 hr 18 min 57 sec) 
Heartbeat CPU 0 instructions: 100000000 cycles: 440075902 heartbeat IPC: 0.0737325 cumulative IPC: 0.120543 (Simulation time: 1 hr 19 min 38 sec) 
Heartbeat CPU 0 instructions: 101000000 cycles: 446757761 heartbeat IPC: 0.149659 cumulative IPC: 0.121005 (Simulation time: 1 hr 20 min 10 sec) 
Heartbeat CPU 0 instructions: 102000003 cycles: 451070131 heartbeat IPC: 0.231892 cumulative IPC: 0.122128 (Simulation time: 1 hr 20 min 36 sec) 
Heartbeat CPU 0 instructions: 103000003 cycles: 463074837 heartbeat IPC: 0.0833007 cumulative IPC: 0.121063 (Simulation time: 1 hr 21 min 12 sec) 
Heartbeat CPU 0 instructions: 104000000 cycles: 474508987 heartbeat IPC: 0.087457 cumulative IPC: 0.120208 (Simulation time: 1 hr 21 min 46 sec) 
Heartbeat CPU 0 instructions: 105000000 cycles: 479263782 heartbeat IPC: 0.210314 cumulative IPC: 0.121151 (Simulation time: 1 hr 22 min 13 sec) 
Heartbeat CPU 0 instructions: 106000000 cycles: 483438306 heartbeat IPC: 0.239548 cumulative IPC: 0.12223 (Simulation time: 1 hr 22 min 38 sec) 
Heartbeat CPU 0 instructions: 107000002 cycles: 498381002 heartbeat IPC: 0.0669225 cumulative IPC: 0.120483 (Simulation time: 1 hr 23 min 16 sec) 
Heartbeat CPU 0 instructions: 108000000 cycles: 503762613 heartbeat IPC: 0.185818 cumulative IPC: 0.121218 (Simulation time: 1 hr 23 min 40 sec) 
Heartbeat CPU 0 instructions: 109000001 cycles: 508140538 heartbeat IPC: 0.228419 cumulative IPC: 0.12219 (Simulation time: 1 hr 24 min 1 sec) 
Heartbeat CPU 0 instructions: 110000002 cycles: 517832637 heartbeat IPC: 0.103177 cumulative IPC: 0.121816 (Simulation time: 1 hr 24 min 26 sec) 
Heartbeat CPU 0 instructions: 111000003 cycles: 528433576 heartbeat IPC: 0.0943314 cumulative IPC: 0.121237 (Simulation time: 1 hr 24 min 52 sec) 
Heartbeat CPU 0 instructions: 112000000 cycles: 532509092 heartbeat IPC: 0.245367 cumulative IPC: 0.122234 (Simulation time: 1 hr 25 min 11 sec) 
Heartbeat CPU 0 instructions: 113000000 cycles: 539929760 heartbeat IPC: 0.134759 cumulative IPC: 0.122415 (Simulation time: 1 hr 25 min 33 sec) 
Heartbeat CPU 0 instructions: 114000000 cycles: 553377856 heartbeat IPC: 0.07436 cumulative IPC: 0.121191 (Simulation time: 1 hr 25 min 58 sec) 
Heartbeat CPU 0 instructions: 115000001 cycles: 560971319 heartbeat IPC: 0.131692 cumulative IPC: 0.12134 (Simulation time: 1 hr 26 min 17 sec) 
Heartbeat CPU 0 instructions: 116000000 cycles: 565027547 heartbeat IPC: 0.246534 cumulative IPC: 0.122281 (Simulation time: 1 hr 26 min 31 sec) 
Heartbeat CPU 0 instructions: 117000000 cycles: 575210750 heartbeat IPC: 0.0982009 cumulative IPC: 0.121835 (Simulation time: 1 hr 26 min 50 sec) 
Heartbeat CPU 0 instructions: 118000000 cycles: 585118485 heartbeat IPC: 0.100931 cumulative IPC: 0.121465 (Simulation time: 1 hr 27 min 8 sec) 
Heartbeat CPU 0 instructions: 119000000 cycles: 589306518 heartbeat IPC: 0.238776 cumulative IPC: 0.122336 (Simulation time: 1 hr 27 min 21 sec) 
Heartbeat CPU 0 instructions: 120000000 cycles: 595846110 heartbeat IPC: 0.152915 cumulative IPC: 0.122686 (Simulation time: 1 hr 27 min 31 sec) 
Heartbeat CPU 0 instructions: 121000000 cycles: 609625285 heartbeat IPC: 0.0725733 cumulative IPC: 0.121505 (Simulation time: 1 hr 27 min 45 sec) 
Heartbeat CPU 0 instructions: 122000001 cycles: 613825067 heartbeat IPC: 0.238108 cumulative IPC: 0.122337 (Simulation time: 1 hr 27 min 55 sec) 
Heartbeat CPU 0 instructions: 123000000 cycles: 618055369 heartbeat IPC: 0.23639 cumulative IPC: 0.123151 (Simulation time: 1 hr 28 min 4 sec) 
Heartbeat CPU 0 instructions: 124000000 cycles: 632289400 heartbeat IPC: 0.0702542 cumulative IPC: 0.12191 (Simulation time: 1 hr 28 min 17 sec) 
Heartbeat CPU 0 instructions: 125000000 cycles: 638087975 heartbeat IPC: 0.172456 cumulative IPC: 0.122389 (Simulation time: 1 hr 28 min 27 sec) 
Heartbeat CPU 0 instructions: 126000000 cycles: 642238730 heartbeat IPC: 0.24092 cumulative IPC: 0.123186 (Simulation time: 1 hr 28 min 35 sec) 
Heartbeat CPU 0 instructions: 127000002 cycles: 654390156 heartbeat IPC: 0.082295 cumulative IPC: 0.122396 (Simulation time: 1 hr 28 min 46 sec) 
Heartbeat CPU 0 instructions: 128000000 cycles: 663000739 heartbeat IPC: 0.116136 cumulative IPC: 0.122312 (Simulation time: 1 hr 28 min 54 sec) 
Heartbeat CPU 0 instructions: 129000000 cycles: 667129295 heartbeat IPC: 0.242215 cumulative IPC: 0.123083 (Simulation time: 1 hr 29 min 0 sec) 
Heartbeat CPU 0 instructions: 130000000 cycles: 675934634 heartbeat IPC: 0.113567 cumulative IPC: 0.122954 (Simulation time: 1 hr 29 min 8 sec) 
Heartbeat CPU 0 instructions: 131000000 cycles: 688562116 heartbeat IPC: 0.0791924 cumulative IPC: 0.122121 (Simulation time: 1 hr 29 min 18 sec) 
Heartbeat CPU 0 instructions: 132000000 cycles: 693559480 heartbeat IPC: 0.200105 cumulative IPC: 0.122704 (Simulation time: 1 hr 29 min 24 sec) 
Heartbeat CPU 0 instructions: 133000002 cycles: 698296266 heartbeat IPC: 0.211114 cumulative IPC: 0.123327 (Simulation time: 1 hr 29 min 30 sec) 
Heartbeat CPU 0 instructions: 134000001 cycles: 713312081 heartbeat IPC: 0.0665964 cumulative IPC: 0.122088 (Simulation time: 1 hr 29 min 40 sec) 
Heartbeat CPU 0 instructions: 135000001 cycles: 717831220 heartbeat IPC: 0.221281 cumulative IPC: 0.122736 (Simulation time: 1 hr 29 min 47 sec) 
Heartbeat CPU 0 instructions: 136000000 cycles: 725934401 heartbeat IPC: 0.123408 cumulative IPC: 0.122743 (Simulation time: 1 hr 29 min 54 sec) 
Heartbeat CPU 0 instructions: 137000000 cycles: 736110059 heartbeat IPC: 0.0982737 cumulative IPC: 0.122393 (Simulation time: 1 hr 30 min 3 sec) 
Heartbeat CPU 0 instructions: 138000001 cycles: 746856741 heartbeat IPC: 0.0930521 cumulative IPC: 0.121956 (Simulation time: 1 hr 30 min 11 sec) 
Heartbeat CPU 0 instructions: 139000002 cycles: 751048148 heartbeat IPC: 0.238584 cumulative IPC: 0.12263 (Simulation time: 1 hr 30 min 18 sec) 
Heartbeat CPU 0 instructions: 140000000 cycles: 757217554 heartbeat IPC: 0.16209 cumulative IPC: 0.122962 (Simulation time: 1 hr 30 min 25 sec) 
Heartbeat CPU 0 instructions: 141000002 cycles: 770851435 heartbeat IPC: 0.0733468 cumulative IPC: 0.122055 (Simulation time: 1 hr 30 min 35 sec) 
Heartbeat CPU 0 instructions: 142000002 cycles: 774914075 heartbeat IPC: 0.246145 cumulative IPC: 0.122728 (Simulation time: 1 hr 30 min 41 sec) 
Heartbeat CPU 0 instructions: 143000002 cycles: 778840809 heartbeat IPC: 0.254665 cumulative IPC: 0.123415 (Simulation time: 1 hr 30 min 47 sec) 
Heartbeat CPU 0 instructions: 144000000 cycles: 793704021 heartbeat IPC: 0.0672801 cumulative IPC: 0.122329 (Simulation time: 1 hr 30 min 58 sec) 
Heartbeat CPU 0 instructions: 145000001 cycles: 799023435 heartbeat IPC: 0.187991 cumulative IPC: 0.122781 (Simulation time: 1 hr 31 min 4 sec) 
Heartbeat CPU 0 instructions: 146000001 cycles: 803179077 heartbeat IPC: 0.240637 cumulative IPC: 0.12341 (Simulation time: 1 hr 31 min 11 sec) 
Heartbeat CPU 0 instructions: 147000000 cycles: 816036243 heartbeat IPC: 0.0777776 cumulative IPC: 0.122668 (Simulation time: 1 hr 31 min 20 sec) 
Heartbeat CPU 0 instructions: 148000000 cycles: 823409649 heartbeat IPC: 0.135623 cumulative IPC: 0.122788 (Simulation time: 1 hr 31 min 28 sec) 
Heartbeat CPU 0 instructions: 149000000 cycles: 827616340 heartbeat IPC: 0.237717 cumulative IPC: 0.123391 (Simulation time: 1 hr 31 min 34 sec) 
Heartbeat CPU 0 instructions: 150000000 cycles: 838320759 heartbeat IPC: 0.0934194 cumulative IPC: 0.122996 (Simulation time: 1 hr 31 min 43 sec) 
Finished CPU 0 instructions: 100000000 cycles: 813034822 cummulative IPC: 0.122996 (Simulation time: 1 hr 31 min 43 sec) 

ChampSim completed all CPUs

Region of Interest Statistics

CPU 0 cummulative IPC: 0.122996 instructions: 100000000 cycles: 813034822
LLC TOTAL     ACCESS:   18838588  HIT:    8618635  MISS:   10219953
LLC LOAD      ACCESS:    8518635  HIT:    4431986  MISS:    4086649
LLC RFO       ACCESS:     210578  HIT:      61437  MISS:     149141
LLC PREFETCH  ACCESS:    8013965  HIT:    2726372  MISS:    5287593
LLC WRITEBACK ACCESS:    2095410  HIT:    1398840  MISS:     696570
OPTgen accesses: 201667
OPTgen hits: 150068
OPTgen hit rate: 74.4138


