
*** ChampSim Multicore Out-of-Order Simulator ***

Warmup Instructions: 50000000
Simulation Instructions: 100000000
Configuration: 2
Number of CPUs: 1
LLC sets: 2048
LLC ways: 16
Off-chip DRAM Channels: 1 Width: 64-bit Data Rate: 1600 MT/s

CPU 0 runs /datasets/cs240c-wi22-a00-public/data/Assignment2-gz/leslie3d_1116B.trace.gz
CPU 0 L1D next line prefetcher
CPU 0 L2C IP-based stride prefetcher
Initialize Hawkeye state
Heartbeat CPU 0 instructions: 1000003 cycles: 535311 heartbeat IPC: 1.86808 cumulative IPC: 1.86808 (Simulation time: 0 hr 0 min 40 sec) 
Heartbeat CPU 0 instructions: 2000003 cycles: 1071193 heartbeat IPC: 1.86608 cumulative IPC: 1.86708 (Simulation time: 0 hr 1 min 22 sec) 
Heartbeat CPU 0 instructions: 3000003 cycles: 1607887 heartbeat IPC: 1.86326 cumulative IPC: 1.8658 (Simulation time: 0 hr 2 min 1 sec) 
Heartbeat CPU 0 instructions: 4000000 cycles: 2143303 heartbeat IPC: 1.8677 cumulative IPC: 1.86628 (Simulation time: 0 hr 2 min 38 sec) 
Heartbeat CPU 0 instructions: 5000001 cycles: 2678433 heartbeat IPC: 1.86871 cumulative IPC: 1.86676 (Simulation time: 0 hr 3 min 13 sec) 
Heartbeat CPU 0 instructions: 6000001 cycles: 3213941 heartbeat IPC: 1.86739 cumulative IPC: 1.86687 (Simulation time: 0 hr 3 min 48 sec) 
Heartbeat CPU 0 instructions: 7000001 cycles: 3749958 heartbeat IPC: 1.86561 cumulative IPC: 1.86669 (Simulation time: 0 hr 4 min 25 sec) 
Heartbeat CPU 0 instructions: 8000000 cycles: 4285983 heartbeat IPC: 1.86558 cumulative IPC: 1.86655 (Simulation time: 0 hr 4 min 59 sec) 
Heartbeat CPU 0 instructions: 9000003 cycles: 4821121 heartbeat IPC: 1.86868 cumulative IPC: 1.86679 (Simulation time: 0 hr 5 min 33 sec) 
Heartbeat CPU 0 instructions: 10000002 cycles: 5356171 heartbeat IPC: 1.86898 cumulative IPC: 1.86701 (Simulation time: 0 hr 6 min 8 sec) 
Heartbeat CPU 0 instructions: 11000001 cycles: 5891944 heartbeat IPC: 1.86646 cumulative IPC: 1.86696 (Simulation time: 0 hr 6 min 44 sec) 
Heartbeat CPU 0 instructions: 12000000 cycles: 6428418 heartbeat IPC: 1.86402 cumulative IPC: 1.86671 (Simulation time: 0 hr 7 min 22 sec) 
Heartbeat CPU 0 instructions: 13000002 cycles: 6963711 heartbeat IPC: 1.86814 cumulative IPC: 1.86682 (Simulation time: 0 hr 7 min 54 sec) 
Heartbeat CPU 0 instructions: 14000003 cycles: 7498470 heartbeat IPC: 1.87 cumulative IPC: 1.86705 (Simulation time: 0 hr 8 min 28 sec) 
Heartbeat CPU 0 instructions: 15000002 cycles: 8033977 heartbeat IPC: 1.86739 cumulative IPC: 1.86707 (Simulation time: 0 hr 9 min 5 sec) 
Heartbeat CPU 0 instructions: 16000000 cycles: 8570104 heartbeat IPC: 1.86523 cumulative IPC: 1.86696 (Simulation time: 0 hr 9 min 43 sec) 
Heartbeat CPU 0 instructions: 17000003 cycles: 9106506 heartbeat IPC: 1.86428 cumulative IPC: 1.8668 (Simulation time: 0 hr 10 min 17 sec) 
Heartbeat CPU 0 instructions: 18000001 cycles: 9641554 heartbeat IPC: 1.86899 cumulative IPC: 1.86692 (Simulation time: 0 hr 10 min 53 sec) 
Heartbeat CPU 0 instructions: 19000001 cycles: 10177083 heartbeat IPC: 1.86731 cumulative IPC: 1.86694 (Simulation time: 0 hr 11 min 26 sec) 
Heartbeat CPU 0 instructions: 20000000 cycles: 10712562 heartbeat IPC: 1.86749 cumulative IPC: 1.86697 (Simulation time: 0 hr 12 min 0 sec) 
Heartbeat CPU 0 instructions: 21000000 cycles: 11249156 heartbeat IPC: 1.86361 cumulative IPC: 1.86681 (Simulation time: 0 hr 12 min 35 sec) 
Heartbeat CPU 0 instructions: 22000000 cycles: 11784337 heartbeat IPC: 1.86853 cumulative IPC: 1.86688 (Simulation time: 0 hr 13 min 11 sec) 
Heartbeat CPU 0 instructions: 23000003 cycles: 12319665 heartbeat IPC: 1.86802 cumulative IPC: 1.86693 (Simulation time: 0 hr 13 min 47 sec) 
Heartbeat CPU 0 instructions: 24000000 cycles: 12854817 heartbeat IPC: 1.86862 cumulative IPC: 1.867 (Simulation time: 0 hr 14 min 22 sec) 
Heartbeat CPU 0 instructions: 25000001 cycles: 13390900 heartbeat IPC: 1.86538 cumulative IPC: 1.86694 (Simulation time: 0 hr 14 min 59 sec) 
Heartbeat CPU 0 instructions: 26000002 cycles: 13927341 heartbeat IPC: 1.86414 cumulative IPC: 1.86683 (Simulation time: 0 hr 15 min 31 sec) 
Heartbeat CPU 0 instructions: 27000003 cycles: 14462304 heartbeat IPC: 1.86929 cumulative IPC: 1.86692 (Simulation time: 0 hr 16 min 6 sec) 
Heartbeat CPU 0 instructions: 28000000 cycles: 14997509 heartbeat IPC: 1.86844 cumulative IPC: 1.86698 (Simulation time: 0 hr 16 min 41 sec) 
Heartbeat CPU 0 instructions: 29000000 cycles: 15533079 heartbeat IPC: 1.86717 cumulative IPC: 1.86698 (Simulation time: 0 hr 17 min 16 sec) 
Heartbeat CPU 0 instructions: 30000002 cycles: 16070014 heartbeat IPC: 1.86243 cumulative IPC: 1.86683 (Simulation time: 0 hr 17 min 51 sec) 
Heartbeat CPU 0 instructions: 31000001 cycles: 16605386 heartbeat IPC: 1.86786 cumulative IPC: 1.86686 (Simulation time: 0 hr 18 min 28 sec) 
Heartbeat CPU 0 instructions: 32000000 cycles: 17140958 heartbeat IPC: 1.86716 cumulative IPC: 1.86687 (Simulation time: 0 hr 19 min 2 sec) 
Heartbeat CPU 0 instructions: 33000001 cycles: 17676293 heartbeat IPC: 1.86799 cumulative IPC: 1.86691 (Simulation time: 0 hr 19 min 37 sec) 
Heartbeat CPU 0 instructions: 34000000 cycles: 18212107 heartbeat IPC: 1.86632 cumulative IPC: 1.86689 (Simulation time: 0 hr 20 min 11 sec) 
Heartbeat CPU 0 instructions: 35000000 cycles: 18748286 heartbeat IPC: 1.86505 cumulative IPC: 1.86684 (Simulation time: 0 hr 20 min 44 sec) 
Heartbeat CPU 0 instructions: 36000000 cycles: 19282975 heartbeat IPC: 1.87025 cumulative IPC: 1.86693 (Simulation time: 0 hr 21 min 19 sec) 
Heartbeat CPU 0 instructions: 37000003 cycles: 19865343 heartbeat IPC: 1.71713 cumulative IPC: 1.86254 (Simulation time: 0 hr 21 min 56 sec) 
Heartbeat CPU 0 instructions: 38000003 cycles: 20283595 heartbeat IPC: 2.3909 cumulative IPC: 1.87344 (Simulation time: 0 hr 22 min 28 sec) 
Heartbeat CPU 0 instructions: 39000003 cycles: 20701757 heartbeat IPC: 2.39142 cumulative IPC: 1.8839 (Simulation time: 0 hr 23 min 1 sec) 
Heartbeat CPU 0 instructions: 40000000 cycles: 21120136 heartbeat IPC: 2.39017 cumulative IPC: 1.89393 (Simulation time: 0 hr 23 min 36 sec) 
Heartbeat CPU 0 instructions: 41000002 cycles: 21538300 heartbeat IPC: 2.39141 cumulative IPC: 1.90359 (Simulation time: 0 hr 24 min 8 sec) 
Heartbeat CPU 0 instructions: 42000001 cycles: 21956152 heartbeat IPC: 2.39319 cumulative IPC: 1.9129 (Simulation time: 0 hr 24 min 39 sec) 
Heartbeat CPU 0 instructions: 43000003 cycles: 22374181 heartbeat IPC: 2.39218 cumulative IPC: 1.92186 (Simulation time: 0 hr 25 min 10 sec) 
Heartbeat CPU 0 instructions: 44000000 cycles: 22792092 heartbeat IPC: 2.39285 cumulative IPC: 1.93049 (Simulation time: 0 hr 25 min 44 sec) 
Heartbeat CPU 0 instructions: 45000002 cycles: 23210221 heartbeat IPC: 2.39161 cumulative IPC: 1.9388 (Simulation time: 0 hr 26 min 17 sec) 
Heartbeat CPU 0 instructions: 46000002 cycles: 23628129 heartbeat IPC: 2.39287 cumulative IPC: 1.94683 (Simulation time: 0 hr 26 min 49 sec) 
Heartbeat CPU 0 instructions: 47000001 cycles: 24045813 heartbeat IPC: 2.39415 cumulative IPC: 1.9546 (Simulation time: 0 hr 27 min 24 sec) 
Heartbeat CPU 0 instructions: 48000000 cycles: 24463793 heartbeat IPC: 2.39246 cumulative IPC: 1.96208 (Simulation time: 0 hr 27 min 54 sec) 
Heartbeat CPU 0 instructions: 49000000 cycles: 24921032 heartbeat IPC: 2.18704 cumulative IPC: 1.96621 (Simulation time: 0 hr 28 min 29 sec) 
Heartbeat CPU 0 instructions: 50000000 cycles: 25408311 heartbeat IPC: 2.05221 cumulative IPC: 1.96786 (Simulation time: 0 hr 29 min 4 sec) 

Warmup complete CPU 0 instructions: 50000004 cycles: 25408313 (Simulation time: 0 hr 29 min 4 sec) 

Heartbeat CPU 0 instructions: 51000003 cycles: 27736109 heartbeat IPC: 0.429592 cumulative IPC: 0.42959 (Simulation time: 0 hr 29 min 47 sec) 
Heartbeat CPU 0 instructions: 52000000 cycles: 30193124 heartbeat IPC: 0.406997 cumulative IPC: 0.417989 (Simulation time: 0 hr 30 min 30 sec) 
Heartbeat CPU 0 instructions: 53000003 cycles: 32637619 heartbeat IPC: 0.409084 cumulative IPC: 0.414977 (Simulation time: 0 hr 31 min 16 sec) 
Heartbeat CPU 0 instructions: 54000000 cycles: 34984039 heartbeat IPC: 0.42618 cumulative IPC: 0.417722 (Simulation time: 0 hr 32 min 5 sec) 
Heartbeat CPU 0 instructions: 55000002 cycles: 37327369 heartbeat IPC: 0.426744 cumulative IPC: 0.419496 (Simulation time: 0 hr 32 min 55 sec) 
Heartbeat CPU 0 instructions: 56000000 cycles: 39705200 heartbeat IPC: 0.42055 cumulative IPC: 0.419672 (Simulation time: 0 hr 33 min 42 sec) 
Heartbeat CPU 0 instructions: 57000001 cycles: 42051520 heartbeat IPC: 0.4262 cumulative IPC: 0.420592 (Simulation time: 0 hr 34 min 31 sec) 
Heartbeat CPU 0 instructions: 58000001 cycles: 44302757 heartbeat IPC: 0.4442 cumulative IPC: 0.423405 (Simulation time: 0 hr 35 min 17 sec) 
Heartbeat CPU 0 instructions: 59000000 cycles: 45574063 heartbeat IPC: 0.786592 cumulative IPC: 0.446301 (Simulation time: 0 hr 35 min 59 sec) 
Heartbeat CPU 0 instructions: 60000000 cycles: 46863075 heartbeat IPC: 0.775788 cumulative IPC: 0.466097 (Simulation time: 0 hr 36 min 40 sec) 
Heartbeat CPU 0 instructions: 61000003 cycles: 48252244 heartbeat IPC: 0.719857 cumulative IPC: 0.481528 (Simulation time: 0 hr 37 min 23 sec) 
Heartbeat CPU 0 instructions: 62000002 cycles: 49579101 heartbeat IPC: 0.75366 cumulative IPC: 0.496467 (Simulation time: 0 hr 38 min 6 sec) 
Heartbeat CPU 0 instructions: 63000003 cycles: 50754981 heartbeat IPC: 0.850428 cumulative IPC: 0.512888 (Simulation time: 0 hr 38 min 44 sec) 
Heartbeat CPU 0 instructions: 64000000 cycles: 51975293 heartbeat IPC: 0.81946 cumulative IPC: 0.52697 (Simulation time: 0 hr 39 min 23 sec) 
Heartbeat CPU 0 instructions: 65000001 cycles: 53357098 heartbeat IPC: 0.723692 cumulative IPC: 0.536696 (Simulation time: 0 hr 40 min 3 sec) 
Heartbeat CPU 0 instructions: 66000000 cycles: 54556477 heartbeat IPC: 0.833764 cumulative IPC: 0.548919 (Simulation time: 0 hr 40 min 46 sec) 
Heartbeat CPU 0 instructions: 67000001 cycles: 55777628 heartbeat IPC: 0.8189 cumulative IPC: 0.559775 (Simulation time: 0 hr 41 min 23 sec) 
Heartbeat CPU 0 instructions: 68000000 cycles: 57156976 heartbeat IPC: 0.724979 cumulative IPC: 0.566953 (Simulation time: 0 hr 41 min 59 sec) 
Heartbeat CPU 0 instructions: 69000002 cycles: 58424451 heartbeat IPC: 0.788972 cumulative IPC: 0.575476 (Simulation time: 0 hr 42 min 38 sec) 
Heartbeat CPU 0 instructions: 70000000 cycles: 59619016 heartbeat IPC: 0.837123 cumulative IPC: 0.584612 (Simulation time: 0 hr 43 min 18 sec) 
Heartbeat CPU 0 instructions: 71000002 cycles: 60827893 heartbeat IPC: 0.827216 cumulative IPC: 0.592892 (Simulation time: 0 hr 43 min 56 sec) 
Heartbeat CPU 0 instructions: 72000000 cycles: 62235325 heartbeat IPC: 0.710512 cumulative IPC: 0.597387 (Simulation time: 0 hr 44 min 34 sec) 
Heartbeat CPU 0 instructions: 73000000 cycles: 63442158 heartbeat IPC: 0.828615 cumulative IPC: 0.604724 (Simulation time: 0 hr 45 min 14 sec) 
Heartbeat CPU 0 instructions: 74000000 cycles: 64638879 heartbeat IPC: 0.835617 cumulative IPC: 0.611768 (Simulation time: 0 hr 45 min 53 sec) 
Heartbeat CPU 0 instructions: 75000002 cycles: 66062539 heartbeat IPC: 0.702416 cumulative IPC: 0.614942 (Simulation time: 0 hr 46 min 30 sec) 
Heartbeat CPU 0 instructions: 76000000 cycles: 67265685 heartbeat IPC: 0.831153 cumulative IPC: 0.621157 (Simulation time: 0 hr 47 min 13 sec) 
Heartbeat CPU 0 instructions: 77000001 cycles: 68446527 heartbeat IPC: 0.846854 cumulative IPC: 0.627349 (Simulation time: 0 hr 47 min 49 sec) 
Heartbeat CPU 0 instructions: 78000000 cycles: 69728905 heartbeat IPC: 0.7798 cumulative IPC: 0.63176 (Simulation time: 0 hr 48 min 28 sec) 
Heartbeat CPU 0 instructions: 79000001 cycles: 71051236 heartbeat IPC: 0.756241 cumulative IPC: 0.635367 (Simulation time: 0 hr 49 min 6 sec) 
Heartbeat CPU 0 instructions: 80000000 cycles: 72237014 heartbeat IPC: 0.843327 cumulative IPC: 0.640633 (Simulation time: 0 hr 49 min 46 sec) 
Heartbeat CPU 0 instructions: 81000003 cycles: 73421808 heartbeat IPC: 0.844031 cumulative IPC: 0.645652 (Simulation time: 0 hr 50 min 24 sec) 
Heartbeat CPU 0 instructions: 82000000 cycles: 74829687 heartbeat IPC: 0.710286 cumulative IPC: 0.647493 (Simulation time: 0 hr 51 min 3 sec) 
Heartbeat CPU 0 instructions: 83000001 cycles: 76010569 heartbeat IPC: 0.846825 cumulative IPC: 0.652145 (Simulation time: 0 hr 51 min 46 sec) 
Heartbeat CPU 0 instructions: 84000000 cycles: 77205555 heartbeat IPC: 0.836829 cumulative IPC: 0.656406 (Simulation time: 0 hr 52 min 25 sec) 
Heartbeat CPU 0 instructions: 85000003 cycles: 78610736 heartbeat IPC: 0.711654 cumulative IPC: 0.657865 (Simulation time: 0 hr 53 min 0 sec) 
Heartbeat CPU 0 instructions: 86000002 cycles: 79815252 heartbeat IPC: 0.830208 cumulative IPC: 0.66168 (Simulation time: 0 hr 53 min 40 sec) 
Heartbeat CPU 0 instructions: 87000001 cycles: 81004452 heartbeat IPC: 0.840901 cumulative IPC: 0.665514 (Simulation time: 0 hr 54 min 18 sec) 
Heartbeat CPU 0 instructions: 88000000 cycles: 82231228 heartbeat IPC: 0.815144 cumulative IPC: 0.668744 (Simulation time: 0 hr 54 min 58 sec) 
Heartbeat CPU 0 instructions: 89000001 cycles: 83642559 heartbeat IPC: 0.708552 cumulative IPC: 0.669709 (Simulation time: 0 hr 55 min 36 sec) 
Heartbeat CPU 0 instructions: 90000003 cycles: 84839068 heartbeat IPC: 0.835766 cumulative IPC: 0.673052 (Simulation time: 0 hr 56 min 20 sec) 
Heartbeat CPU 0 instructions: 91000000 cycles: 86047719 heartbeat IPC: 0.827366 cumulative IPC: 0.676128 (Simulation time: 0 hr 56 min 59 sec) 
Heartbeat CPU 0 instructions: 92000000 cycles: 87511216 heartbeat IPC: 0.683295 cumulative IPC: 0.676297 (Simulation time: 0 hr 57 min 37 sec) 
Heartbeat CPU 0 instructions: 93000002 cycles: 88706581 heartbeat IPC: 0.836566 cumulative IPC: 0.679323 (Simulation time: 0 hr 58 min 19 sec) 
Heartbeat CPU 0 instructions: 94000000 cycles: 89911198 heartbeat IPC: 0.830138 cumulative IPC: 0.68214 (Simulation time: 0 hr 58 min 57 sec) 
Heartbeat CPU 0 instructions: 95000003 cycles: 91267041 heartbeat IPC: 0.737551 cumulative IPC: 0.683281 (Simulation time: 0 hr 59 min 34 sec) 
Heartbeat CPU 0 instructions: 96000000 cycles: 92597055 heartbeat IPC: 0.751869 cumulative IPC: 0.684638 (Simulation time: 1 hr 0 min 14 sec) 
Heartbeat CPU 0 instructions: 97000000 cycles: 93784504 heartbeat IPC: 0.842141 cumulative IPC: 0.687374 (Simulation time: 1 hr 0 min 59 sec) 
Heartbeat CPU 0 instructions: 98000000 cycles: 94993536 heartbeat IPC: 0.827108 cumulative IPC: 0.689802 (Simulation time: 1 hr 1 min 40 sec) 
Heartbeat CPU 0 instructions: 99000003 cycles: 96457154 heartbeat IPC: 0.68324 cumulative IPC: 0.689666 (Simulation time: 1 hr 2 min 21 sec) 
Heartbeat CPU 0 instructions: 100000000 cycles: 97672406 heartbeat IPC: 0.822872 cumulative IPC: 0.691907 (Simulation time: 1 hr 3 min 3 sec) 
Heartbeat CPU 0 instructions: 101000001 cycles: 98884602 heartbeat IPC: 0.82495 cumulative IPC: 0.694101 (Simulation time: 1 hr 3 min 41 sec) 
Heartbeat CPU 0 instructions: 102000003 cycles: 100350607 heartbeat IPC: 0.682127 cumulative IPC: 0.693867 (Simulation time: 1 hr 4 min 21 sec) 
Heartbeat CPU 0 instructions: 103000002 cycles: 101568027 heartbeat IPC: 0.821408 cumulative IPC: 0.695906 (Simulation time: 1 hr 5 min 0 sec) 
Heartbeat CPU 0 instructions: 104000000 cycles: 102783365 heartbeat IPC: 0.822815 cumulative IPC: 0.697899 (Simulation time: 1 hr 5 min 43 sec) 
Heartbeat CPU 0 instructions: 105000000 cycles: 104037852 heartbeat IPC: 0.797139 cumulative IPC: 0.699483 (Simulation time: 1 hr 6 min 21 sec) 
Heartbeat CPU 0 instructions: 106000003 cycles: 105992305 heartbeat IPC: 0.511654 cumulative IPC: 0.694927 (Simulation time: 1 hr 7 min 2 sec) 
Heartbeat CPU 0 instructions: 107000002 cycles: 107679315 heartbeat IPC: 0.592764 cumulative IPC: 0.692832 (Simulation time: 1 hr 7 min 40 sec) 
Heartbeat CPU 0 instructions: 108000000 cycles: 109373414 heartbeat IPC: 0.590283 cumulative IPC: 0.690763 (Simulation time: 1 hr 8 min 18 sec) 
Heartbeat CPU 0 instructions: 109000003 cycles: 110862726 heartbeat IPC: 0.671453 cumulative IPC: 0.690427 (Simulation time: 1 hr 8 min 51 sec) 
Heartbeat CPU 0 instructions: 110000003 cycles: 112513413 heartbeat IPC: 0.605808 cumulative IPC: 0.688823 (Simulation time: 1 hr 9 min 24 sec) 
Heartbeat CPU 0 instructions: 111000003 cycles: 114084031 heartbeat IPC: 0.636692 cumulative IPC: 0.6879 (Simulation time: 1 hr 9 min 57 sec) 
Heartbeat CPU 0 instructions: 112000000 cycles: 115717778 heartbeat IPC: 0.612088 cumulative IPC: 0.686528 (Simulation time: 1 hr 10 min 31 sec) 
Heartbeat CPU 0 instructions: 113000000 cycles: 117282961 heartbeat IPC: 0.638903 cumulative IPC: 0.685717 (Simulation time: 1 hr 11 min 3 sec) 
Heartbeat CPU 0 instructions: 114000000 cycles: 118962673 heartbeat IPC: 0.59534 cumulative IPC: 0.684094 (Simulation time: 1 hr 11 min 40 sec) 
Heartbeat CPU 0 instructions: 115000000 cycles: 120539599 heartbeat IPC: 0.634145 cumulative IPC: 0.683266 (Simulation time: 1 hr 12 min 13 sec) 
Heartbeat CPU 0 instructions: 116000000 cycles: 122986648 heartbeat IPC: 0.408655 cumulative IPC: 0.67638 (Simulation time: 1 hr 12 min 50 sec) 
Heartbeat CPU 0 instructions: 117000003 cycles: 125224078 heartbeat IPC: 0.446943 cumulative IPC: 0.671237 (Simulation time: 1 hr 13 min 26 sec) 
Heartbeat CPU 0 instructions: 118000002 cycles: 127468076 heartbeat IPC: 0.445633 cumulative IPC: 0.666276 (Simulation time: 1 hr 14 min 0 sec) 
Heartbeat CPU 0 instructions: 119000002 cycles: 129859650 heartbeat IPC: 0.418135 cumulative IPC: 0.660595 (Simulation time: 1 hr 14 min 36 sec) 
Heartbeat CPU 0 instructions: 120000000 cycles: 132249592 heartbeat IPC: 0.418419 cumulative IPC: 0.655177 (Simulation time: 1 hr 15 min 12 sec) 
Heartbeat CPU 0 instructions: 121000001 cycles: 134585839 heartbeat IPC: 0.428037 cumulative IPC: 0.650317 (Simulation time: 1 hr 15 min 46 sec) 
Heartbeat CPU 0 instructions: 122000002 cycles: 136920529 heartbeat IPC: 0.428323 cumulative IPC: 0.645669 (Simulation time: 1 hr 16 min 20 sec) 
Heartbeat CPU 0 instructions: 123000001 cycles: 139284638 heartbeat IPC: 0.422992 cumulative IPC: 0.641046 (Simulation time: 1 hr 16 min 54 sec) 
Heartbeat CPU 0 instructions: 124000000 cycles: 140623875 heartbeat IPC: 0.746693 cumulative IPC: 0.642274 (Simulation time: 1 hr 17 min 18 sec) 
Heartbeat CPU 0 instructions: 125000000 cycles: 141918056 heartbeat IPC: 0.772689 cumulative IPC: 0.643723 (Simulation time: 1 hr 17 min 43 sec) 
Heartbeat CPU 0 instructions: 126000000 cycles: 143182666 heartbeat IPC: 0.790758 cumulative IPC: 0.645302 (Simulation time: 1 hr 18 min 6 sec) 
Heartbeat CPU 0 instructions: 127000003 cycles: 144451510 heartbeat IPC: 0.788121 cumulative IPC: 0.646824 (Simulation time: 1 hr 18 min 29 sec) 
Heartbeat CPU 0 instructions: 128000000 cycles: 145748331 heartbeat IPC: 0.771114 cumulative IPC: 0.648163 (Simulation time: 1 hr 18 min 51 sec) 
Heartbeat CPU 0 instructions: 129000000 cycles: 147014508 heartbeat IPC: 0.789779 cumulative IPC: 0.649638 (Simulation time: 1 hr 19 min 14 sec) 
Heartbeat CPU 0 instructions: 130000000 cycles: 148325877 heartbeat IPC: 0.762562 cumulative IPC: 0.650843 (Simulation time: 1 hr 19 min 37 sec) 
Heartbeat CPU 0 instructions: 131000000 cycles: 149558692 heartbeat IPC: 0.811152 cumulative IPC: 0.652435 (Simulation time: 1 hr 20 min 1 sec) 
Heartbeat CPU 0 instructions: 132000000 cycles: 150823172 heartbeat IPC: 0.790839 cumulative IPC: 0.65383 (Simulation time: 1 hr 20 min 24 sec) 
Heartbeat CPU 0 instructions: 133000001 cycles: 152093992 heartbeat IPC: 0.786894 cumulative IPC: 0.655165 (Simulation time: 1 hr 20 min 46 sec) 
Heartbeat CPU 0 instructions: 134000000 cycles: 153341981 heartbeat IPC: 0.801288 cumulative IPC: 0.65659 (Simulation time: 1 hr 21 min 9 sec) 
Heartbeat CPU 0 instructions: 135000001 cycles: 154637130 heartbeat IPC: 0.772113 cumulative IPC: 0.657748 (Simulation time: 1 hr 21 min 29 sec) 
Heartbeat CPU 0 instructions: 136000000 cycles: 155887492 heartbeat IPC: 0.799768 cumulative IPC: 0.659109 (Simulation time: 1 hr 21 min 49 sec) 
Heartbeat CPU 0 instructions: 137000003 cycles: 157185037 heartbeat IPC: 0.770688 cumulative IPC: 0.660208 (Simulation time: 1 hr 22 min 9 sec) 
Heartbeat CPU 0 instructions: 138000002 cycles: 158423860 heartbeat IPC: 0.807217 cumulative IPC: 0.661577 (Simulation time: 1 hr 22 min 29 sec) 
Heartbeat CPU 0 instructions: 139000000 cycles: 159691375 heartbeat IPC: 0.788944 cumulative IPC: 0.662779 (Simulation time: 1 hr 22 min 49 sec) 
Heartbeat CPU 0 instructions: 140000000 cycles: 160977595 heartbeat IPC: 0.777472 cumulative IPC: 0.663867 (Simulation time: 1 hr 23 min 8 sec) 
Heartbeat CPU 0 instructions: 141000001 cycles: 162222280 heartbeat IPC: 0.803417 cumulative IPC: 0.665137 (Simulation time: 1 hr 23 min 27 sec) 
Heartbeat CPU 0 instructions: 142000003 cycles: 163526302 heartbeat IPC: 0.76686 cumulative IPC: 0.666097 (Simulation time: 1 hr 23 min 46 sec) 
Heartbeat CPU 0 instructions: 143000003 cycles: 164773183 heartbeat IPC: 0.802001 cumulative IPC: 0.667313 (Simulation time: 1 hr 24 min 3 sec) 
Heartbeat CPU 0 instructions: 144000000 cycles: 166071399 heartbeat IPC: 0.770286 cumulative IPC: 0.668263 (Simulation time: 1 hr 24 min 18 sec) 
Heartbeat CPU 0 instructions: 145000003 cycles: 167345853 heartbeat IPC: 0.784652 cumulative IPC: 0.669308 (Simulation time: 1 hr 24 min 34 sec) 
Heartbeat CPU 0 instructions: 146000003 cycles: 168630412 heartbeat IPC: 0.778477 cumulative IPC: 0.670288 (Simulation time: 1 hr 24 min 48 sec) 
Heartbeat CPU 0 instructions: 147000003 cycles: 169922494 heartbeat IPC: 0.773945 cumulative IPC: 0.671214 (Simulation time: 1 hr 25 min 2 sec) 
Heartbeat CPU 0 instructions: 148000000 cycles: 171179160 heartbeat IPC: 0.795754 cumulative IPC: 0.672288 (Simulation time: 1 hr 25 min 16 sec) 
Heartbeat CPU 0 instructions: 149000000 cycles: 172482198 heartbeat IPC: 0.767437 cumulative IPC: 0.673131 (Simulation time: 1 hr 25 min 31 sec) 
Heartbeat CPU 0 instructions: 150000001 cycles: 173755968 heartbeat IPC: 0.785072 cumulative IPC: 0.674092 (Simulation time: 1 hr 25 min 45 sec) 
Finished CPU 0 instructions: 100000001 cycles: 148347656 cummulative IPC: 0.674092 (Simulation time: 1 hr 25 min 45 sec) 

ChampSim completed all CPUs

Region of Interest Statistics

CPU 0 cummulative IPC: 0.674092 instructions: 100000001 cycles: 148347656
LLC TOTAL     ACCESS:    4211714  HIT:    1311649  MISS:    2900065
LLC LOAD      ACCESS:     416420  HIT:     145117  MISS:     271303
LLC RFO       ACCESS:     595333  HIT:     151697  MISS:     443636
LLC PREFETCH  ACCESS:    2364580  HIT:     571973  MISS:    1792607
LLC WRITEBACK ACCESS:     835381  HIT:     442862  MISS:     392519
OPTgen accesses: 21789
OPTgen hits: 9239
OPTgen hit rate: 42.4021


