
*** ChampSim Multicore Out-of-Order Simulator ***

Warmup Instructions: 50000000
Simulation Instructions: 100000000
Configuration: 2
Number of CPUs: 1
LLC sets: 2048
LLC ways: 16
Off-chip DRAM Channels: 1 Width: 64-bit Data Rate: 1600 MT/s

CPU 0 runs /datasets/cs240c-wi22-a00-public/data/Assignment2-gz/zeusmp_100B.trace.gz
CPU 0 L1D next line prefetcher
CPU 0 L2C IP-based stride prefetcher
Initialize Hawkeye state
Heartbeat CPU 0 instructions: 1000002 cycles: 462679 heartbeat IPC: 2.16133 cumulative IPC: 2.16133 (Simulation time: 0 hr 0 min 31 sec) 
Heartbeat CPU 0 instructions: 2000001 cycles: 925469 heartbeat IPC: 2.16081 cumulative IPC: 2.16107 (Simulation time: 0 hr 1 min 0 sec) 
Heartbeat CPU 0 instructions: 3000003 cycles: 1388509 heartbeat IPC: 2.15964 cumulative IPC: 2.16059 (Simulation time: 0 hr 1 min 29 sec) 
Heartbeat CPU 0 instructions: 4000000 cycles: 1851236 heartbeat IPC: 2.16109 cumulative IPC: 2.16072 (Simulation time: 0 hr 1 min 55 sec) 
Heartbeat CPU 0 instructions: 5000003 cycles: 2314175 heartbeat IPC: 2.16012 cumulative IPC: 2.1606 (Simulation time: 0 hr 2 min 22 sec) 
Heartbeat CPU 0 instructions: 6000001 cycles: 2777030 heartbeat IPC: 2.1605 cumulative IPC: 2.16058 (Simulation time: 0 hr 2 min 48 sec) 
Heartbeat CPU 0 instructions: 7000001 cycles: 3239713 heartbeat IPC: 2.16131 cumulative IPC: 2.16069 (Simulation time: 0 hr 3 min 19 sec) 
Heartbeat CPU 0 instructions: 8000000 cycles: 3702585 heartbeat IPC: 2.16042 cumulative IPC: 2.16065 (Simulation time: 0 hr 3 min 51 sec) 
Heartbeat CPU 0 instructions: 9000003 cycles: 4165366 heartbeat IPC: 2.16086 cumulative IPC: 2.16068 (Simulation time: 0 hr 4 min 27 sec) 
Heartbeat CPU 0 instructions: 10000001 cycles: 4628690 heartbeat IPC: 2.15831 cumulative IPC: 2.16044 (Simulation time: 0 hr 5 min 0 sec) 
Heartbeat CPU 0 instructions: 11000000 cycles: 5092318 heartbeat IPC: 2.1569 cumulative IPC: 2.16012 (Simulation time: 0 hr 5 min 28 sec) 
Heartbeat CPU 0 instructions: 12000000 cycles: 5556006 heartbeat IPC: 2.15662 cumulative IPC: 2.15982 (Simulation time: 0 hr 5 min 59 sec) 
Heartbeat CPU 0 instructions: 13000001 cycles: 6019115 heartbeat IPC: 2.15932 cumulative IPC: 2.15979 (Simulation time: 0 hr 6 min 28 sec) 
Heartbeat CPU 0 instructions: 14000002 cycles: 6481909 heartbeat IPC: 2.16079 cumulative IPC: 2.15986 (Simulation time: 0 hr 6 min 57 sec) 
Heartbeat CPU 0 instructions: 15000002 cycles: 6944852 heartbeat IPC: 2.16009 cumulative IPC: 2.15987 (Simulation time: 0 hr 7 min 30 sec) 
Heartbeat CPU 0 instructions: 16000000 cycles: 7407525 heartbeat IPC: 2.16135 cumulative IPC: 2.15997 (Simulation time: 0 hr 7 min 58 sec) 
Heartbeat CPU 0 instructions: 17000000 cycles: 7838187 heartbeat IPC: 2.32201 cumulative IPC: 2.16887 (Simulation time: 0 hr 8 min 24 sec) 
Heartbeat CPU 0 instructions: 18000001 cycles: 8265855 heartbeat IPC: 2.33826 cumulative IPC: 2.17763 (Simulation time: 0 hr 8 min 49 sec) 
Heartbeat CPU 0 instructions: 19000002 cycles: 8693049 heartbeat IPC: 2.34086 cumulative IPC: 2.18565 (Simulation time: 0 hr 9 min 15 sec) 
Heartbeat CPU 0 instructions: 20000000 cycles: 9120462 heartbeat IPC: 2.33965 cumulative IPC: 2.19287 (Simulation time: 0 hr 9 min 46 sec) 
Heartbeat CPU 0 instructions: 21000001 cycles: 9547741 heartbeat IPC: 2.34039 cumulative IPC: 2.19947 (Simulation time: 0 hr 10 min 18 sec) 
Heartbeat CPU 0 instructions: 22000001 cycles: 9975169 heartbeat IPC: 2.33958 cumulative IPC: 2.20548 (Simulation time: 0 hr 10 min 47 sec) 
Heartbeat CPU 0 instructions: 23000000 cycles: 10403220 heartbeat IPC: 2.33617 cumulative IPC: 2.21085 (Simulation time: 0 hr 11 min 14 sec) 
Heartbeat CPU 0 instructions: 24000000 cycles: 10830532 heartbeat IPC: 2.34021 cumulative IPC: 2.21596 (Simulation time: 0 hr 11 min 42 sec) 
Heartbeat CPU 0 instructions: 25000002 cycles: 11257776 heartbeat IPC: 2.34059 cumulative IPC: 2.22069 (Simulation time: 0 hr 12 min 10 sec) 
Heartbeat CPU 0 instructions: 26000001 cycles: 11685220 heartbeat IPC: 2.33949 cumulative IPC: 2.22503 (Simulation time: 0 hr 12 min 37 sec) 
Heartbeat CPU 0 instructions: 27000003 cycles: 12113044 heartbeat IPC: 2.33741 cumulative IPC: 2.229 (Simulation time: 0 hr 13 min 5 sec) 
Heartbeat CPU 0 instructions: 28000000 cycles: 12540546 heartbeat IPC: 2.33916 cumulative IPC: 2.23276 (Simulation time: 0 hr 13 min 31 sec) 
Heartbeat CPU 0 instructions: 29000002 cycles: 12967714 heartbeat IPC: 2.341 cumulative IPC: 2.23632 (Simulation time: 0 hr 13 min 57 sec) 
Heartbeat CPU 0 instructions: 30000003 cycles: 13395153 heartbeat IPC: 2.33952 cumulative IPC: 2.23962 (Simulation time: 0 hr 14 min 24 sec) 
Heartbeat CPU 0 instructions: 31000001 cycles: 13822834 heartbeat IPC: 2.33819 cumulative IPC: 2.24267 (Simulation time: 0 hr 14 min 51 sec) 
Heartbeat CPU 0 instructions: 32000000 cycles: 14250540 heartbeat IPC: 2.33805 cumulative IPC: 2.24553 (Simulation time: 0 hr 15 min 18 sec) 
Heartbeat CPU 0 instructions: 33000002 cycles: 14677532 heartbeat IPC: 2.34197 cumulative IPC: 2.24833 (Simulation time: 0 hr 15 min 44 sec) 
Heartbeat CPU 0 instructions: 34000001 cycles: 15104718 heartbeat IPC: 2.3409 cumulative IPC: 2.25095 (Simulation time: 0 hr 16 min 14 sec) 
Heartbeat CPU 0 instructions: 35000003 cycles: 15532153 heartbeat IPC: 2.33954 cumulative IPC: 2.25339 (Simulation time: 0 hr 16 min 42 sec) 
Heartbeat CPU 0 instructions: 36000000 cycles: 15959778 heartbeat IPC: 2.33849 cumulative IPC: 2.25567 (Simulation time: 0 hr 17 min 9 sec) 
Heartbeat CPU 0 instructions: 37000001 cycles: 16387221 heartbeat IPC: 2.3395 cumulative IPC: 2.25786 (Simulation time: 0 hr 17 min 35 sec) 
Heartbeat CPU 0 instructions: 38000003 cycles: 16814697 heartbeat IPC: 2.33932 cumulative IPC: 2.25993 (Simulation time: 0 hr 18 min 5 sec) 
Heartbeat CPU 0 instructions: 39000000 cycles: 17242295 heartbeat IPC: 2.33864 cumulative IPC: 2.26188 (Simulation time: 0 hr 18 min 36 sec) 
Heartbeat CPU 0 instructions: 40000000 cycles: 17669627 heartbeat IPC: 2.3401 cumulative IPC: 2.26377 (Simulation time: 0 hr 19 min 3 sec) 
Heartbeat CPU 0 instructions: 41000003 cycles: 18097546 heartbeat IPC: 2.3369 cumulative IPC: 2.2655 (Simulation time: 0 hr 19 min 30 sec) 
Heartbeat CPU 0 instructions: 42000000 cycles: 18524644 heartbeat IPC: 2.34138 cumulative IPC: 2.26725 (Simulation time: 0 hr 20 min 1 sec) 
Heartbeat CPU 0 instructions: 43000003 cycles: 18952068 heartbeat IPC: 2.3396 cumulative IPC: 2.26888 (Simulation time: 0 hr 20 min 27 sec) 
Heartbeat CPU 0 instructions: 44000000 cycles: 19379523 heartbeat IPC: 2.33942 cumulative IPC: 2.27044 (Simulation time: 0 hr 20 min 55 sec) 
Heartbeat CPU 0 instructions: 45000001 cycles: 19807123 heartbeat IPC: 2.33864 cumulative IPC: 2.27191 (Simulation time: 0 hr 21 min 23 sec) 
Heartbeat CPU 0 instructions: 46000000 cycles: 20234725 heartbeat IPC: 2.33862 cumulative IPC: 2.27332 (Simulation time: 0 hr 21 min 51 sec) 
Heartbeat CPU 0 instructions: 47000003 cycles: 20661971 heartbeat IPC: 2.34058 cumulative IPC: 2.27471 (Simulation time: 0 hr 22 min 18 sec) 
Heartbeat CPU 0 instructions: 48000000 cycles: 21089422 heartbeat IPC: 2.33944 cumulative IPC: 2.27602 (Simulation time: 0 hr 22 min 43 sec) 
Heartbeat CPU 0 instructions: 49000001 cycles: 21516511 heartbeat IPC: 2.34143 cumulative IPC: 2.27732 (Simulation time: 0 hr 23 min 11 sec) 
Heartbeat CPU 0 instructions: 50000000 cycles: 21944536 heartbeat IPC: 2.33631 cumulative IPC: 2.27847 (Simulation time: 0 hr 23 min 40 sec) 

Warmup complete CPU 0 instructions: 50000003 cycles: 21944537 (Simulation time: 0 hr 23 min 40 sec) 

Heartbeat CPU 0 instructions: 51000002 cycles: 22635450 heartbeat IPC: 1.44736 cumulative IPC: 1.44736 (Simulation time: 0 hr 24 min 12 sec) 
Heartbeat CPU 0 instructions: 52000000 cycles: 23315697 heartbeat IPC: 1.47005 cumulative IPC: 1.45862 (Simulation time: 0 hr 24 min 43 sec) 
Heartbeat CPU 0 instructions: 53000001 cycles: 24008603 heartbeat IPC: 1.4432 cumulative IPC: 1.45344 (Simulation time: 0 hr 25 min 15 sec) 
Heartbeat CPU 0 instructions: 54000003 cycles: 24692462 heartbeat IPC: 1.46229 cumulative IPC: 1.45564 (Simulation time: 0 hr 25 min 46 sec) 
Heartbeat CPU 0 instructions: 55000003 cycles: 25377061 heartbeat IPC: 1.46071 cumulative IPC: 1.45665 (Simulation time: 0 hr 26 min 20 sec) 
Heartbeat CPU 0 instructions: 56000000 cycles: 26068858 heartbeat IPC: 1.44551 cumulative IPC: 1.45478 (Simulation time: 0 hr 26 min 50 sec) 
Heartbeat CPU 0 instructions: 57000003 cycles: 26750082 heartbeat IPC: 1.46795 cumulative IPC: 1.45665 (Simulation time: 0 hr 27 min 21 sec) 
Heartbeat CPU 0 instructions: 58000003 cycles: 27442869 heartbeat IPC: 1.44345 cumulative IPC: 1.45499 (Simulation time: 0 hr 27 min 55 sec) 
Heartbeat CPU 0 instructions: 59000000 cycles: 28126981 heartbeat IPC: 1.46174 cumulative IPC: 1.45573 (Simulation time: 0 hr 28 min 27 sec) 
Heartbeat CPU 0 instructions: 60000000 cycles: 28823607 heartbeat IPC: 1.43549 cumulative IPC: 1.45368 (Simulation time: 0 hr 28 min 56 sec) 
Heartbeat CPU 0 instructions: 61000000 cycles: 29507802 heartbeat IPC: 1.46157 cumulative IPC: 1.4544 (Simulation time: 0 hr 29 min 29 sec) 
Heartbeat CPU 0 instructions: 62000001 cycles: 30202984 heartbeat IPC: 1.43847 cumulative IPC: 1.45306 (Simulation time: 0 hr 30 min 1 sec) 
Heartbeat CPU 0 instructions: 63000001 cycles: 30888302 heartbeat IPC: 1.45918 cumulative IPC: 1.45353 (Simulation time: 0 hr 30 min 32 sec) 
Heartbeat CPU 0 instructions: 64000000 cycles: 31585776 heartbeat IPC: 1.43374 cumulative IPC: 1.4521 (Simulation time: 0 hr 31 min 3 sec) 
Heartbeat CPU 0 instructions: 65000003 cycles: 32267194 heartbeat IPC: 1.46753 cumulative IPC: 1.45311 (Simulation time: 0 hr 31 min 36 sec) 
Heartbeat CPU 0 instructions: 66000003 cycles: 32959630 heartbeat IPC: 1.44418 cumulative IPC: 1.45255 (Simulation time: 0 hr 32 min 7 sec) 
Heartbeat CPU 0 instructions: 67000000 cycles: 33643250 heartbeat IPC: 1.4628 cumulative IPC: 1.45315 (Simulation time: 0 hr 32 min 38 sec) 
Heartbeat CPU 0 instructions: 68000000 cycles: 34332941 heartbeat IPC: 1.44992 cumulative IPC: 1.45297 (Simulation time: 0 hr 33 min 7 sec) 
Heartbeat CPU 0 instructions: 69000000 cycles: 35017908 heartbeat IPC: 1.45992 cumulative IPC: 1.45334 (Simulation time: 0 hr 33 min 39 sec) 
Heartbeat CPU 0 instructions: 70000003 cycles: 35697919 heartbeat IPC: 1.47057 cumulative IPC: 1.45419 (Simulation time: 0 hr 34 min 12 sec) 
Heartbeat CPU 0 instructions: 71000003 cycles: 36389264 heartbeat IPC: 1.44646 cumulative IPC: 1.45382 (Simulation time: 0 hr 34 min 44 sec) 
Heartbeat CPU 0 instructions: 72000000 cycles: 37069797 heartbeat IPC: 1.46943 cumulative IPC: 1.45452 (Simulation time: 0 hr 35 min 19 sec) 
Heartbeat CPU 0 instructions: 73000003 cycles: 37766303 heartbeat IPC: 1.43574 cumulative IPC: 1.45369 (Simulation time: 0 hr 35 min 52 sec) 
Heartbeat CPU 0 instructions: 74000003 cycles: 38445838 heartbeat IPC: 1.47159 cumulative IPC: 1.45443 (Simulation time: 0 hr 36 min 24 sec) 
Heartbeat CPU 0 instructions: 75000003 cycles: 39138500 heartbeat IPC: 1.44371 cumulative IPC: 1.454 (Simulation time: 0 hr 37 min 3 sec) 
Heartbeat CPU 0 instructions: 76000000 cycles: 39819847 heartbeat IPC: 1.46768 cumulative IPC: 1.45452 (Simulation time: 0 hr 37 min 35 sec) 
Heartbeat CPU 0 instructions: 77000000 cycles: 40518794 heartbeat IPC: 1.43072 cumulative IPC: 1.45362 (Simulation time: 0 hr 38 min 10 sec) 
Heartbeat CPU 0 instructions: 78000002 cycles: 41205931 heartbeat IPC: 1.45532 cumulative IPC: 1.45368 (Simulation time: 0 hr 38 min 43 sec) 
Heartbeat CPU 0 instructions: 79000000 cycles: 41898412 heartbeat IPC: 1.44408 cumulative IPC: 1.45335 (Simulation time: 0 hr 39 min 12 sec) 
Heartbeat CPU 0 instructions: 80000000 cycles: 42578213 heartbeat IPC: 1.47102 cumulative IPC: 1.45393 (Simulation time: 0 hr 39 min 44 sec) 
Heartbeat CPU 0 instructions: 81000003 cycles: 43274092 heartbeat IPC: 1.43704 cumulative IPC: 1.45338 (Simulation time: 0 hr 40 min 15 sec) 
Heartbeat CPU 0 instructions: 82000000 cycles: 43957581 heartbeat IPC: 1.46308 cumulative IPC: 1.45368 (Simulation time: 0 hr 40 min 43 sec) 
Heartbeat CPU 0 instructions: 83000002 cycles: 44638167 heartbeat IPC: 1.46932 cumulative IPC: 1.45415 (Simulation time: 0 hr 41 min 13 sec) 
Heartbeat CPU 0 instructions: 84000000 cycles: 45330973 heartbeat IPC: 1.4434 cumulative IPC: 1.45383 (Simulation time: 0 hr 41 min 45 sec) 
Heartbeat CPU 0 instructions: 85000001 cycles: 46011718 heartbeat IPC: 1.46898 cumulative IPC: 1.45426 (Simulation time: 0 hr 42 min 16 sec) 
Heartbeat CPU 0 instructions: 86000001 cycles: 46705261 heartbeat IPC: 1.44187 cumulative IPC: 1.45392 (Simulation time: 0 hr 42 min 50 sec) 
Heartbeat CPU 0 instructions: 87000001 cycles: 47388618 heartbeat IPC: 1.46336 cumulative IPC: 1.45417 (Simulation time: 0 hr 43 min 19 sec) 
Heartbeat CPU 0 instructions: 88000000 cycles: 48080602 heartbeat IPC: 1.44512 cumulative IPC: 1.45393 (Simulation time: 0 hr 43 min 50 sec) 
Heartbeat CPU 0 instructions: 89000003 cycles: 48761906 heartbeat IPC: 1.46778 cumulative IPC: 1.45428 (Simulation time: 0 hr 44 min 21 sec) 
Heartbeat CPU 0 instructions: 90000001 cycles: 49456478 heartbeat IPC: 1.43973 cumulative IPC: 1.45391 (Simulation time: 0 hr 44 min 52 sec) 
Heartbeat CPU 0 instructions: 91000002 cycles: 50142854 heartbeat IPC: 1.45693 cumulative IPC: 1.45399 (Simulation time: 0 hr 45 min 21 sec) 
Heartbeat CPU 0 instructions: 92000000 cycles: 50838406 heartbeat IPC: 1.4377 cumulative IPC: 1.4536 (Simulation time: 0 hr 45 min 53 sec) 
Heartbeat CPU 0 instructions: 93000001 cycles: 51520229 heartbeat IPC: 1.46666 cumulative IPC: 1.4539 (Simulation time: 0 hr 46 min 25 sec) 
Heartbeat CPU 0 instructions: 94000003 cycles: 52216855 heartbeat IPC: 1.43549 cumulative IPC: 1.45347 (Simulation time: 0 hr 46 min 56 sec) 
Heartbeat CPU 0 instructions: 95000003 cycles: 52904651 heartbeat IPC: 1.45392 cumulative IPC: 1.45348 (Simulation time: 0 hr 47 min 27 sec) 
Heartbeat CPU 0 instructions: 96000000 cycles: 53593921 heartbeat IPC: 1.45081 cumulative IPC: 1.45342 (Simulation time: 0 hr 47 min 57 sec) 
Heartbeat CPU 0 instructions: 97000000 cycles: 54288201 heartbeat IPC: 1.44034 cumulative IPC: 1.45314 (Simulation time: 0 hr 48 min 33 sec) 
Heartbeat CPU 0 instructions: 98000001 cycles: 54967949 heartbeat IPC: 1.47113 cumulative IPC: 1.45351 (Simulation time: 0 hr 49 min 7 sec) 
Heartbeat CPU 0 instructions: 99000001 cycles: 55673830 heartbeat IPC: 1.41667 cumulative IPC: 1.45274 (Simulation time: 0 hr 49 min 44 sec) 
Heartbeat CPU 0 instructions: 100000000 cycles: 56371561 heartbeat IPC: 1.43322 cumulative IPC: 1.45235 (Simulation time: 0 hr 50 min 16 sec) 
Heartbeat CPU 0 instructions: 101000002 cycles: 57076544 heartbeat IPC: 1.41848 cumulative IPC: 1.45167 (Simulation time: 0 hr 50 min 46 sec) 
Heartbeat CPU 0 instructions: 102000003 cycles: 57769966 heartbeat IPC: 1.44212 cumulative IPC: 1.45148 (Simulation time: 0 hr 51 min 17 sec) 
Heartbeat CPU 0 instructions: 103000001 cycles: 58480358 heartbeat IPC: 1.40767 cumulative IPC: 1.45063 (Simulation time: 0 hr 51 min 49 sec) 
Heartbeat CPU 0 instructions: 104000000 cycles: 59172149 heartbeat IPC: 1.44552 cumulative IPC: 1.45054 (Simulation time: 0 hr 52 min 21 sec) 
Heartbeat CPU 0 instructions: 105000003 cycles: 59877494 heartbeat IPC: 1.41775 cumulative IPC: 1.44993 (Simulation time: 0 hr 52 min 52 sec) 
Heartbeat CPU 0 instructions: 106000002 cycles: 60569029 heartbeat IPC: 1.44606 cumulative IPC: 1.44986 (Simulation time: 0 hr 53 min 22 sec) 
Heartbeat CPU 0 instructions: 107000000 cycles: 61269458 heartbeat IPC: 1.42769 cumulative IPC: 1.44946 (Simulation time: 0 hr 53 min 57 sec) 
Heartbeat CPU 0 instructions: 108000000 cycles: 61951744 heartbeat IPC: 1.46566 cumulative IPC: 1.44974 (Simulation time: 0 hr 54 min 28 sec) 
Heartbeat CPU 0 instructions: 109000002 cycles: 62633600 heartbeat IPC: 1.46659 cumulative IPC: 1.45002 (Simulation time: 0 hr 54 min 58 sec) 
Heartbeat CPU 0 instructions: 110000000 cycles: 63327070 heartbeat IPC: 1.44202 cumulative IPC: 1.44989 (Simulation time: 0 hr 55 min 30 sec) 
Heartbeat CPU 0 instructions: 111000002 cycles: 64009005 heartbeat IPC: 1.46642 cumulative IPC: 1.45016 (Simulation time: 0 hr 56 min 3 sec) 
Heartbeat CPU 0 instructions: 112000000 cycles: 64699893 heartbeat IPC: 1.44741 cumulative IPC: 1.45011 (Simulation time: 0 hr 56 min 36 sec) 
Heartbeat CPU 0 instructions: 113000001 cycles: 65381170 heartbeat IPC: 1.46783 cumulative IPC: 1.45039 (Simulation time: 0 hr 57 min 7 sec) 
Heartbeat CPU 0 instructions: 114000002 cycles: 66082380 heartbeat IPC: 1.42611 cumulative IPC: 1.45 (Simulation time: 0 hr 57 min 38 sec) 
Heartbeat CPU 0 instructions: 115000000 cycles: 66767472 heartbeat IPC: 1.45966 cumulative IPC: 1.45015 (Simulation time: 0 hr 58 min 12 sec) 
Heartbeat CPU 0 instructions: 116000000 cycles: 67460507 heartbeat IPC: 1.44293 cumulative IPC: 1.45004 (Simulation time: 0 hr 58 min 42 sec) 
Heartbeat CPU 0 instructions: 117000003 cycles: 68140438 heartbeat IPC: 1.47074 cumulative IPC: 1.45035 (Simulation time: 0 hr 59 min 12 sec) 
Heartbeat CPU 0 instructions: 118000001 cycles: 68837278 heartbeat IPC: 1.43505 cumulative IPC: 1.45012 (Simulation time: 0 hr 59 min 44 sec) 
Heartbeat CPU 0 instructions: 119000003 cycles: 69519984 heartbeat IPC: 1.46476 cumulative IPC: 1.45033 (Simulation time: 1 hr 0 min 17 sec) 
Heartbeat CPU 0 instructions: 120000000 cycles: 70209178 heartbeat IPC: 1.45097 cumulative IPC: 1.45034 (Simulation time: 1 hr 0 min 51 sec) 
Heartbeat CPU 0 instructions: 121000000 cycles: 70888405 heartbeat IPC: 1.47226 cumulative IPC: 1.45064 (Simulation time: 1 hr 1 min 20 sec) 
Heartbeat CPU 0 instructions: 122000001 cycles: 71574354 heartbeat IPC: 1.45784 cumulative IPC: 1.45074 (Simulation time: 1 hr 1 min 51 sec) 
Heartbeat CPU 0 instructions: 123000001 cycles: 72265729 heartbeat IPC: 1.44639 cumulative IPC: 1.45068 (Simulation time: 1 hr 2 min 25 sec) 
Heartbeat CPU 0 instructions: 124000000 cycles: 72943362 heartbeat IPC: 1.47572 cumulative IPC: 1.45101 (Simulation time: 1 hr 2 min 59 sec) 
Heartbeat CPU 0 instructions: 125000002 cycles: 73635724 heartbeat IPC: 1.44433 cumulative IPC: 1.45092 (Simulation time: 1 hr 3 min 37 sec) 
Heartbeat CPU 0 instructions: 126000001 cycles: 74317152 heartbeat IPC: 1.4675 cumulative IPC: 1.45114 (Simulation time: 1 hr 4 min 6 sec) 
Heartbeat CPU 0 instructions: 127000002 cycles: 75009180 heartbeat IPC: 1.44503 cumulative IPC: 1.45106 (Simulation time: 1 hr 4 min 40 sec) 
Heartbeat CPU 0 instructions: 128000000 cycles: 75688743 heartbeat IPC: 1.47153 cumulative IPC: 1.45132 (Simulation time: 1 hr 5 min 7 sec) 
Heartbeat CPU 0 instructions: 129000001 cycles: 76379227 heartbeat IPC: 1.44826 cumulative IPC: 1.45128 (Simulation time: 1 hr 5 min 35 sec) 
Heartbeat CPU 0 instructions: 130000002 cycles: 77060543 heartbeat IPC: 1.46775 cumulative IPC: 1.45148 (Simulation time: 1 hr 6 min 5 sec) 
Heartbeat CPU 0 instructions: 131000000 cycles: 77751427 heartbeat IPC: 1.44742 cumulative IPC: 1.45143 (Simulation time: 1 hr 6 min 36 sec) 
Heartbeat CPU 0 instructions: 132000000 cycles: 78431178 heartbeat IPC: 1.47113 cumulative IPC: 1.45167 (Simulation time: 1 hr 7 min 9 sec) 
Heartbeat CPU 0 instructions: 133000001 cycles: 79124580 heartbeat IPC: 1.44217 cumulative IPC: 1.45156 (Simulation time: 1 hr 7 min 43 sec) 
Heartbeat CPU 0 instructions: 134000000 cycles: 79805981 heartbeat IPC: 1.46756 cumulative IPC: 1.45174 (Simulation time: 1 hr 8 min 12 sec) 
Heartbeat CPU 0 instructions: 135000001 cycles: 80496318 heartbeat IPC: 1.44857 cumulative IPC: 1.45171 (Simulation time: 1 hr 8 min 40 sec) 
Heartbeat CPU 0 instructions: 136000000 cycles: 81180083 heartbeat IPC: 1.46249 cumulative IPC: 1.45183 (Simulation time: 1 hr 9 min 8 sec) 
Heartbeat CPU 0 instructions: 137000001 cycles: 81861608 heartbeat IPC: 1.4673 cumulative IPC: 1.45201 (Simulation time: 1 hr 9 min 36 sec) 
Heartbeat CPU 0 instructions: 138000002 cycles: 82553853 heartbeat IPC: 1.44458 cumulative IPC: 1.45192 (Simulation time: 1 hr 10 min 3 sec) 
Heartbeat CPU 0 instructions: 139000002 cycles: 83237346 heartbeat IPC: 1.46307 cumulative IPC: 1.45205 (Simulation time: 1 hr 10 min 29 sec) 
Heartbeat CPU 0 instructions: 140000000 cycles: 83935508 heartbeat IPC: 1.43233 cumulative IPC: 1.45182 (Simulation time: 1 hr 10 min 54 sec) 
Heartbeat CPU 0 instructions: 141000001 cycles: 84614421 heartbeat IPC: 1.47294 cumulative IPC: 1.45205 (Simulation time: 1 hr 11 min 22 sec) 
Heartbeat CPU 0 instructions: 142000001 cycles: 85308393 heartbeat IPC: 1.44098 cumulative IPC: 1.45193 (Simulation time: 1 hr 11 min 50 sec) 
Heartbeat CPU 0 instructions: 143000000 cycles: 85989944 heartbeat IPC: 1.46724 cumulative IPC: 1.45209 (Simulation time: 1 hr 12 min 16 sec) 
Heartbeat CPU 0 instructions: 144000000 cycles: 86683458 heartbeat IPC: 1.44193 cumulative IPC: 1.45199 (Simulation time: 1 hr 12 min 43 sec) 
Heartbeat CPU 0 instructions: 145000001 cycles: 87362579 heartbeat IPC: 1.47249 cumulative IPC: 1.4522 (Simulation time: 1 hr 13 min 8 sec) 
Heartbeat CPU 0 instructions: 146000003 cycles: 88060880 heartbeat IPC: 1.43205 cumulative IPC: 1.45199 (Simulation time: 1 hr 13 min 34 sec) 
Heartbeat CPU 0 instructions: 147000002 cycles: 88744650 heartbeat IPC: 1.46248 cumulative IPC: 1.45209 (Simulation time: 1 hr 13 min 57 sec) 
Heartbeat CPU 0 instructions: 148000000 cycles: 89437770 heartbeat IPC: 1.44275 cumulative IPC: 1.452 (Simulation time: 1 hr 14 min 21 sec) 
Heartbeat CPU 0 instructions: 149000001 cycles: 90126009 heartbeat IPC: 1.45299 cumulative IPC: 1.45201 (Simulation time: 1 hr 14 min 43 sec) 
Heartbeat CPU 0 instructions: 150000001 cycles: 90808836 heartbeat IPC: 1.4645 cumulative IPC: 1.45213 (Simulation time: 1 hr 15 min 5 sec) 
Finished CPU 0 instructions: 100000002 cycles: 68864300 cummulative IPC: 1.45213 (Simulation time: 1 hr 15 min 5 sec) 

ChampSim completed all CPUs

Region of Interest Statistics

CPU 0 cummulative IPC: 1.45213 instructions: 100000002 cycles: 68864300
LLC TOTAL     ACCESS:     824394  HIT:     148815  MISS:     675579
LLC LOAD      ACCESS:      16607  HIT:       7681  MISS:       8926
LLC RFO       ACCESS:     202190  HIT:       3663  MISS:     198527
LLC PREFETCH  ACCESS:     402984  HIT:     103080  MISS:     299904
LLC WRITEBACK ACCESS:     202613  HIT:      34391  MISS:     168222
OPTgen accesses: 5434
OPTgen hits: 1514
OPTgen hit rate: 27.8616


