
*** ChampSim Multicore Out-of-Order Simulator ***

Warmup Instructions: 50000000
Simulation Instructions: 100000000
Configuration: 2
Number of CPUs: 1
LLC sets: 2048
LLC ways: 16
Off-chip DRAM Channels: 1 Width: 64-bit Data Rate: 1600 MT/s

CPU 0 runs /datasets/cs240c-wi22-a00-public/data/Assignment2-gz/bzip2_259B.trace.gz
CPU 0 L1D next line prefetcher
CPU 0 L2C IP-based stride prefetcher
Initialize Hawkeye state
Heartbeat CPU 0 instructions: 1000002 cycles: 428875 heartbeat IPC: 2.33169 cumulative IPC: 2.33169 (Simulation time: 0 hr 0 min 35 sec) 
Heartbeat CPU 0 instructions: 2000003 cycles: 861057 heartbeat IPC: 2.31384 cumulative IPC: 2.32273 (Simulation time: 0 hr 1 min 11 sec) 
Heartbeat CPU 0 instructions: 3000001 cycles: 1286790 heartbeat IPC: 2.34889 cumulative IPC: 2.33138 (Simulation time: 0 hr 1 min 46 sec) 
Heartbeat CPU 0 instructions: 4000000 cycles: 1685062 heartbeat IPC: 2.51084 cumulative IPC: 2.3738 (Simulation time: 0 hr 2 min 17 sec) 
Heartbeat CPU 0 instructions: 5000001 cycles: 2103495 heartbeat IPC: 2.38987 cumulative IPC: 2.377 (Simulation time: 0 hr 2 min 56 sec) 
Heartbeat CPU 0 instructions: 6000001 cycles: 2532858 heartbeat IPC: 2.32903 cumulative IPC: 2.36887 (Simulation time: 0 hr 3 min 32 sec) 
Heartbeat CPU 0 instructions: 7000003 cycles: 2961906 heartbeat IPC: 2.33075 cumulative IPC: 2.36334 (Simulation time: 0 hr 4 min 4 sec) 
Heartbeat CPU 0 instructions: 8000000 cycles: 3391719 heartbeat IPC: 2.32659 cumulative IPC: 2.35869 (Simulation time: 0 hr 4 min 38 sec) 
Heartbeat CPU 0 instructions: 9000000 cycles: 3819845 heartbeat IPC: 2.33576 cumulative IPC: 2.35612 (Simulation time: 0 hr 5 min 12 sec) 
Heartbeat CPU 0 instructions: 10000002 cycles: 4193917 heartbeat IPC: 2.67329 cumulative IPC: 2.38441 (Simulation time: 0 hr 5 min 43 sec) 
Heartbeat CPU 0 instructions: 11000003 cycles: 4560316 heartbeat IPC: 2.72927 cumulative IPC: 2.41211 (Simulation time: 0 hr 6 min 7 sec) 
Heartbeat CPU 0 instructions: 12000000 cycles: 5001191 heartbeat IPC: 2.26821 cumulative IPC: 2.39943 (Simulation time: 0 hr 6 min 38 sec) 
Heartbeat CPU 0 instructions: 13000003 cycles: 5458025 heartbeat IPC: 2.18899 cumulative IPC: 2.38181 (Simulation time: 0 hr 7 min 6 sec) 
Heartbeat CPU 0 instructions: 14000002 cycles: 5909699 heartbeat IPC: 2.21398 cumulative IPC: 2.36899 (Simulation time: 0 hr 7 min 41 sec) 
Heartbeat CPU 0 instructions: 15000003 cycles: 6349535 heartbeat IPC: 2.27358 cumulative IPC: 2.36238 (Simulation time: 0 hr 8 min 10 sec) 
Heartbeat CPU 0 instructions: 16000000 cycles: 6790847 heartbeat IPC: 2.26596 cumulative IPC: 2.35611 (Simulation time: 0 hr 8 min 40 sec) 
Heartbeat CPU 0 instructions: 17000003 cycles: 7220656 heartbeat IPC: 2.32662 cumulative IPC: 2.35436 (Simulation time: 0 hr 9 min 14 sec) 
Heartbeat CPU 0 instructions: 18000000 cycles: 7665091 heartbeat IPC: 2.25004 cumulative IPC: 2.34831 (Simulation time: 0 hr 9 min 41 sec) 
Heartbeat CPU 0 instructions: 19000002 cycles: 8147886 heartbeat IPC: 2.07128 cumulative IPC: 2.33189 (Simulation time: 0 hr 10 min 3 sec) 
Heartbeat CPU 0 instructions: 20000000 cycles: 8643239 heartbeat IPC: 2.01876 cumulative IPC: 2.31395 (Simulation time: 0 hr 10 min 29 sec) 
Heartbeat CPU 0 instructions: 21000001 cycles: 9135536 heartbeat IPC: 2.0313 cumulative IPC: 2.29872 (Simulation time: 0 hr 10 min 52 sec) 
Heartbeat CPU 0 instructions: 22000002 cycles: 9619242 heartbeat IPC: 2.06737 cumulative IPC: 2.28708 (Simulation time: 0 hr 11 min 18 sec) 
Heartbeat CPU 0 instructions: 23000003 cycles: 10104880 heartbeat IPC: 2.05915 cumulative IPC: 2.27613 (Simulation time: 0 hr 11 min 41 sec) 
Heartbeat CPU 0 instructions: 24000000 cycles: 10588647 heartbeat IPC: 2.0671 cumulative IPC: 2.26658 (Simulation time: 0 hr 12 min 6 sec) 
Heartbeat CPU 0 instructions: 25000000 cycles: 11073913 heartbeat IPC: 2.06073 cumulative IPC: 2.25756 (Simulation time: 0 hr 12 min 29 sec) 
Heartbeat CPU 0 instructions: 26000003 cycles: 11575248 heartbeat IPC: 1.99468 cumulative IPC: 2.24617 (Simulation time: 0 hr 12 min 53 sec) 
Heartbeat CPU 0 instructions: 27000000 cycles: 12067734 heartbeat IPC: 2.03051 cumulative IPC: 2.23737 (Simulation time: 0 hr 13 min 13 sec) 
Heartbeat CPU 0 instructions: 28000000 cycles: 12556510 heartbeat IPC: 2.04593 cumulative IPC: 2.22992 (Simulation time: 0 hr 13 min 35 sec) 
Heartbeat CPU 0 instructions: 29000000 cycles: 13046259 heartbeat IPC: 2.04186 cumulative IPC: 2.22286 (Simulation time: 0 hr 13 min 56 sec) 
Heartbeat CPU 0 instructions: 30000000 cycles: 13547976 heartbeat IPC: 1.99316 cumulative IPC: 2.21435 (Simulation time: 0 hr 14 min 21 sec) 
Heartbeat CPU 0 instructions: 31000000 cycles: 14111762 heartbeat IPC: 1.77372 cumulative IPC: 2.19675 (Simulation time: 0 hr 14 min 45 sec) 
Heartbeat CPU 0 instructions: 32000000 cycles: 14704895 heartbeat IPC: 1.68596 cumulative IPC: 2.17615 (Simulation time: 0 hr 15 min 10 sec) 
Heartbeat CPU 0 instructions: 33000003 cycles: 15227553 heartbeat IPC: 1.9133 cumulative IPC: 2.16712 (Simulation time: 0 hr 15 min 34 sec) 
Heartbeat CPU 0 instructions: 34000002 cycles: 15629027 heartbeat IPC: 2.49082 cumulative IPC: 2.17544 (Simulation time: 0 hr 15 min 59 sec) 
Heartbeat CPU 0 instructions: 35000003 cycles: 16028400 heartbeat IPC: 2.50393 cumulative IPC: 2.18362 (Simulation time: 0 hr 16 min 21 sec) 
Heartbeat CPU 0 instructions: 36000000 cycles: 16469401 heartbeat IPC: 2.26756 cumulative IPC: 2.18587 (Simulation time: 0 hr 16 min 49 sec) 
Heartbeat CPU 0 instructions: 37000000 cycles: 16860803 heartbeat IPC: 2.55492 cumulative IPC: 2.19444 (Simulation time: 0 hr 17 min 18 sec) 
Heartbeat CPU 0 instructions: 38000000 cycles: 17283217 heartbeat IPC: 2.36735 cumulative IPC: 2.19866 (Simulation time: 0 hr 17 min 48 sec) 
Heartbeat CPU 0 instructions: 39000000 cycles: 17714575 heartbeat IPC: 2.31826 cumulative IPC: 2.20158 (Simulation time: 0 hr 18 min 18 sec) 
Heartbeat CPU 0 instructions: 40000000 cycles: 18136290 heartbeat IPC: 2.37127 cumulative IPC: 2.20552 (Simulation time: 0 hr 18 min 49 sec) 
Heartbeat CPU 0 instructions: 41000001 cycles: 18560819 heartbeat IPC: 2.35555 cumulative IPC: 2.20895 (Simulation time: 0 hr 19 min 22 sec) 
Heartbeat CPU 0 instructions: 42000000 cycles: 18998519 heartbeat IPC: 2.28467 cumulative IPC: 2.2107 (Simulation time: 0 hr 19 min 59 sec) 
Heartbeat CPU 0 instructions: 43000003 cycles: 19431469 heartbeat IPC: 2.30974 cumulative IPC: 2.21291 (Simulation time: 0 hr 20 min 32 sec) 
Heartbeat CPU 0 instructions: 44000000 cycles: 19863446 heartbeat IPC: 2.31493 cumulative IPC: 2.21512 (Simulation time: 0 hr 21 min 3 sec) 
Heartbeat CPU 0 instructions: 45000002 cycles: 20294439 heartbeat IPC: 2.32023 cumulative IPC: 2.21736 (Simulation time: 0 hr 21 min 34 sec) 
Heartbeat CPU 0 instructions: 46000001 cycles: 20725852 heartbeat IPC: 2.31796 cumulative IPC: 2.21945 (Simulation time: 0 hr 22 min 3 sec) 
Heartbeat CPU 0 instructions: 47000003 cycles: 21157211 heartbeat IPC: 2.31826 cumulative IPC: 2.22146 (Simulation time: 0 hr 22 min 35 sec) 
Heartbeat CPU 0 instructions: 48000000 cycles: 21590707 heartbeat IPC: 2.30682 cumulative IPC: 2.22318 (Simulation time: 0 hr 23 min 7 sec) 
Heartbeat CPU 0 instructions: 49000003 cycles: 22028811 heartbeat IPC: 2.28257 cumulative IPC: 2.22436 (Simulation time: 0 hr 23 min 37 sec) 
Heartbeat CPU 0 instructions: 50000003 cycles: 22446610 heartbeat IPC: 2.3935 cumulative IPC: 2.22751 (Simulation time: 0 hr 24 min 6 sec) 

Warmup complete CPU 0 instructions: 50000003 cycles: 22446610 (Simulation time: 0 hr 24 min 6 sec) 

Heartbeat CPU 0 instructions: 51000002 cycles: 23610741 heartbeat IPC: 0.859009 cumulative IPC: 0.859009 (Simulation time: 0 hr 24 min 35 sec) 
Heartbeat CPU 0 instructions: 52000000 cycles: 24728902 heartbeat IPC: 0.894324 cumulative IPC: 0.876311 (Simulation time: 0 hr 25 min 3 sec) 
Heartbeat CPU 0 instructions: 53000001 cycles: 25925167 heartbeat IPC: 0.835936 cumulative IPC: 0.862426 (Simulation time: 0 hr 25 min 32 sec) 
Heartbeat CPU 0 instructions: 54000000 cycles: 27150955 heartbeat IPC: 0.815801 cumulative IPC: 0.850277 (Simulation time: 0 hr 26 min 1 sec) 
Heartbeat CPU 0 instructions: 55000000 cycles: 28302558 heartbeat IPC: 0.868355 cumulative IPC: 0.853832 (Simulation time: 0 hr 26 min 28 sec) 
Heartbeat CPU 0 instructions: 56000000 cycles: 29527424 heartbeat IPC: 0.816416 cumulative IPC: 0.84736 (Simulation time: 0 hr 26 min 56 sec) 
Heartbeat CPU 0 instructions: 57000000 cycles: 30748473 heartbeat IPC: 0.818968 cumulative IPC: 0.843184 (Simulation time: 0 hr 27 min 23 sec) 
Heartbeat CPU 0 instructions: 58000002 cycles: 31781778 heartbeat IPC: 0.96777 cumulative IPC: 0.856974 (Simulation time: 0 hr 27 min 53 sec) 
Heartbeat CPU 0 instructions: 59000000 cycles: 32882680 heartbeat IPC: 0.908344 cumulative IPC: 0.862393 (Simulation time: 0 hr 28 min 22 sec) 
Heartbeat CPU 0 instructions: 60000000 cycles: 34062128 heartbeat IPC: 0.847854 cumulative IPC: 0.860917 (Simulation time: 0 hr 28 min 51 sec) 
Heartbeat CPU 0 instructions: 61000000 cycles: 35206266 heartbeat IPC: 0.87402 cumulative IPC: 0.862092 (Simulation time: 0 hr 29 min 24 sec) 
Heartbeat CPU 0 instructions: 62000002 cycles: 36050091 heartbeat IPC: 1.18508 cumulative IPC: 0.882127 (Simulation time: 0 hr 29 min 56 sec) 
Heartbeat CPU 0 instructions: 63000003 cycles: 36954832 heartbeat IPC: 1.10529 cumulative IPC: 0.896044 (Simulation time: 0 hr 30 min 27 sec) 
Heartbeat CPU 0 instructions: 64000000 cycles: 38040457 heartbeat IPC: 0.921126 cumulative IPC: 0.89779 (Simulation time: 0 hr 31 min 1 sec) 
Heartbeat CPU 0 instructions: 65000003 cycles: 39063052 heartbeat IPC: 0.977907 cumulative IPC: 0.90272 (Simulation time: 0 hr 31 min 37 sec) 
Heartbeat CPU 0 instructions: 66000003 cycles: 40032972 heartbeat IPC: 1.03101 cumulative IPC: 0.909796 (Simulation time: 0 hr 32 min 16 sec) 
Heartbeat CPU 0 instructions: 67000003 cycles: 41106559 heartbeat IPC: 0.931457 cumulative IPC: 0.911042 (Simulation time: 0 hr 32 min 51 sec) 
Heartbeat CPU 0 instructions: 68000000 cycles: 42224662 heartbeat IPC: 0.894369 cumulative IPC: 0.9101 (Simulation time: 0 hr 33 min 26 sec) 
Heartbeat CPU 0 instructions: 69000003 cycles: 43374448 heartbeat IPC: 0.86973 cumulative IPC: 0.907882 (Simulation time: 0 hr 34 min 0 sec) 
Heartbeat CPU 0 instructions: 70000003 cycles: 44660042 heartbeat IPC: 0.777851 cumulative IPC: 0.900356 (Simulation time: 0 hr 34 min 36 sec) 
Heartbeat CPU 0 instructions: 71000000 cycles: 45995126 heartbeat IPC: 0.749014 cumulative IPC: 0.891776 (Simulation time: 0 hr 35 min 11 sec) 
Heartbeat CPU 0 instructions: 72000000 cycles: 47132379 heartbeat IPC: 0.879312 cumulative IPC: 0.891202 (Simulation time: 0 hr 35 min 41 sec) 
Heartbeat CPU 0 instructions: 73000003 cycles: 48452909 heartbeat IPC: 0.757274 cumulative IPC: 0.884401 (Simulation time: 0 hr 36 min 15 sec) 
Heartbeat CPU 0 instructions: 74000001 cycles: 49645047 heartbeat IPC: 0.838827 cumulative IPC: 0.882404 (Simulation time: 0 hr 36 min 48 sec) 
Heartbeat CPU 0 instructions: 75000000 cycles: 50799360 heartbeat IPC: 0.866315 cumulative IPC: 0.881749 (Simulation time: 0 hr 37 min 21 sec) 
Heartbeat CPU 0 instructions: 76000000 cycles: 51901961 heartbeat IPC: 0.906946 cumulative IPC: 0.882692 (Simulation time: 0 hr 37 min 52 sec) 
Heartbeat CPU 0 instructions: 77000003 cycles: 52880608 heartbeat IPC: 1.02182 cumulative IPC: 0.887166 (Simulation time: 0 hr 38 min 24 sec) 
Heartbeat CPU 0 instructions: 78000000 cycles: 53862335 heartbeat IPC: 1.01861 cumulative IPC: 0.891273 (Simulation time: 0 hr 39 min 1 sec) 
Heartbeat CPU 0 instructions: 79000003 cycles: 54960703 heartbeat IPC: 0.910444 cumulative IPC: 0.891921 (Simulation time: 0 hr 39 min 35 sec) 
Heartbeat CPU 0 instructions: 80000000 cycles: 56287263 heartbeat IPC: 0.753827 cumulative IPC: 0.886508 (Simulation time: 0 hr 40 min 9 sec) 
Heartbeat CPU 0 instructions: 81000001 cycles: 57463395 heartbeat IPC: 0.850246 cumulative IPC: 0.88529 (Simulation time: 0 hr 40 min 44 sec) 
Heartbeat CPU 0 instructions: 82000003 cycles: 58589624 heartbeat IPC: 0.887921 cumulative IPC: 0.885372 (Simulation time: 0 hr 41 min 16 sec) 
Heartbeat CPU 0 instructions: 83000002 cycles: 59671627 heartbeat IPC: 0.924211 cumulative IPC: 0.886501 (Simulation time: 0 hr 41 min 46 sec) 
Heartbeat CPU 0 instructions: 84000000 cycles: 60630271 heartbeat IPC: 1.04314 cumulative IPC: 0.890433 (Simulation time: 0 hr 42 min 22 sec) 
Heartbeat CPU 0 instructions: 85000003 cycles: 61590037 heartbeat IPC: 1.04192 cumulative IPC: 0.894148 (Simulation time: 0 hr 42 min 52 sec) 
Heartbeat CPU 0 instructions: 86000003 cycles: 62643118 heartbeat IPC: 0.949595 cumulative IPC: 0.8956 (Simulation time: 0 hr 43 min 21 sec) 
Heartbeat CPU 0 instructions: 87000002 cycles: 63680852 heartbeat IPC: 0.963637 cumulative IPC: 0.897312 (Simulation time: 0 hr 43 min 51 sec) 
Heartbeat CPU 0 instructions: 88000000 cycles: 64806468 heartbeat IPC: 0.888401 cumulative IPC: 0.897076 (Simulation time: 0 hr 44 min 20 sec) 
Heartbeat CPU 0 instructions: 89000002 cycles: 65812834 heartbeat IPC: 0.993676 cumulative IPC: 0.899317 (Simulation time: 0 hr 44 min 52 sec) 
Heartbeat CPU 0 instructions: 90000001 cycles: 66937558 heartbeat IPC: 0.889106 cumulative IPC: 0.899059 (Simulation time: 0 hr 45 min 20 sec) 
Heartbeat CPU 0 instructions: 91000002 cycles: 68051450 heartbeat IPC: 0.897754 cumulative IPC: 0.899027 (Simulation time: 0 hr 45 min 49 sec) 
Heartbeat CPU 0 instructions: 92000000 cycles: 69089893 heartbeat IPC: 0.962978 cumulative IPC: 0.900451 (Simulation time: 0 hr 46 min 21 sec) 
Heartbeat CPU 0 instructions: 93000000 cycles: 70279731 heartbeat IPC: 0.840451 cumulative IPC: 0.898959 (Simulation time: 0 hr 46 min 51 sec) 
Heartbeat CPU 0 instructions: 94000003 cycles: 71455921 heartbeat IPC: 0.850205 cumulative IPC: 0.897789 (Simulation time: 0 hr 47 min 19 sec) 
Heartbeat CPU 0 instructions: 95000002 cycles: 72641874 heartbeat IPC: 0.843203 cumulative IPC: 0.896499 (Simulation time: 0 hr 47 min 45 sec) 
Heartbeat CPU 0 instructions: 96000000 cycles: 73812540 heartbeat IPC: 0.854213 cumulative IPC: 0.895535 (Simulation time: 0 hr 48 min 11 sec) 
Heartbeat CPU 0 instructions: 97000002 cycles: 75029450 heartbeat IPC: 0.821755 cumulative IPC: 0.893828 (Simulation time: 0 hr 48 min 38 sec) 
Heartbeat CPU 0 instructions: 98000000 cycles: 76263063 heartbeat IPC: 0.810625 cumulative IPC: 0.891921 (Simulation time: 0 hr 49 min 8 sec) 
Heartbeat CPU 0 instructions: 99000000 cycles: 77503213 heartbeat IPC: 0.806354 cumulative IPC: 0.889993 (Simulation time: 0 hr 49 min 38 sec) 
Heartbeat CPU 0 instructions: 100000000 cycles: 78745280 heartbeat IPC: 0.80511 cumulative IPC: 0.88812 (Simulation time: 0 hr 50 min 6 sec) 
Heartbeat CPU 0 instructions: 101000003 cycles: 79893232 heartbeat IPC: 0.871119 cumulative IPC: 0.887781 (Simulation time: 0 hr 50 min 33 sec) 
Heartbeat CPU 0 instructions: 102000000 cycles: 81013224 heartbeat IPC: 0.892861 cumulative IPC: 0.887878 (Simulation time: 0 hr 51 min 0 sec) 
Heartbeat CPU 0 instructions: 103000000 cycles: 82114582 heartbeat IPC: 0.90797 cumulative IPC: 0.888249 (Simulation time: 0 hr 51 min 27 sec) 
Heartbeat CPU 0 instructions: 104000000 cycles: 83268974 heartbeat IPC: 0.866257 cumulative IPC: 0.887831 (Simulation time: 0 hr 51 min 53 sec) 
Heartbeat CPU 0 instructions: 105000002 cycles: 84480977 heartbeat IPC: 0.825082 cumulative IPC: 0.886605 (Simulation time: 0 hr 52 min 20 sec) 
Heartbeat CPU 0 instructions: 106000001 cycles: 85614537 heartbeat IPC: 0.882176 cumulative IPC: 0.886526 (Simulation time: 0 hr 52 min 51 sec) 
Heartbeat CPU 0 instructions: 107000000 cycles: 86819143 heartbeat IPC: 0.830146 cumulative IPC: 0.885471 (Simulation time: 0 hr 53 min 23 sec) 
Heartbeat CPU 0 instructions: 108000000 cycles: 88019634 heartbeat IPC: 0.832992 cumulative IPC: 0.88451 (Simulation time: 0 hr 53 min 58 sec) 
Heartbeat CPU 0 instructions: 109000000 cycles: 89031978 heartbeat IPC: 0.987806 cumulative IPC: 0.886081 (Simulation time: 0 hr 54 min 25 sec) 
Heartbeat CPU 0 instructions: 110000000 cycles: 90194389 heartbeat IPC: 0.860281 cumulative IPC: 0.885638 (Simulation time: 0 hr 54 min 55 sec) 
Heartbeat CPU 0 instructions: 111000002 cycles: 91319444 heartbeat IPC: 0.888847 cumulative IPC: 0.88569 (Simulation time: 0 hr 55 min 21 sec) 
Heartbeat CPU 0 instructions: 112000000 cycles: 92467810 heartbeat IPC: 0.870801 cumulative IPC: 0.885446 (Simulation time: 0 hr 55 min 48 sec) 
Heartbeat CPU 0 instructions: 113000003 cycles: 93398142 heartbeat IPC: 1.07489 cumulative IPC: 0.88793 (Simulation time: 0 hr 56 min 21 sec) 
Heartbeat CPU 0 instructions: 114000001 cycles: 94139428 heartbeat IPC: 1.349 cumulative IPC: 0.892697 (Simulation time: 0 hr 56 min 54 sec) 
Heartbeat CPU 0 instructions: 115000000 cycles: 95265610 heartbeat IPC: 0.887955 cumulative IPC: 0.892624 (Simulation time: 0 hr 57 min 34 sec) 
Heartbeat CPU 0 instructions: 116000000 cycles: 96241579 heartbeat IPC: 1.02462 cumulative IPC: 0.89437 (Simulation time: 0 hr 58 min 12 sec) 
Heartbeat CPU 0 instructions: 117000003 cycles: 97195843 heartbeat IPC: 1.04793 cumulative IPC: 0.89633 (Simulation time: 0 hr 58 min 45 sec) 
Heartbeat CPU 0 instructions: 118000001 cycles: 98135072 heartbeat IPC: 1.0647 cumulative IPC: 0.89842 (Simulation time: 0 hr 59 min 21 sec) 
Heartbeat CPU 0 instructions: 119000001 cycles: 99207986 heartbeat IPC: 0.932041 cumulative IPC: 0.89889 (Simulation time: 1 hr 0 min 0 sec) 
Heartbeat CPU 0 instructions: 120000000 cycles: 100413643 heartbeat IPC: 0.829422 cumulative IPC: 0.897815 (Simulation time: 1 hr 0 min 43 sec) 
Heartbeat CPU 0 instructions: 121000002 cycles: 101568060 heartbeat IPC: 0.86624 cumulative IPC: 0.897355 (Simulation time: 1 hr 1 min 24 sec) 
Heartbeat CPU 0 instructions: 122000000 cycles: 103096165 heartbeat IPC: 0.654404 cumulative IPC: 0.892751 (Simulation time: 1 hr 2 min 0 sec) 
Heartbeat CPU 0 instructions: 123000000 cycles: 104424424 heartbeat IPC: 0.752865 cumulative IPC: 0.890485 (Simulation time: 1 hr 2 min 41 sec) 
Heartbeat CPU 0 instructions: 124000000 cycles: 105694842 heartbeat IPC: 0.787143 cumulative IPC: 0.888908 (Simulation time: 1 hr 3 min 15 sec) 
Heartbeat CPU 0 instructions: 125000001 cycles: 106894607 heartbeat IPC: 0.833497 cumulative IPC: 0.888121 (Simulation time: 1 hr 3 min 50 sec) 
Heartbeat CPU 0 instructions: 126000002 cycles: 107922097 heartbeat IPC: 0.973246 cumulative IPC: 0.889144 (Simulation time: 1 hr 4 min 25 sec) 
Heartbeat CPU 0 instructions: 127000001 cycles: 108972295 heartbeat IPC: 0.9522 cumulative IPC: 0.889909 (Simulation time: 1 hr 4 min 54 sec) 
Heartbeat CPU 0 instructions: 128000000 cycles: 110066245 heartbeat IPC: 0.914118 cumulative IPC: 0.890211 (Simulation time: 1 hr 5 min 24 sec) 
Heartbeat CPU 0 instructions: 129000003 cycles: 111262903 heartbeat IPC: 0.835663 cumulative IPC: 0.889476 (Simulation time: 1 hr 5 min 56 sec) 
Heartbeat CPU 0 instructions: 130000001 cycles: 112560905 heartbeat IPC: 0.770413 cumulative IPC: 0.887761 (Simulation time: 1 hr 6 min 29 sec) 
Heartbeat CPU 0 instructions: 131000003 cycles: 113812774 heartbeat IPC: 0.798807 cumulative IPC: 0.886543 (Simulation time: 1 hr 7 min 6 sec) 
Heartbeat CPU 0 instructions: 132000000 cycles: 114858549 heartbeat IPC: 0.956226 cumulative IPC: 0.887331 (Simulation time: 1 hr 7 min 36 sec) 
Heartbeat CPU 0 instructions: 133000001 cycles: 115853078 heartbeat IPC: 1.0055 cumulative IPC: 0.888589 (Simulation time: 1 hr 8 min 3 sec) 
Heartbeat CPU 0 instructions: 134000002 cycles: 116842073 heartbeat IPC: 1.01113 cumulative IPC: 0.889873 (Simulation time: 1 hr 8 min 34 sec) 
Heartbeat CPU 0 instructions: 135000000 cycles: 117848711 heartbeat IPC: 0.993404 cumulative IPC: 0.890966 (Simulation time: 1 hr 9 min 4 sec) 
Heartbeat CPU 0 instructions: 136000000 cycles: 118780344 heartbeat IPC: 1.07338 cumulative IPC: 0.89273 (Simulation time: 1 hr 9 min 33 sec) 
Heartbeat CPU 0 instructions: 137000000 cycles: 119715204 heartbeat IPC: 1.06968 cumulative IPC: 0.894431 (Simulation time: 1 hr 9 min 59 sec) 
Heartbeat CPU 0 instructions: 138000003 cycles: 120644847 heartbeat IPC: 1.07569 cumulative IPC: 0.896146 (Simulation time: 1 hr 10 min 26 sec) 
Heartbeat CPU 0 instructions: 139000001 cycles: 121716900 heartbeat IPC: 0.932788 cumulative IPC: 0.896542 (Simulation time: 1 hr 10 min 53 sec) 
Heartbeat CPU 0 instructions: 140000000 cycles: 122739927 heartbeat IPC: 0.97749 cumulative IPC: 0.897368 (Simulation time: 1 hr 11 min 17 sec) 
Heartbeat CPU 0 instructions: 141000000 cycles: 123813283 heartbeat IPC: 0.931657 cumulative IPC: 0.897731 (Simulation time: 1 hr 11 min 40 sec) 
Heartbeat CPU 0 instructions: 142000000 cycles: 124731035 heartbeat IPC: 1.08962 cumulative IPC: 0.899453 (Simulation time: 1 hr 12 min 6 sec) 
Heartbeat CPU 0 instructions: 143000001 cycles: 125525567 heartbeat IPC: 1.2586 cumulative IPC: 0.902221 (Simulation time: 1 hr 12 min 31 sec) 
Heartbeat CPU 0 instructions: 144000000 cycles: 126348247 heartbeat IPC: 1.21554 cumulative IPC: 0.904702 (Simulation time: 1 hr 12 min 54 sec) 
Heartbeat CPU 0 instructions: 145000001 cycles: 127345234 heartbeat IPC: 1.00302 cumulative IPC: 0.905636 (Simulation time: 1 hr 13 min 17 sec) 
Heartbeat CPU 0 instructions: 146000000 cycles: 128298581 heartbeat IPC: 1.04893 cumulative IPC: 0.906927 (Simulation time: 1 hr 13 min 40 sec) 
Heartbeat CPU 0 instructions: 147000001 cycles: 129302232 heartbeat IPC: 0.996363 cumulative IPC: 0.907767 (Simulation time: 1 hr 14 min 3 sec) 
Heartbeat CPU 0 instructions: 148000000 cycles: 130280002 heartbeat IPC: 1.02273 cumulative IPC: 0.908809 (Simulation time: 1 hr 14 min 26 sec) 
Heartbeat CPU 0 instructions: 149000003 cycles: 131272971 heartbeat IPC: 1.00708 cumulative IPC: 0.909706 (Simulation time: 1 hr 14 min 49 sec) 
Heartbeat CPU 0 instructions: 150000003 cycles: 132285397 heartbeat IPC: 0.987727 cumulative IPC: 0.910425 (Simulation time: 1 hr 15 min 10 sec) 
Finished CPU 0 instructions: 100000000 cycles: 109838787 cummulative IPC: 0.910425 (Simulation time: 1 hr 15 min 10 sec) 

ChampSim completed all CPUs

Region of Interest Statistics

CPU 0 cummulative IPC: 0.910425 instructions: 100000000 cycles: 109838787
LLC TOTAL     ACCESS:    1666375  HIT:    1312710  MISS:     353665
LLC LOAD      ACCESS:     531450  HIT:     453094  MISS:      78356
LLC RFO       ACCESS:     108420  HIT:      63261  MISS:      45159
LLC PREFETCH  ACCESS:     824406  HIT:     622270  MISS:     202136
LLC WRITEBACK ACCESS:     202099  HIT:     174085  MISS:      28014
OPTgen accesses: 12326
OPTgen hits: 12914
OPTgen hit rate: 104.77


