
*** ChampSim Multicore Out-of-Order Simulator ***

Warmup Instructions: 50000000
Simulation Instructions: 100000000
Configuration: 2
Number of CPUs: 1
LLC sets: 2048
LLC ways: 16
Off-chip DRAM Channels: 1 Width: 64-bit Data Rate: 1600 MT/s

CPU 0 runs /datasets/cs240c-wi22-a00-public/data/Assignment2-gz/astar_313B.trace.gz
CPU 0 L1D next line prefetcher
CPU 0 L2C IP-based stride prefetcher
Initialize Hawkeye state
Heartbeat CPU 0 instructions: 1000001 cycles: 675680 heartbeat IPC: 1.47999 cumulative IPC: 1.47999 (Simulation time: 0 hr 0 min 46 sec) 
Heartbeat CPU 0 instructions: 2000003 cycles: 1263000 heartbeat IPC: 1.70265 cumulative IPC: 1.58353 (Simulation time: 0 hr 1 min 23 sec) 
Heartbeat CPU 0 instructions: 3000003 cycles: 1936938 heartbeat IPC: 1.48382 cumulative IPC: 1.54884 (Simulation time: 0 hr 2 min 5 sec) 
Heartbeat CPU 0 instructions: 4000000 cycles: 2610272 heartbeat IPC: 1.48514 cumulative IPC: 1.53241 (Simulation time: 0 hr 2 min 50 sec) 
Heartbeat CPU 0 instructions: 5000002 cycles: 3283856 heartbeat IPC: 1.4846 cumulative IPC: 1.5226 (Simulation time: 0 hr 3 min 29 sec) 
Heartbeat CPU 0 instructions: 6000001 cycles: 3871151 heartbeat IPC: 1.70272 cumulative IPC: 1.54993 (Simulation time: 0 hr 4 min 7 sec) 
Heartbeat CPU 0 instructions: 7000001 cycles: 4439948 heartbeat IPC: 1.7581 cumulative IPC: 1.5766 (Simulation time: 0 hr 4 min 48 sec) 
Heartbeat CPU 0 instructions: 8000000 cycles: 4991809 heartbeat IPC: 1.81205 cumulative IPC: 1.60263 (Simulation time: 0 hr 5 min 26 sec) 
Heartbeat CPU 0 instructions: 9000001 cycles: 5553506 heartbeat IPC: 1.78032 cumulative IPC: 1.6206 (Simulation time: 0 hr 6 min 3 sec) 
Heartbeat CPU 0 instructions: 10000002 cycles: 6228277 heartbeat IPC: 1.48199 cumulative IPC: 1.60558 (Simulation time: 0 hr 6 min 42 sec) 
Heartbeat CPU 0 instructions: 11000000 cycles: 6903824 heartbeat IPC: 1.48028 cumulative IPC: 1.59332 (Simulation time: 0 hr 7 min 19 sec) 
Heartbeat CPU 0 instructions: 12000000 cycles: 7573469 heartbeat IPC: 1.49333 cumulative IPC: 1.58448 (Simulation time: 0 hr 7 min 57 sec) 
Heartbeat CPU 0 instructions: 13000003 cycles: 8166338 heartbeat IPC: 1.68672 cumulative IPC: 1.5919 (Simulation time: 0 hr 8 min 36 sec) 
Heartbeat CPU 0 instructions: 14000002 cycles: 8838353 heartbeat IPC: 1.48806 cumulative IPC: 1.58401 (Simulation time: 0 hr 9 min 16 sec) 
Heartbeat CPU 0 instructions: 15000000 cycles: 9512267 heartbeat IPC: 1.48387 cumulative IPC: 1.57691 (Simulation time: 0 hr 9 min 54 sec) 
Heartbeat CPU 0 instructions: 16000000 cycles: 10186118 heartbeat IPC: 1.48401 cumulative IPC: 1.57077 (Simulation time: 0 hr 10 min 30 sec) 
Heartbeat CPU 0 instructions: 17000001 cycles: 10859728 heartbeat IPC: 1.48454 cumulative IPC: 1.56542 (Simulation time: 0 hr 11 min 4 sec) 
Heartbeat CPU 0 instructions: 18000000 cycles: 11445295 heartbeat IPC: 1.70774 cumulative IPC: 1.5727 (Simulation time: 0 hr 11 min 41 sec) 
Heartbeat CPU 0 instructions: 19000000 cycles: 12119161 heartbeat IPC: 1.48397 cumulative IPC: 1.56777 (Simulation time: 0 hr 12 min 21 sec) 
Heartbeat CPU 0 instructions: 20000000 cycles: 12792909 heartbeat IPC: 1.48423 cumulative IPC: 1.56337 (Simulation time: 0 hr 12 min 59 sec) 
Heartbeat CPU 0 instructions: 21000001 cycles: 13419388 heartbeat IPC: 1.59622 cumulative IPC: 1.5649 (Simulation time: 0 hr 13 min 36 sec) 
Heartbeat CPU 0 instructions: 22000001 cycles: 14054562 heartbeat IPC: 1.57437 cumulative IPC: 1.56533 (Simulation time: 0 hr 14 min 12 sec) 
Heartbeat CPU 0 instructions: 23000001 cycles: 14727317 heartbeat IPC: 1.48643 cumulative IPC: 1.56172 (Simulation time: 0 hr 14 min 51 sec) 
Heartbeat CPU 0 instructions: 24000000 cycles: 15381855 heartbeat IPC: 1.52779 cumulative IPC: 1.56028 (Simulation time: 0 hr 15 min 29 sec) 
Heartbeat CPU 0 instructions: 25000001 cycles: 15987422 heartbeat IPC: 1.65135 cumulative IPC: 1.56373 (Simulation time: 0 hr 16 min 6 sec) 
Heartbeat CPU 0 instructions: 26000002 cycles: 16663900 heartbeat IPC: 1.47825 cumulative IPC: 1.56026 (Simulation time: 0 hr 16 min 45 sec) 
Heartbeat CPU 0 instructions: 27000002 cycles: 17254724 heartbeat IPC: 1.69255 cumulative IPC: 1.56479 (Simulation time: 0 hr 17 min 22 sec) 
Heartbeat CPU 0 instructions: 28000000 cycles: 17929174 heartbeat IPC: 1.48269 cumulative IPC: 1.5617 (Simulation time: 0 hr 17 min 58 sec) 
Heartbeat CPU 0 instructions: 29000001 cycles: 18517148 heartbeat IPC: 1.70076 cumulative IPC: 1.56612 (Simulation time: 0 hr 18 min 35 sec) 
Heartbeat CPU 0 instructions: 30000002 cycles: 19190561 heartbeat IPC: 1.48497 cumulative IPC: 1.56327 (Simulation time: 0 hr 19 min 13 sec) 
Heartbeat CPU 0 instructions: 31000002 cycles: 19865258 heartbeat IPC: 1.48215 cumulative IPC: 1.56051 (Simulation time: 0 hr 19 min 52 sec) 
Heartbeat CPU 0 instructions: 32000000 cycles: 20540140 heartbeat IPC: 1.48174 cumulative IPC: 1.55793 (Simulation time: 0 hr 20 min 30 sec) 
Heartbeat CPU 0 instructions: 33000003 cycles: 21215119 heartbeat IPC: 1.48153 cumulative IPC: 1.55549 (Simulation time: 0 hr 21 min 10 sec) 
Heartbeat CPU 0 instructions: 34000000 cycles: 21801178 heartbeat IPC: 1.70631 cumulative IPC: 1.55955 (Simulation time: 0 hr 21 min 45 sec) 
Heartbeat CPU 0 instructions: 35000000 cycles: 22475041 heartbeat IPC: 1.48398 cumulative IPC: 1.55728 (Simulation time: 0 hr 22 min 22 sec) 
Heartbeat CPU 0 instructions: 36000000 cycles: 23148652 heartbeat IPC: 1.48454 cumulative IPC: 1.55517 (Simulation time: 0 hr 22 min 58 sec) 
Heartbeat CPU 0 instructions: 37000002 cycles: 23736226 heartbeat IPC: 1.70192 cumulative IPC: 1.5588 (Simulation time: 0 hr 23 min 35 sec) 
Heartbeat CPU 0 instructions: 38000000 cycles: 24409381 heartbeat IPC: 1.48554 cumulative IPC: 1.55678 (Simulation time: 0 hr 24 min 14 sec) 
Heartbeat CPU 0 instructions: 39000003 cycles: 24997994 heartbeat IPC: 1.69891 cumulative IPC: 1.56013 (Simulation time: 0 hr 24 min 52 sec) 
Heartbeat CPU 0 instructions: 40000000 cycles: 25586701 heartbeat IPC: 1.69863 cumulative IPC: 1.56331 (Simulation time: 0 hr 25 min 29 sec) 
Heartbeat CPU 0 instructions: 41000001 cycles: 26261319 heartbeat IPC: 1.48232 cumulative IPC: 1.56123 (Simulation time: 0 hr 26 min 8 sec) 
Heartbeat CPU 0 instructions: 42000003 cycles: 26938626 heartbeat IPC: 1.47644 cumulative IPC: 1.5591 (Simulation time: 0 hr 26 min 43 sec) 
Heartbeat CPU 0 instructions: 43000003 cycles: 27531601 heartbeat IPC: 1.68641 cumulative IPC: 1.56184 (Simulation time: 0 hr 27 min 19 sec) 
Heartbeat CPU 0 instructions: 44000000 cycles: 28199684 heartbeat IPC: 1.49682 cumulative IPC: 1.5603 (Simulation time: 0 hr 27 min 59 sec) 
Heartbeat CPU 0 instructions: 45000002 cycles: 28872134 heartbeat IPC: 1.4871 cumulative IPC: 1.5586 (Simulation time: 0 hr 28 min 38 sec) 
Heartbeat CPU 0 instructions: 46000002 cycles: 29545083 heartbeat IPC: 1.486 cumulative IPC: 1.55694 (Simulation time: 0 hr 29 min 18 sec) 
Heartbeat CPU 0 instructions: 47000002 cycles: 30216739 heartbeat IPC: 1.48886 cumulative IPC: 1.55543 (Simulation time: 0 hr 29 min 55 sec) 
Heartbeat CPU 0 instructions: 48000000 cycles: 30805465 heartbeat IPC: 1.69858 cumulative IPC: 1.55817 (Simulation time: 0 hr 30 min 31 sec) 
Heartbeat CPU 0 instructions: 49000000 cycles: 31477758 heartbeat IPC: 1.48745 cumulative IPC: 1.55665 (Simulation time: 0 hr 31 min 7 sec) 
Heartbeat CPU 0 instructions: 50000000 cycles: 32150140 heartbeat IPC: 1.48725 cumulative IPC: 1.5552 (Simulation time: 0 hr 31 min 44 sec) 

Warmup complete CPU 0 instructions: 50000001 cycles: 32150141 (Simulation time: 0 hr 31 min 44 sec) 

Heartbeat CPU 0 instructions: 51000000 cycles: 38820408 heartbeat IPC: 0.149919 cumulative IPC: 0.149919 (Simulation time: 0 hr 32 min 23 sec) 
Heartbeat CPU 0 instructions: 52000000 cycles: 47173100 heartbeat IPC: 0.119722 cumulative IPC: 0.133129 (Simulation time: 0 hr 33 min 7 sec) 
Heartbeat CPU 0 instructions: 53000000 cycles: 53881173 heartbeat IPC: 0.149074 cumulative IPC: 0.138051 (Simulation time: 0 hr 33 min 46 sec) 
Heartbeat CPU 0 instructions: 54000000 cycles: 61611941 heartbeat IPC: 0.129353 cumulative IPC: 0.135769 (Simulation time: 0 hr 34 min 27 sec) 
Heartbeat CPU 0 instructions: 55000001 cycles: 69843788 heartbeat IPC: 0.12148 cumulative IPC: 0.132648 (Simulation time: 0 hr 35 min 14 sec) 
Heartbeat CPU 0 instructions: 56000000 cycles: 79636922 heartbeat IPC: 0.102112 cumulative IPC: 0.126351 (Simulation time: 0 hr 36 min 2 sec) 
Heartbeat CPU 0 instructions: 57000000 cycles: 85800578 heartbeat IPC: 0.162241 cumulative IPC: 0.130474 (Simulation time: 0 hr 36 min 45 sec) 
Heartbeat CPU 0 instructions: 58000001 cycles: 92123291 heartbeat IPC: 0.15816 cumulative IPC: 0.133393 (Simulation time: 0 hr 37 min 35 sec) 
Heartbeat CPU 0 instructions: 59000002 cycles: 100256057 heartbeat IPC: 0.12296 cumulative IPC: 0.132147 (Simulation time: 0 hr 38 min 17 sec) 
Heartbeat CPU 0 instructions: 60000000 cycles: 107759422 heartbeat IPC: 0.133273 cumulative IPC: 0.132259 (Simulation time: 0 hr 38 min 59 sec) 
Heartbeat CPU 0 instructions: 61000001 cycles: 114417545 heartbeat IPC: 0.150193 cumulative IPC: 0.13371 (Simulation time: 0 hr 39 min 40 sec) 
Heartbeat CPU 0 instructions: 62000001 cycles: 121418911 heartbeat IPC: 0.142829 cumulative IPC: 0.134426 (Simulation time: 0 hr 40 min 24 sec) 
Heartbeat CPU 0 instructions: 63000000 cycles: 128581067 heartbeat IPC: 0.139623 cumulative IPC: 0.134812 (Simulation time: 0 hr 41 min 5 sec) 
Heartbeat CPU 0 instructions: 64000000 cycles: 137729677 heartbeat IPC: 0.109306 cumulative IPC: 0.132601 (Simulation time: 0 hr 41 min 49 sec) 
Heartbeat CPU 0 instructions: 65000000 cycles: 144354352 heartbeat IPC: 0.150951 cumulative IPC: 0.133685 (Simulation time: 0 hr 42 min 32 sec) 
Heartbeat CPU 0 instructions: 66000001 cycles: 151103224 heartbeat IPC: 0.148173 cumulative IPC: 0.134507 (Simulation time: 0 hr 43 min 14 sec) 
Heartbeat CPU 0 instructions: 67000000 cycles: 158365243 heartbeat IPC: 0.137703 cumulative IPC: 0.134691 (Simulation time: 0 hr 43 min 52 sec) 
Heartbeat CPU 0 instructions: 68000000 cycles: 165830277 heartbeat IPC: 0.133958 cumulative IPC: 0.13465 (Simulation time: 0 hr 44 min 33 sec) 
Heartbeat CPU 0 instructions: 69000000 cycles: 177539145 heartbeat IPC: 0.0854053 cumulative IPC: 0.130684 (Simulation time: 0 hr 45 min 27 sec) 
Heartbeat CPU 0 instructions: 70000000 cycles: 184109837 heartbeat IPC: 0.152191 cumulative IPC: 0.131614 (Simulation time: 0 hr 46 min 9 sec) 
Heartbeat CPU 0 instructions: 71000002 cycles: 190644861 heartbeat IPC: 0.153022 cumulative IPC: 0.132497 (Simulation time: 0 hr 46 min 54 sec) 
Heartbeat CPU 0 instructions: 72000000 cycles: 197547175 heartbeat IPC: 0.144879 cumulative IPC: 0.133013 (Simulation time: 0 hr 47 min 36 sec) 
Heartbeat CPU 0 instructions: 73000003 cycles: 204782784 heartbeat IPC: 0.138206 cumulative IPC: 0.133231 (Simulation time: 0 hr 48 min 15 sec) 
Heartbeat CPU 0 instructions: 74000000 cycles: 213814278 heartbeat IPC: 0.110723 cumulative IPC: 0.132112 (Simulation time: 0 hr 48 min 56 sec) 
Heartbeat CPU 0 instructions: 75000000 cycles: 220974112 heartbeat IPC: 0.139668 cumulative IPC: 0.132398 (Simulation time: 0 hr 49 min 42 sec) 
Heartbeat CPU 0 instructions: 76000000 cycles: 227186972 heartbeat IPC: 0.160956 cumulative IPC: 0.133308 (Simulation time: 0 hr 50 min 23 sec) 
Heartbeat CPU 0 instructions: 77000000 cycles: 233339402 heartbeat IPC: 0.162537 cumulative IPC: 0.134202 (Simulation time: 0 hr 51 min 3 sec) 
Heartbeat CPU 0 instructions: 78000001 cycles: 239380588 heartbeat IPC: 0.165531 cumulative IPC: 0.135115 (Simulation time: 0 hr 51 min 42 sec) 
Heartbeat CPU 0 instructions: 79000000 cycles: 248165403 heartbeat IPC: 0.113833 cumulative IPC: 0.13425 (Simulation time: 0 hr 52 min 29 sec) 
Heartbeat CPU 0 instructions: 80000000 cycles: 254021480 heartbeat IPC: 0.170763 cumulative IPC: 0.135213 (Simulation time: 0 hr 53 min 4 sec) 
Heartbeat CPU 0 instructions: 81000003 cycles: 261318291 heartbeat IPC: 0.137047 cumulative IPC: 0.135272 (Simulation time: 0 hr 53 min 45 sec) 
Heartbeat CPU 0 instructions: 82000001 cycles: 269209768 heartbeat IPC: 0.126719 cumulative IPC: 0.134987 (Simulation time: 0 hr 54 min 30 sec) 
Heartbeat CPU 0 instructions: 83000002 cycles: 275691603 heartbeat IPC: 0.154277 cumulative IPC: 0.135501 (Simulation time: 0 hr 55 min 6 sec) 
Heartbeat CPU 0 instructions: 84000000 cycles: 282296789 heartbeat IPC: 0.151396 cumulative IPC: 0.13592 (Simulation time: 0 hr 55 min 45 sec) 
Heartbeat CPU 0 instructions: 85000001 cycles: 289175171 heartbeat IPC: 0.145383 cumulative IPC: 0.136174 (Simulation time: 0 hr 56 min 23 sec) 
Heartbeat CPU 0 instructions: 86000001 cycles: 297727311 heartbeat IPC: 0.11693 cumulative IPC: 0.135554 (Simulation time: 0 hr 57 min 9 sec) 
Heartbeat CPU 0 instructions: 87000000 cycles: 303530888 heartbeat IPC: 0.172307 cumulative IPC: 0.13634 (Simulation time: 0 hr 57 min 49 sec) 
Heartbeat CPU 0 instructions: 88000000 cycles: 309482559 heartbeat IPC: 0.16802 cumulative IPC: 0.13702 (Simulation time: 0 hr 58 min 26 sec) 
Heartbeat CPU 0 instructions: 89000002 cycles: 315539872 heartbeat IPC: 0.16509 cumulative IPC: 0.13762 (Simulation time: 0 hr 59 min 9 sec) 
Heartbeat CPU 0 instructions: 90000002 cycles: 321847789 heartbeat IPC: 0.158531 cumulative IPC: 0.138075 (Simulation time: 0 hr 59 min 49 sec) 
Heartbeat CPU 0 instructions: 91000001 cycles: 330964783 heartbeat IPC: 0.109685 cumulative IPC: 0.137209 (Simulation time: 1 hr 0 min 35 sec) 
Heartbeat CPU 0 instructions: 92000000 cycles: 337957500 heartbeat IPC: 0.143006 cumulative IPC: 0.137341 (Simulation time: 1 hr 1 min 15 sec) 
Heartbeat CPU 0 instructions: 93000003 cycles: 345175616 heartbeat IPC: 0.138541 cumulative IPC: 0.137369 (Simulation time: 1 hr 1 min 57 sec) 
Heartbeat CPU 0 instructions: 94000000 cycles: 352867678 heartbeat IPC: 0.130004 cumulative IPC: 0.137192 (Simulation time: 1 hr 2 min 40 sec) 
Heartbeat CPU 0 instructions: 95000000 cycles: 359525065 heartbeat IPC: 0.150209 cumulative IPC: 0.137457 (Simulation time: 1 hr 3 min 23 sec) 
Heartbeat CPU 0 instructions: 96000000 cycles: 368648221 heartbeat IPC: 0.109611 cumulative IPC: 0.136702 (Simulation time: 1 hr 4 min 9 sec) 
Heartbeat CPU 0 instructions: 97000000 cycles: 375526900 heartbeat IPC: 0.145377 cumulative IPC: 0.136876 (Simulation time: 1 hr 4 min 47 sec) 
Heartbeat CPU 0 instructions: 98000003 cycles: 383216264 heartbeat IPC: 0.13005 cumulative IPC: 0.136726 (Simulation time: 1 hr 5 min 28 sec) 
Heartbeat CPU 0 instructions: 99000001 cycles: 391112263 heartbeat IPC: 0.126646 cumulative IPC: 0.136505 (Simulation time: 1 hr 6 min 6 sec) 
Heartbeat CPU 0 instructions: 100000000 cycles: 398330326 heartbeat IPC: 0.138541 cumulative IPC: 0.136545 (Simulation time: 1 hr 6 min 48 sec) 
Heartbeat CPU 0 instructions: 101000000 cycles: 407497060 heartbeat IPC: 0.10909 cumulative IPC: 0.135874 (Simulation time: 1 hr 7 min 29 sec) 
Heartbeat CPU 0 instructions: 102000001 cycles: 413791256 heartbeat IPC: 0.158877 cumulative IPC: 0.136254 (Simulation time: 1 hr 8 min 2 sec) 
Heartbeat CPU 0 instructions: 103000000 cycles: 420068330 heartbeat IPC: 0.15931 cumulative IPC: 0.136627 (Simulation time: 1 hr 8 min 37 sec) 
Heartbeat CPU 0 instructions: 104000000 cycles: 426459293 heartbeat IPC: 0.156471 cumulative IPC: 0.136948 (Simulation time: 1 hr 9 min 13 sec) 
Heartbeat CPU 0 instructions: 105000000 cycles: 432636363 heartbeat IPC: 0.161889 cumulative IPC: 0.137333 (Simulation time: 1 hr 9 min 51 sec) 
Heartbeat CPU 0 instructions: 106000000 cycles: 441615336 heartbeat IPC: 0.111371 cumulative IPC: 0.136764 (Simulation time: 1 hr 10 min 31 sec) 
Heartbeat CPU 0 instructions: 107000002 cycles: 448099665 heartbeat IPC: 0.154218 cumulative IPC: 0.137036 (Simulation time: 1 hr 11 min 4 sec) 
Heartbeat CPU 0 instructions: 108000000 cycles: 457237545 heartbeat IPC: 0.109434 cumulative IPC: 0.136443 (Simulation time: 1 hr 11 min 41 sec) 
Heartbeat CPU 0 instructions: 109000003 cycles: 463444273 heartbeat IPC: 0.161116 cumulative IPC: 0.136798 (Simulation time: 1 hr 12 min 16 sec) 
Heartbeat CPU 0 instructions: 110000003 cycles: 469281641 heartbeat IPC: 0.17131 cumulative IPC: 0.137258 (Simulation time: 1 hr 12 min 47 sec) 
Heartbeat CPU 0 instructions: 111000001 cycles: 475254505 heartbeat IPC: 0.167424 cumulative IPC: 0.137665 (Simulation time: 1 hr 13 min 18 sec) 
Heartbeat CPU 0 instructions: 112000000 cycles: 483515517 heartbeat IPC: 0.12105 cumulative IPC: 0.137361 (Simulation time: 1 hr 13 min 53 sec) 
Heartbeat CPU 0 instructions: 113000000 cycles: 490823466 heartbeat IPC: 0.136837 cumulative IPC: 0.137353 (Simulation time: 1 hr 14 min 27 sec) 
Heartbeat CPU 0 instructions: 114000000 cycles: 498575257 heartbeat IPC: 0.129002 cumulative IPC: 0.137214 (Simulation time: 1 hr 14 min 59 sec) 
Heartbeat CPU 0 instructions: 115000001 cycles: 506900247 heartbeat IPC: 0.12012 cumulative IPC: 0.136914 (Simulation time: 1 hr 15 min 31 sec) 
Heartbeat CPU 0 instructions: 116000000 cycles: 513651650 heartbeat IPC: 0.148117 cumulative IPC: 0.137071 (Simulation time: 1 hr 15 min 58 sec) 
Heartbeat CPU 0 instructions: 117000001 cycles: 520177697 heartbeat IPC: 0.153232 cumulative IPC: 0.137287 (Simulation time: 1 hr 16 min 26 sec) 
Heartbeat CPU 0 instructions: 118000003 cycles: 529210373 heartbeat IPC: 0.110709 cumulative IPC: 0.136804 (Simulation time: 1 hr 16 min 57 sec) 
Heartbeat CPU 0 instructions: 119000000 cycles: 535654541 heartbeat IPC: 0.155179 cumulative IPC: 0.13704 (Simulation time: 1 hr 17 min 21 sec) 
Heartbeat CPU 0 instructions: 120000000 cycles: 542417652 heartbeat IPC: 0.147861 cumulative IPC: 0.137183 (Simulation time: 1 hr 17 min 46 sec) 
Heartbeat CPU 0 instructions: 121000001 cycles: 549087369 heartbeat IPC: 0.149932 cumulative IPC: 0.137347 (Simulation time: 1 hr 18 min 10 sec) 
Heartbeat CPU 0 instructions: 122000001 cycles: 555623099 heartbeat IPC: 0.153005 cumulative IPC: 0.137543 (Simulation time: 1 hr 18 min 33 sec) 
Heartbeat CPU 0 instructions: 123000001 cycles: 564692179 heartbeat IPC: 0.110265 cumulative IPC: 0.137078 (Simulation time: 1 hr 18 min 59 sec) 
Heartbeat CPU 0 instructions: 124000000 cycles: 571076223 heartbeat IPC: 0.15664 cumulative IPC: 0.13731 (Simulation time: 1 hr 19 min 21 sec) 
Heartbeat CPU 0 instructions: 125000000 cycles: 577562133 heartbeat IPC: 0.15418 cumulative IPC: 0.137511 (Simulation time: 1 hr 19 min 44 sec) 
Heartbeat CPU 0 instructions: 126000003 cycles: 584505171 heartbeat IPC: 0.14403 cumulative IPC: 0.137593 (Simulation time: 1 hr 20 min 5 sec) 
Heartbeat CPU 0 instructions: 127000003 cycles: 593868240 heartbeat IPC: 0.106803 cumulative IPC: 0.137079 (Simulation time: 1 hr 20 min 32 sec) 
Heartbeat CPU 0 instructions: 128000000 cycles: 600075812 heartbeat IPC: 0.161093 cumulative IPC: 0.137342 (Simulation time: 1 hr 20 min 52 sec) 
Heartbeat CPU 0 instructions: 129000001 cycles: 609065237 heartbeat IPC: 0.111242 cumulative IPC: 0.136935 (Simulation time: 1 hr 21 min 18 sec) 
Heartbeat CPU 0 instructions: 130000002 cycles: 615356622 heartbeat IPC: 0.158948 cumulative IPC: 0.137173 (Simulation time: 1 hr 21 min 39 sec) 
Heartbeat CPU 0 instructions: 131000003 cycles: 621405736 heartbeat IPC: 0.165314 cumulative IPC: 0.137462 (Simulation time: 1 hr 21 min 58 sec) 
Heartbeat CPU 0 instructions: 132000000 cycles: 632621349 heartbeat IPC: 0.0891612 cumulative IPC: 0.136559 (Simulation time: 1 hr 22 min 24 sec) 
Heartbeat CPU 0 instructions: 133000002 cycles: 641613383 heartbeat IPC: 0.11121 cumulative IPC: 0.136185 (Simulation time: 1 hr 22 min 49 sec) 
Heartbeat CPU 0 instructions: 134000000 cycles: 647649123 heartbeat IPC: 0.165679 cumulative IPC: 0.136475 (Simulation time: 1 hr 23 min 8 sec) 
Heartbeat CPU 0 instructions: 135000002 cycles: 655095052 heartbeat IPC: 0.134302 cumulative IPC: 0.136449 (Simulation time: 1 hr 23 min 27 sec) 
Heartbeat CPU 0 instructions: 136000000 cycles: 664203939 heartbeat IPC: 0.109783 cumulative IPC: 0.136064 (Simulation time: 1 hr 23 min 47 sec) 
Heartbeat CPU 0 instructions: 137000001 cycles: 672265545 heartbeat IPC: 0.124045 cumulative IPC: 0.135913 (Simulation time: 1 hr 24 min 6 sec) 
Heartbeat CPU 0 instructions: 138000002 cycles: 678940220 heartbeat IPC: 0.14982 cumulative IPC: 0.136057 (Simulation time: 1 hr 24 min 20 sec) 
Heartbeat CPU 0 instructions: 139000001 cycles: 685696927 heartbeat IPC: 0.148001 cumulative IPC: 0.13618 (Simulation time: 1 hr 24 min 35 sec) 
Heartbeat CPU 0 instructions: 140000000 cycles: 695002706 heartbeat IPC: 0.10746 cumulative IPC: 0.135777 (Simulation time: 1 hr 24 min 52 sec) 
Heartbeat CPU 0 instructions: 141000001 cycles: 701495152 heartbeat IPC: 0.154025 cumulative IPC: 0.135954 (Simulation time: 1 hr 25 min 8 sec) 
Heartbeat CPU 0 instructions: 142000000 cycles: 708047114 heartbeat IPC: 0.152626 cumulative IPC: 0.136115 (Simulation time: 1 hr 25 min 24 sec) 
Heartbeat CPU 0 instructions: 143000001 cycles: 714717130 heartbeat IPC: 0.149925 cumulative IPC: 0.13625 (Simulation time: 1 hr 25 min 41 sec) 
Heartbeat CPU 0 instructions: 144000000 cycles: 724128852 heartbeat IPC: 0.10625 cumulative IPC: 0.135842 (Simulation time: 1 hr 26 min 0 sec) 
Heartbeat CPU 0 instructions: 145000000 cycles: 730904555 heartbeat IPC: 0.147586 cumulative IPC: 0.135956 (Simulation time: 1 hr 26 min 14 sec) 
Heartbeat CPU 0 instructions: 146000000 cycles: 737686472 heartbeat IPC: 0.147451 cumulative IPC: 0.136067 (Simulation time: 1 hr 26 min 27 sec) 
Heartbeat CPU 0 instructions: 147000000 cycles: 746871882 heartbeat IPC: 0.108868 cumulative IPC: 0.135717 (Simulation time: 1 hr 26 min 43 sec) 
Heartbeat CPU 0 instructions: 148000000 cycles: 753169537 heartbeat IPC: 0.158789 cumulative IPC: 0.135919 (Simulation time: 1 hr 26 min 56 sec) 
Heartbeat CPU 0 instructions: 149000000 cycles: 762091983 heartbeat IPC: 0.112077 cumulative IPC: 0.135627 (Simulation time: 1 hr 27 min 11 sec) 
Heartbeat CPU 0 instructions: 150000001 cycles: 768535252 heartbeat IPC: 0.155201 cumulative IPC: 0.135799 (Simulation time: 1 hr 27 min 22 sec) 
Finished CPU 0 instructions: 100000000 cycles: 736385111 cummulative IPC: 0.135799 (Simulation time: 1 hr 27 min 22 sec) 

ChampSim completed all CPUs

Region of Interest Statistics

CPU 0 cummulative IPC: 0.135799 instructions: 100000000 cycles: 736385111
LLC TOTAL     ACCESS:    9036823  HIT:    2322190  MISS:    6714633
LLC LOAD      ACCESS:    1899519  HIT:     489468  MISS:    1410051
LLC RFO       ACCESS:    1963570  HIT:     407116  MISS:    1556454
LLC PREFETCH  ACCESS:    2282608  HIT:     348939  MISS:    1933669
LLC WRITEBACK ACCESS:    2891126  HIT:    1076667  MISS:    1814459
OPTgen accesses: 93750
OPTgen hits: 50296
OPTgen hit rate: 53.6491


