
*** ChampSim Multicore Out-of-Order Simulator ***

Warmup Instructions: 50000000
Simulation Instructions: 100000000
Configuration: 2
Number of CPUs: 1
LLC sets: 2048
LLC ways: 16
Off-chip DRAM Channels: 1 Width: 64-bit Data Rate: 1600 MT/s

CPU 0 runs /datasets/cs240c-wi22-a00-public/data/Assignment2-gz/gcc_13B.trace.gz
CPU 0 L1D next line prefetcher
CPU 0 L2C IP-based stride prefetcher
Initialize Hawkeye state
Heartbeat CPU 0 instructions: 1000000 cycles: 633312 heartbeat IPC: 1.579 cumulative IPC: 1.579 (Simulation time: 0 hr 0 min 42 sec) 
Heartbeat CPU 0 instructions: 2000001 cycles: 1243574 heartbeat IPC: 1.63864 cumulative IPC: 1.60827 (Simulation time: 0 hr 1 min 23 sec) 
Heartbeat CPU 0 instructions: 3000001 cycles: 1717445 heartbeat IPC: 2.11028 cumulative IPC: 1.74678 (Simulation time: 0 hr 2 min 2 sec) 
Heartbeat CPU 0 instructions: 4000000 cycles: 2191038 heartbeat IPC: 2.11152 cumulative IPC: 1.82562 (Simulation time: 0 hr 2 min 41 sec) 
Heartbeat CPU 0 instructions: 5000002 cycles: 2665154 heartbeat IPC: 2.10919 cumulative IPC: 1.87606 (Simulation time: 0 hr 3 min 20 sec) 
Heartbeat CPU 0 instructions: 6000002 cycles: 3139018 heartbeat IPC: 2.11031 cumulative IPC: 1.91143 (Simulation time: 0 hr 3 min 58 sec) 
Heartbeat CPU 0 instructions: 7000001 cycles: 3614393 heartbeat IPC: 2.1036 cumulative IPC: 1.9367 (Simulation time: 0 hr 4 min 35 sec) 
Heartbeat CPU 0 instructions: 8000000 cycles: 4091521 heartbeat IPC: 2.09587 cumulative IPC: 1.95526 (Simulation time: 0 hr 5 min 9 sec) 
Heartbeat CPU 0 instructions: 9000001 cycles: 4832458 heartbeat IPC: 1.34964 cumulative IPC: 1.86241 (Simulation time: 0 hr 5 min 50 sec) 
Heartbeat CPU 0 instructions: 10000001 cycles: 5537177 heartbeat IPC: 1.41901 cumulative IPC: 1.80597 (Simulation time: 0 hr 6 min 31 sec) 
Heartbeat CPU 0 instructions: 11000002 cycles: 6157956 heartbeat IPC: 1.61088 cumulative IPC: 1.78631 (Simulation time: 0 hr 7 min 8 sec) 
Heartbeat CPU 0 instructions: 12000000 cycles: 6771921 heartbeat IPC: 1.62875 cumulative IPC: 1.77202 (Simulation time: 0 hr 7 min 49 sec) 
Heartbeat CPU 0 instructions: 13000000 cycles: 7378299 heartbeat IPC: 1.64914 cumulative IPC: 1.76192 (Simulation time: 0 hr 8 min 25 sec) 
Heartbeat CPU 0 instructions: 14000000 cycles: 8018020 heartbeat IPC: 1.56318 cumulative IPC: 1.74607 (Simulation time: 0 hr 9 min 5 sec) 
Heartbeat CPU 0 instructions: 15000001 cycles: 8617235 heartbeat IPC: 1.66885 cumulative IPC: 1.7407 (Simulation time: 0 hr 9 min 41 sec) 
Heartbeat CPU 0 instructions: 16000000 cycles: 9090404 heartbeat IPC: 2.11341 cumulative IPC: 1.7601 (Simulation time: 0 hr 10 min 24 sec) 
Heartbeat CPU 0 instructions: 17000000 cycles: 9564219 heartbeat IPC: 2.11053 cumulative IPC: 1.77746 (Simulation time: 0 hr 10 min 59 sec) 
Heartbeat CPU 0 instructions: 18000000 cycles: 10038049 heartbeat IPC: 2.11046 cumulative IPC: 1.79318 (Simulation time: 0 hr 11 min 33 sec) 
Heartbeat CPU 0 instructions: 19000002 cycles: 10511937 heartbeat IPC: 2.11021 cumulative IPC: 1.80747 (Simulation time: 0 hr 12 min 6 sec) 
Heartbeat CPU 0 instructions: 20000000 cycles: 10987758 heartbeat IPC: 2.10163 cumulative IPC: 1.82021 (Simulation time: 0 hr 12 min 41 sec) 
Heartbeat CPU 0 instructions: 21000001 cycles: 11469053 heartbeat IPC: 2.07773 cumulative IPC: 1.83101 (Simulation time: 0 hr 13 min 17 sec) 
Heartbeat CPU 0 instructions: 22000000 cycles: 12206176 heartbeat IPC: 1.35662 cumulative IPC: 1.80237 (Simulation time: 0 hr 13 min 55 sec) 
Heartbeat CPU 0 instructions: 23000002 cycles: 12903307 heartbeat IPC: 1.43445 cumulative IPC: 1.78249 (Simulation time: 0 hr 14 min 31 sec) 
Heartbeat CPU 0 instructions: 24000000 cycles: 13522931 heartbeat IPC: 1.61388 cumulative IPC: 1.77476 (Simulation time: 0 hr 15 min 10 sec) 
Heartbeat CPU 0 instructions: 25000000 cycles: 14137737 heartbeat IPC: 1.62653 cumulative IPC: 1.76832 (Simulation time: 0 hr 15 min 52 sec) 
Heartbeat CPU 0 instructions: 26000002 cycles: 14744676 heartbeat IPC: 1.64762 cumulative IPC: 1.76335 (Simulation time: 0 hr 16 min 30 sec) 
Heartbeat CPU 0 instructions: 27000001 cycles: 15395130 heartbeat IPC: 1.53739 cumulative IPC: 1.7538 (Simulation time: 0 hr 17 min 5 sec) 
Heartbeat CPU 0 instructions: 28000000 cycles: 15977613 heartbeat IPC: 1.71679 cumulative IPC: 1.75245 (Simulation time: 0 hr 17 min 46 sec) 
Heartbeat CPU 0 instructions: 29000001 cycles: 16451103 heartbeat IPC: 2.11198 cumulative IPC: 1.7628 (Simulation time: 0 hr 18 min 24 sec) 
Heartbeat CPU 0 instructions: 30000000 cycles: 16924665 heartbeat IPC: 2.11165 cumulative IPC: 1.77256 (Simulation time: 0 hr 18 min 58 sec) 
Heartbeat CPU 0 instructions: 31000000 cycles: 17398657 heartbeat IPC: 2.10974 cumulative IPC: 1.78175 (Simulation time: 0 hr 19 min 31 sec) 
Heartbeat CPU 0 instructions: 32000000 cycles: 17872598 heartbeat IPC: 2.10997 cumulative IPC: 1.79045 (Simulation time: 0 hr 20 min 4 sec) 
Heartbeat CPU 0 instructions: 33000002 cycles: 18348305 heartbeat IPC: 2.10214 cumulative IPC: 1.79853 (Simulation time: 0 hr 20 min 36 sec) 
Heartbeat CPU 0 instructions: 34000001 cycles: 18822253 heartbeat IPC: 2.10993 cumulative IPC: 1.80637 (Simulation time: 0 hr 21 min 7 sec) 
Heartbeat CPU 0 instructions: 35000000 cycles: 19467047 heartbeat IPC: 1.55088 cumulative IPC: 1.79791 (Simulation time: 0 hr 21 min 48 sec) 
Heartbeat CPU 0 instructions: 36000000 cycles: 20151597 heartbeat IPC: 1.46081 cumulative IPC: 1.78646 (Simulation time: 0 hr 22 min 20 sec) 
Heartbeat CPU 0 instructions: 37000003 cycles: 20836458 heartbeat IPC: 1.46015 cumulative IPC: 1.77573 (Simulation time: 0 hr 22 min 55 sec) 
Heartbeat CPU 0 instructions: 38000000 cycles: 21521664 heartbeat IPC: 1.45941 cumulative IPC: 1.76566 (Simulation time: 0 hr 23 min 31 sec) 
Heartbeat CPU 0 instructions: 39000002 cycles: 22206212 heartbeat IPC: 1.46082 cumulative IPC: 1.75627 (Simulation time: 0 hr 24 min 6 sec) 
Heartbeat CPU 0 instructions: 40000000 cycles: 22891572 heartbeat IPC: 1.45908 cumulative IPC: 1.74737 (Simulation time: 0 hr 24 min 45 sec) 
Heartbeat CPU 0 instructions: 41000000 cycles: 23576826 heartbeat IPC: 1.45931 cumulative IPC: 1.739 (Simulation time: 0 hr 25 min 19 sec) 
Heartbeat CPU 0 instructions: 42000000 cycles: 24261488 heartbeat IPC: 1.46057 cumulative IPC: 1.73114 (Simulation time: 0 hr 25 min 55 sec) 
Heartbeat CPU 0 instructions: 43000002 cycles: 24946561 heartbeat IPC: 1.4597 cumulative IPC: 1.72368 (Simulation time: 0 hr 26 min 33 sec) 
Heartbeat CPU 0 instructions: 44000000 cycles: 25631636 heartbeat IPC: 1.45969 cumulative IPC: 1.71663 (Simulation time: 0 hr 27 min 8 sec) 
Heartbeat CPU 0 instructions: 45000000 cycles: 26317388 heartbeat IPC: 1.45825 cumulative IPC: 1.7099 (Simulation time: 0 hr 27 min 44 sec) 
Heartbeat CPU 0 instructions: 46000002 cycles: 27002640 heartbeat IPC: 1.45932 cumulative IPC: 1.70354 (Simulation time: 0 hr 28 min 18 sec) 
Heartbeat CPU 0 instructions: 47000001 cycles: 27687330 heartbeat IPC: 1.46051 cumulative IPC: 1.69753 (Simulation time: 0 hr 28 min 56 sec) 
Heartbeat CPU 0 instructions: 48000000 cycles: 28371621 heartbeat IPC: 1.46137 cumulative IPC: 1.69183 (Simulation time: 0 hr 29 min 31 sec) 
Heartbeat CPU 0 instructions: 49000000 cycles: 29056820 heartbeat IPC: 1.45943 cumulative IPC: 1.68635 (Simulation time: 0 hr 30 min 5 sec) 
Heartbeat CPU 0 instructions: 50000003 cycles: 29741121 heartbeat IPC: 1.46135 cumulative IPC: 1.68117 (Simulation time: 0 hr 30 min 39 sec) 

Warmup complete CPU 0 instructions: 50000003 cycles: 29741121 (Simulation time: 0 hr 30 min 39 sec) 

Heartbeat CPU 0 instructions: 51000001 cycles: 33321112 heartbeat IPC: 0.27933 cumulative IPC: 0.27933 (Simulation time: 0 hr 31 min 17 sec) 
Heartbeat CPU 0 instructions: 52000000 cycles: 36886752 heartbeat IPC: 0.280454 cumulative IPC: 0.279891 (Simulation time: 0 hr 31 min 54 sec) 
Heartbeat CPU 0 instructions: 53000001 cycles: 40468106 heartbeat IPC: 0.279224 cumulative IPC: 0.279668 (Simulation time: 0 hr 32 min 32 sec) 
Heartbeat CPU 0 instructions: 54000000 cycles: 44042626 heartbeat IPC: 0.279758 cumulative IPC: 0.279691 (Simulation time: 0 hr 33 min 15 sec) 
Heartbeat CPU 0 instructions: 55000000 cycles: 47626710 heartbeat IPC: 0.279011 cumulative IPC: 0.279555 (Simulation time: 0 hr 33 min 54 sec) 
Heartbeat CPU 0 instructions: 56000000 cycles: 51199922 heartbeat IPC: 0.27986 cumulative IPC: 0.279605 (Simulation time: 0 hr 34 min 30 sec) 
Heartbeat CPU 0 instructions: 57000002 cycles: 54740254 heartbeat IPC: 0.28246 cumulative IPC: 0.28001 (Simulation time: 0 hr 35 min 8 sec) 
Heartbeat CPU 0 instructions: 58000001 cycles: 58286358 heartbeat IPC: 0.281999 cumulative IPC: 0.280257 (Simulation time: 0 hr 35 min 44 sec) 
Heartbeat CPU 0 instructions: 59000003 cycles: 61804866 heartbeat IPC: 0.284212 cumulative IPC: 0.280691 (Simulation time: 0 hr 36 min 23 sec) 
Heartbeat CPU 0 instructions: 60000000 cycles: 65319862 heartbeat IPC: 0.284494 cumulative IPC: 0.281067 (Simulation time: 0 hr 37 min 0 sec) 
Heartbeat CPU 0 instructions: 61000000 cycles: 68830957 heartbeat IPC: 0.284811 cumulative IPC: 0.281403 (Simulation time: 0 hr 37 min 35 sec) 
Heartbeat CPU 0 instructions: 62000003 cycles: 72338756 heartbeat IPC: 0.28508 cumulative IPC: 0.281706 (Simulation time: 0 hr 38 min 11 sec) 
Heartbeat CPU 0 instructions: 63000001 cycles: 75849226 heartbeat IPC: 0.284862 cumulative IPC: 0.281946 (Simulation time: 0 hr 38 min 47 sec) 
Heartbeat CPU 0 instructions: 64000000 cycles: 79379009 heartbeat IPC: 0.283303 cumulative IPC: 0.282043 (Simulation time: 0 hr 39 min 23 sec) 
Heartbeat CPU 0 instructions: 65000000 cycles: 82947346 heartbeat IPC: 0.280243 cumulative IPC: 0.281922 (Simulation time: 0 hr 40 min 0 sec) 
Heartbeat CPU 0 instructions: 66000000 cycles: 86515642 heartbeat IPC: 0.280246 cumulative IPC: 0.281817 (Simulation time: 0 hr 40 min 38 sec) 
Heartbeat CPU 0 instructions: 67000001 cycles: 90104250 heartbeat IPC: 0.27866 cumulative IPC: 0.281629 (Simulation time: 0 hr 41 min 19 sec) 
Heartbeat CPU 0 instructions: 68000000 cycles: 93781780 heartbeat IPC: 0.271921 cumulative IPC: 0.281071 (Simulation time: 0 hr 42 min 3 sec) 
Heartbeat CPU 0 instructions: 69000003 cycles: 97541416 heartbeat IPC: 0.265984 cumulative IPC: 0.280235 (Simulation time: 0 hr 42 min 46 sec) 
Heartbeat CPU 0 instructions: 70000000 cycles: 101346666 heartbeat IPC: 0.262794 cumulative IPC: 0.279308 (Simulation time: 0 hr 43 min 26 sec) 
Heartbeat CPU 0 instructions: 71000002 cycles: 104952012 heartbeat IPC: 0.277366 cumulative IPC: 0.279215 (Simulation time: 0 hr 44 min 6 sec) 
Heartbeat CPU 0 instructions: 72000000 cycles: 108530313 heartbeat IPC: 0.279462 cumulative IPC: 0.279226 (Simulation time: 0 hr 44 min 50 sec) 
Heartbeat CPU 0 instructions: 73000003 cycles: 112105920 heartbeat IPC: 0.279674 cumulative IPC: 0.279245 (Simulation time: 0 hr 45 min 34 sec) 
Heartbeat CPU 0 instructions: 74000000 cycles: 115697991 heartbeat IPC: 0.27839 cumulative IPC: 0.27921 (Simulation time: 0 hr 46 min 17 sec) 
Heartbeat CPU 0 instructions: 75000000 cycles: 119289817 heartbeat IPC: 0.27841 cumulative IPC: 0.279178 (Simulation time: 0 hr 47 min 0 sec) 
Heartbeat CPU 0 instructions: 76000000 cycles: 122904803 heartbeat IPC: 0.276626 cumulative IPC: 0.279079 (Simulation time: 0 hr 47 min 44 sec) 
Heartbeat CPU 0 instructions: 77000000 cycles: 126492485 heartbeat IPC: 0.278731 cumulative IPC: 0.279066 (Simulation time: 0 hr 48 min 29 sec) 
Heartbeat CPU 0 instructions: 78000003 cycles: 130028365 heartbeat IPC: 0.282816 cumulative IPC: 0.279198 (Simulation time: 0 hr 49 min 11 sec) 
Heartbeat CPU 0 instructions: 79000000 cycles: 133592846 heartbeat IPC: 0.280545 cumulative IPC: 0.279244 (Simulation time: 0 hr 49 min 59 sec) 
Heartbeat CPU 0 instructions: 80000000 cycles: 137123190 heartbeat IPC: 0.283259 cumulative IPC: 0.279376 (Simulation time: 0 hr 50 min 43 sec) 
Heartbeat CPU 0 instructions: 81000001 cycles: 140638773 heartbeat IPC: 0.284448 cumulative IPC: 0.279537 (Simulation time: 0 hr 51 min 24 sec) 
Heartbeat CPU 0 instructions: 82000000 cycles: 144160093 heartbeat IPC: 0.283984 cumulative IPC: 0.279674 (Simulation time: 0 hr 52 min 12 sec) 
Heartbeat CPU 0 instructions: 83000003 cycles: 147699375 heartbeat IPC: 0.282544 cumulative IPC: 0.27976 (Simulation time: 0 hr 53 min 1 sec) 
Heartbeat CPU 0 instructions: 84000000 cycles: 151221101 heartbeat IPC: 0.283951 cumulative IPC: 0.279881 (Simulation time: 0 hr 53 min 42 sec) 
Heartbeat CPU 0 instructions: 85000000 cycles: 154736194 heartbeat IPC: 0.284487 cumulative IPC: 0.280011 (Simulation time: 0 hr 54 min 24 sec) 
Heartbeat CPU 0 instructions: 86000001 cycles: 158258452 heartbeat IPC: 0.283909 cumulative IPC: 0.280118 (Simulation time: 0 hr 55 min 6 sec) 
Heartbeat CPU 0 instructions: 87000001 cycles: 161791751 heartbeat IPC: 0.283022 cumulative IPC: 0.280196 (Simulation time: 0 hr 55 min 44 sec) 
Heartbeat CPU 0 instructions: 88000000 cycles: 165323008 heartbeat IPC: 0.283185 cumulative IPC: 0.280273 (Simulation time: 0 hr 56 min 23 sec) 
Heartbeat CPU 0 instructions: 89000003 cycles: 168862274 heartbeat IPC: 0.282545 cumulative IPC: 0.280331 (Simulation time: 0 hr 57 min 0 sec) 
Heartbeat CPU 0 instructions: 90000000 cycles: 172401233 heartbeat IPC: 0.282568 cumulative IPC: 0.280387 (Simulation time: 0 hr 57 min 37 sec) 
Heartbeat CPU 0 instructions: 91000000 cycles: 175928171 heartbeat IPC: 0.283532 cumulative IPC: 0.280463 (Simulation time: 0 hr 58 min 17 sec) 
Heartbeat CPU 0 instructions: 92000000 cycles: 179439777 heartbeat IPC: 0.28477 cumulative IPC: 0.280564 (Simulation time: 0 hr 58 min 57 sec) 
Heartbeat CPU 0 instructions: 93000001 cycles: 182954920 heartbeat IPC: 0.284484 cumulative IPC: 0.280654 (Simulation time: 0 hr 59 min 36 sec) 
Heartbeat CPU 0 instructions: 94000003 cycles: 186460625 heartbeat IPC: 0.28525 cumulative IPC: 0.280756 (Simulation time: 1 hr 0 min 19 sec) 
Heartbeat CPU 0 instructions: 95000002 cycles: 189973066 heartbeat IPC: 0.284702 cumulative IPC: 0.280843 (Simulation time: 1 hr 1 min 2 sec) 
Heartbeat CPU 0 instructions: 96000000 cycles: 193467238 heartbeat IPC: 0.28619 cumulative IPC: 0.280957 (Simulation time: 1 hr 1 min 42 sec) 
Heartbeat CPU 0 instructions: 97000000 cycles: 196957436 heartbeat IPC: 0.286517 cumulative IPC: 0.281073 (Simulation time: 1 hr 2 min 29 sec) 
Heartbeat CPU 0 instructions: 98000000 cycles: 200440783 heartbeat IPC: 0.28708 cumulative IPC: 0.281196 (Simulation time: 1 hr 3 min 12 sec) 
Heartbeat CPU 0 instructions: 99000000 cycles: 203944539 heartbeat IPC: 0.285408 cumulative IPC: 0.28128 (Simulation time: 1 hr 3 min 52 sec) 
Heartbeat CPU 0 instructions: 100000000 cycles: 207467348 heartbeat IPC: 0.283864 cumulative IPC: 0.281332 (Simulation time: 1 hr 4 min 31 sec) 
Heartbeat CPU 0 instructions: 101000003 cycles: 210971509 heartbeat IPC: 0.285376 cumulative IPC: 0.28141 (Simulation time: 1 hr 5 min 8 sec) 
Heartbeat CPU 0 instructions: 102000000 cycles: 214758099 heartbeat IPC: 0.264089 cumulative IPC: 0.281055 (Simulation time: 1 hr 5 min 45 sec) 
Heartbeat CPU 0 instructions: 103000002 cycles: 218880751 heartbeat IPC: 0.242563 cumulative IPC: 0.280216 (Simulation time: 1 hr 6 min 26 sec) 
Heartbeat CPU 0 instructions: 104000000 cycles: 222983947 heartbeat IPC: 0.243712 cumulative IPC: 0.279441 (Simulation time: 1 hr 7 min 8 sec) 
Heartbeat CPU 0 instructions: 105000000 cycles: 226878233 heartbeat IPC: 0.256786 cumulative IPC: 0.278994 (Simulation time: 1 hr 7 min 53 sec) 
Heartbeat CPU 0 instructions: 106000002 cycles: 230735286 heartbeat IPC: 0.259266 cumulative IPC: 0.278615 (Simulation time: 1 hr 8 min 28 sec) 
Heartbeat CPU 0 instructions: 107000001 cycles: 234653282 heartbeat IPC: 0.255232 cumulative IPC: 0.278168 (Simulation time: 1 hr 9 min 10 sec) 
Heartbeat CPU 0 instructions: 108000000 cycles: 238459694 heartbeat IPC: 0.262714 cumulative IPC: 0.277886 (Simulation time: 1 hr 9 min 49 sec) 
Heartbeat CPU 0 instructions: 109000000 cycles: 242180007 heartbeat IPC: 0.268795 cumulative IPC: 0.277727 (Simulation time: 1 hr 10 min 22 sec) 
Heartbeat CPU 0 instructions: 110000002 cycles: 245873655 heartbeat IPC: 0.270736 cumulative IPC: 0.277607 (Simulation time: 1 hr 10 min 59 sec) 
Heartbeat CPU 0 instructions: 111000000 cycles: 249552042 heartbeat IPC: 0.271858 cumulative IPC: 0.277511 (Simulation time: 1 hr 11 min 34 sec) 
Heartbeat CPU 0 instructions: 112000000 cycles: 253232218 heartbeat IPC: 0.271726 cumulative IPC: 0.277416 (Simulation time: 1 hr 12 min 8 sec) 
Heartbeat CPU 0 instructions: 113000001 cycles: 256930111 heartbeat IPC: 0.270425 cumulative IPC: 0.277302 (Simulation time: 1 hr 12 min 45 sec) 
Heartbeat CPU 0 instructions: 114000000 cycles: 260610742 heartbeat IPC: 0.271692 cumulative IPC: 0.277213 (Simulation time: 1 hr 13 min 18 sec) 
Heartbeat CPU 0 instructions: 115000003 cycles: 264177501 heartbeat IPC: 0.280367 cumulative IPC: 0.277261 (Simulation time: 1 hr 13 min 51 sec) 
Heartbeat CPU 0 instructions: 116000000 cycles: 267682629 heartbeat IPC: 0.285295 cumulative IPC: 0.277379 (Simulation time: 1 hr 14 min 23 sec) 
Heartbeat CPU 0 instructions: 117000001 cycles: 271198423 heartbeat IPC: 0.284431 cumulative IPC: 0.277482 (Simulation time: 1 hr 14 min 55 sec) 
Heartbeat CPU 0 instructions: 118000000 cycles: 274715665 heartbeat IPC: 0.284313 cumulative IPC: 0.27758 (Simulation time: 1 hr 15 min 25 sec) 
Heartbeat CPU 0 instructions: 119000001 cycles: 278420461 heartbeat IPC: 0.269921 cumulative IPC: 0.277466 (Simulation time: 1 hr 15 min 56 sec) 
Heartbeat CPU 0 instructions: 120000000 cycles: 283366506 heartbeat IPC: 0.202182 cumulative IPC: 0.275998 (Simulation time: 1 hr 16 min 28 sec) 
Heartbeat CPU 0 instructions: 121000001 cycles: 289302981 heartbeat IPC: 0.16845 cumulative IPC: 0.273538 (Simulation time: 1 hr 17 min 1 sec) 
Heartbeat CPU 0 instructions: 122000000 cycles: 294965082 heartbeat IPC: 0.176613 cumulative IPC: 0.271469 (Simulation time: 1 hr 17 min 31 sec) 
Heartbeat CPU 0 instructions: 123000001 cycles: 300602725 heartbeat IPC: 0.177379 cumulative IPC: 0.26951 (Simulation time: 1 hr 18 min 2 sec) 
Heartbeat CPU 0 instructions: 124000000 cycles: 306154240 heartbeat IPC: 0.180131 cumulative IPC: 0.267715 (Simulation time: 1 hr 18 min 33 sec) 
Heartbeat CPU 0 instructions: 125000003 cycles: 311617515 heartbeat IPC: 0.183041 cumulative IPC: 0.266074 (Simulation time: 1 hr 19 min 3 sec) 
Heartbeat CPU 0 instructions: 126000000 cycles: 317070034 heartbeat IPC: 0.183401 cumulative IPC: 0.264505 (Simulation time: 1 hr 19 min 31 sec) 
Heartbeat CPU 0 instructions: 127000003 cycles: 322523654 heartbeat IPC: 0.183365 cumulative IPC: 0.262994 (Simulation time: 1 hr 20 min 0 sec) 
Heartbeat CPU 0 instructions: 128000000 cycles: 327866365 heartbeat IPC: 0.18717 cumulative IPC: 0.261635 (Simulation time: 1 hr 20 min 28 sec) 
Heartbeat CPU 0 instructions: 129000002 cycles: 333073896 heartbeat IPC: 0.19203 cumulative IPC: 0.26044 (Simulation time: 1 hr 20 min 55 sec) 
Heartbeat CPU 0 instructions: 130000000 cycles: 338257864 heartbeat IPC: 0.192902 cumulative IPC: 0.259305 (Simulation time: 1 hr 21 min 20 sec) 
Heartbeat CPU 0 instructions: 131000001 cycles: 343632270 heartbeat IPC: 0.186067 cumulative IPC: 0.258051 (Simulation time: 1 hr 21 min 47 sec) 
Heartbeat CPU 0 instructions: 132000000 cycles: 349052285 heartbeat IPC: 0.184501 cumulative IPC: 0.256803 (Simulation time: 1 hr 22 min 13 sec) 
Heartbeat CPU 0 instructions: 133000001 cycles: 354626315 heartbeat IPC: 0.179404 cumulative IPC: 0.255475 (Simulation time: 1 hr 22 min 38 sec) 
Heartbeat CPU 0 instructions: 134000002 cycles: 359823305 heartbeat IPC: 0.192419 cumulative IPC: 0.254482 (Simulation time: 1 hr 23 min 3 sec) 
Heartbeat CPU 0 instructions: 135000000 cycles: 364966571 heartbeat IPC: 0.194429 cumulative IPC: 0.253561 (Simulation time: 1 hr 23 min 26 sec) 
Heartbeat CPU 0 instructions: 136000000 cycles: 370133876 heartbeat IPC: 0.193524 cumulative IPC: 0.252649 (Simulation time: 1 hr 23 min 48 sec) 
Heartbeat CPU 0 instructions: 137000001 cycles: 375200405 heartbeat IPC: 0.197374 cumulative IPC: 0.251839 (Simulation time: 1 hr 24 min 9 sec) 
Heartbeat CPU 0 instructions: 138000002 cycles: 380166990 heartbeat IPC: 0.201346 cumulative IPC: 0.251123 (Simulation time: 1 hr 24 min 29 sec) 
Heartbeat CPU 0 instructions: 139000000 cycles: 385131909 heartbeat IPC: 0.201413 cumulative IPC: 0.250429 (Simulation time: 1 hr 24 min 47 sec) 
Heartbeat CPU 0 instructions: 140000000 cycles: 390090199 heartbeat IPC: 0.201682 cumulative IPC: 0.249758 (Simulation time: 1 hr 25 min 7 sec) 
Heartbeat CPU 0 instructions: 141000000 cycles: 395052903 heartbeat IPC: 0.201503 cumulative IPC: 0.249102 (Simulation time: 1 hr 25 min 26 sec) 
Heartbeat CPU 0 instructions: 142000000 cycles: 399965689 heartbeat IPC: 0.20355 cumulative IPC: 0.248498 (Simulation time: 1 hr 25 min 46 sec) 
Heartbeat CPU 0 instructions: 143000000 cycles: 404842819 heartbeat IPC: 0.205039 cumulative IPC: 0.247933 (Simulation time: 1 hr 26 min 4 sec) 
Heartbeat CPU 0 instructions: 144000000 cycles: 409714778 heartbeat IPC: 0.205256 cumulative IPC: 0.247386 (Simulation time: 1 hr 26 min 21 sec) 
Heartbeat CPU 0 instructions: 145000000 cycles: 414569648 heartbeat IPC: 0.205979 cumulative IPC: 0.246863 (Simulation time: 1 hr 26 min 37 sec) 
Heartbeat CPU 0 instructions: 146000000 cycles: 419499260 heartbeat IPC: 0.202856 cumulative IPC: 0.246307 (Simulation time: 1 hr 26 min 54 sec) 
Heartbeat CPU 0 instructions: 147000000 cycles: 423157438 heartbeat IPC: 0.27336 cumulative IPC: 0.246558 (Simulation time: 1 hr 27 min 11 sec) 
Heartbeat CPU 0 instructions: 148000000 cycles: 428273533 heartbeat IPC: 0.195462 cumulative IPC: 0.245902 (Simulation time: 1 hr 27 min 25 sec) 
Heartbeat CPU 0 instructions: 149000003 cycles: 433201706 heartbeat IPC: 0.202916 cumulative IPC: 0.245377 (Simulation time: 1 hr 27 min 37 sec) 
Heartbeat CPU 0 instructions: 150000001 cycles: 437546766 heartbeat IPC: 0.230146 cumulative IPC: 0.245215 (Simulation time: 1 hr 27 min 48 sec) 
Finished CPU 0 instructions: 100000002 cycles: 407805646 cummulative IPC: 0.245215 (Simulation time: 1 hr 27 min 48 sec) 

ChampSim completed all CPUs

Region of Interest Statistics

CPU 0 cummulative IPC: 0.245215 instructions: 100000002 cycles: 407805646
LLC TOTAL     ACCESS:    1690046  HIT:     143610  MISS:    1546436
LLC LOAD      ACCESS:     565219  HIT:      31684  MISS:     533535
LLC RFO       ACCESS:      88719  HIT:        629  MISS:      88090
LLC PREFETCH  ACCESS:     720305  HIT:      43472  MISS:     676833
LLC WRITEBACK ACCESS:     315803  HIT:      67825  MISS:     247978
OPTgen accesses: 23987
OPTgen hits: 3821
OPTgen hit rate: 15.9295


