
*** ChampSim Multicore Out-of-Order Simulator ***

Warmup Instructions: 50000000
Simulation Instructions: 100000000
Configuration: 2
Number of CPUs: 1
LLC sets: 2048
LLC ways: 16
Off-chip DRAM Channels: 1 Width: 64-bit Data Rate: 1600 MT/s

CPU 0 runs /datasets/cs240c-wi22-a00-public/data/Assignment2-gz/soplex_217B.trace.gz
CPU 0 L1D next line prefetcher
CPU 0 L2C IP-based stride prefetcher
Heartbeat CPU 0 instructions: 1000002 cycles: 441324 heartbeat IPC: 2.26591 cumulative IPC: 2.26591 (Simulation time: 0 hr 2 min 27 sec) 
Heartbeat CPU 0 instructions: 2000003 cycles: 800608 heartbeat IPC: 2.78332 cumulative IPC: 2.49811 (Simulation time: 0 hr 5 min 4 sec) 
Heartbeat CPU 0 instructions: 3000003 cycles: 1245545 heartbeat IPC: 2.24751 cumulative IPC: 2.40859 (Simulation time: 0 hr 8 min 13 sec) 
Heartbeat CPU 0 instructions: 4000000 cycles: 1673866 heartbeat IPC: 2.33469 cumulative IPC: 2.38968 (Simulation time: 0 hr 11 min 44 sec) 
Heartbeat CPU 0 instructions: 5000001 cycles: 2057913 heartbeat IPC: 2.60385 cumulative IPC: 2.42965 (Simulation time: 0 hr 14 min 6 sec) 
Heartbeat CPU 0 instructions: 6000000 cycles: 2432336 heartbeat IPC: 2.67077 cumulative IPC: 2.46676 (Simulation time: 0 hr 16 min 5 sec) 
Heartbeat CPU 0 instructions: 7000003 cycles: 2962655 heartbeat IPC: 1.88566 cumulative IPC: 2.36275 (Simulation time: 0 hr 18 min 33 sec) 
Heartbeat CPU 0 instructions: 8000000 cycles: 3409355 heartbeat IPC: 2.23863 cumulative IPC: 2.34648 (Simulation time: 0 hr 21 min 40 sec) 
Heartbeat CPU 0 instructions: 9000001 cycles: 3833919 heartbeat IPC: 2.35536 cumulative IPC: 2.34747 (Simulation time: 0 hr 24 min 39 sec) 
Heartbeat CPU 0 instructions: 10000000 cycles: 4246362 heartbeat IPC: 2.42458 cumulative IPC: 2.35496 (Simulation time: 0 hr 27 min 11 sec) 
Heartbeat CPU 0 instructions: 11000002 cycles: 4674773 heartbeat IPC: 2.33421 cumulative IPC: 2.35306 (Simulation time: 0 hr 30 min 23 sec) 
Heartbeat CPU 0 instructions: 12000000 cycles: 5079169 heartbeat IPC: 2.47282 cumulative IPC: 2.36259 (Simulation time: 0 hr 33 min 8 sec) 
Heartbeat CPU 0 instructions: 13000000 cycles: 5463417 heartbeat IPC: 2.60249 cumulative IPC: 2.37946 (Simulation time: 0 hr 35 min 38 sec) 
Heartbeat CPU 0 instructions: 14000000 cycles: 5914513 heartbeat IPC: 2.21682 cumulative IPC: 2.36706 (Simulation time: 0 hr 37 min 48 sec) 
Heartbeat CPU 0 instructions: 15000002 cycles: 6441390 heartbeat IPC: 1.89798 cumulative IPC: 2.32869 (Simulation time: 0 hr 40 min 52 sec) 
Heartbeat CPU 0 instructions: 16000000 cycles: 6900185 heartbeat IPC: 2.17962 cumulative IPC: 2.31878 (Simulation time: 0 hr 44 min 18 sec) 
Heartbeat CPU 0 instructions: 17000002 cycles: 7280259 heartbeat IPC: 2.63107 cumulative IPC: 2.33508 (Simulation time: 0 hr 46 min 37 sec) 
Heartbeat CPU 0 instructions: 18000003 cycles: 7709911 heartbeat IPC: 2.32747 cumulative IPC: 2.33466 (Simulation time: 0 hr 49 min 6 sec) 
Heartbeat CPU 0 instructions: 19000001 cycles: 8133903 heartbeat IPC: 2.35853 cumulative IPC: 2.3359 (Simulation time: 0 hr 52 min 10 sec) 
Heartbeat CPU 0 instructions: 20000000 cycles: 8518248 heartbeat IPC: 2.60183 cumulative IPC: 2.3479 (Simulation time: 0 hr 54 min 16 sec) 
Heartbeat CPU 0 instructions: 21000000 cycles: 8895832 heartbeat IPC: 2.64842 cumulative IPC: 2.36066 (Simulation time: 0 hr 56 min 36 sec) 
Heartbeat CPU 0 instructions: 22000001 cycles: 9430858 heartbeat IPC: 1.86907 cumulative IPC: 2.33277 (Simulation time: 0 hr 59 min 3 sec) 
Heartbeat CPU 0 instructions: 23000001 cycles: 9879321 heartbeat IPC: 2.22984 cumulative IPC: 2.3281 (Simulation time: 1 hr 2 min 27 sec) 
Heartbeat CPU 0 instructions: 24000000 cycles: 10296499 heartbeat IPC: 2.39706 cumulative IPC: 2.33089 (Simulation time: 1 hr 5 min 11 sec) 
Heartbeat CPU 0 instructions: 25000001 cycles: 10709204 heartbeat IPC: 2.42304 cumulative IPC: 2.33444 (Simulation time: 1 hr 7 min 30 sec) 
Heartbeat CPU 0 instructions: 26000001 cycles: 11141114 heartbeat IPC: 2.3153 cumulative IPC: 2.3337 (Simulation time: 1 hr 10 min 43 sec) 
Heartbeat CPU 0 instructions: 27000002 cycles: 11543127 heartbeat IPC: 2.48748 cumulative IPC: 2.33905 (Simulation time: 1 hr 13 min 5 sec) 
Heartbeat CPU 0 instructions: 28000000 cycles: 11927440 heartbeat IPC: 2.60204 cumulative IPC: 2.34753 (Simulation time: 1 hr 15 min 29 sec) 
Heartbeat CPU 0 instructions: 29000002 cycles: 12382091 heartbeat IPC: 2.19949 cumulative IPC: 2.34209 (Simulation time: 1 hr 17 min 57 sec) 
Heartbeat CPU 0 instructions: 30000002 cycles: 12910357 heartbeat IPC: 1.89299 cumulative IPC: 2.32372 (Simulation time: 1 hr 20 min 49 sec) 
Heartbeat CPU 0 instructions: 31000000 cycles: 13316200 heartbeat IPC: 2.464 cumulative IPC: 2.32799 (Simulation time: 1 hr 23 min 58 sec) 
Heartbeat CPU 0 instructions: 32000000 cycles: 13724655 heartbeat IPC: 2.44825 cumulative IPC: 2.33157 (Simulation time: 1 hr 26 min 19 sec) 
Heartbeat CPU 0 instructions: 33000001 cycles: 14149342 heartbeat IPC: 2.35468 cumulative IPC: 2.33226 (Simulation time: 1 hr 29 min 1 sec) 
Heartbeat CPU 0 instructions: 34000000 cycles: 14557675 heartbeat IPC: 2.44898 cumulative IPC: 2.33554 (Simulation time: 1 hr 31 min 58 sec) 
Heartbeat CPU 0 instructions: 35000002 cycles: 14942370 heartbeat IPC: 2.59947 cumulative IPC: 2.34233 (Simulation time: 1 hr 33 min 56 sec) 
Heartbeat CPU 0 instructions: 36000000 cycles: 15379573 heartbeat IPC: 2.28726 cumulative IPC: 2.34077 (Simulation time: 1 hr 36 min 23 sec) 
Heartbeat CPU 0 instructions: 37000001 cycles: 15911165 heartbeat IPC: 1.88114 cumulative IPC: 2.32541 (Simulation time: 1 hr 39 min 32 sec) 
Heartbeat CPU 0 instructions: 38000000 cycles: 16340066 heartbeat IPC: 2.33154 cumulative IPC: 2.32557 (Simulation time: 1 hr 42 min 54 sec) 
Heartbeat CPU 0 instructions: 39000001 cycles: 16736672 heartbeat IPC: 2.5214 cumulative IPC: 2.33021 (Simulation time: 1 hr 45 min 20 sec) 
Heartbeat CPU 0 instructions: 40000000 cycles: 17161060 heartbeat IPC: 2.35633 cumulative IPC: 2.33086 (Simulation time: 1 hr 48 min 2 sec) 
Heartbeat CPU 0 instructions: 41000000 cycles: 17576095 heartbeat IPC: 2.40944 cumulative IPC: 2.33271 (Simulation time: 1 hr 50 min 49 sec) 
Heartbeat CPU 0 instructions: 42000002 cycles: 17960022 heartbeat IPC: 2.60467 cumulative IPC: 2.33853 (Simulation time: 1 hr 52 min 54 sec) 
Heartbeat CPU 0 instructions: 43000000 cycles: 18380987 heartbeat IPC: 2.37549 cumulative IPC: 2.33937 (Simulation time: 1 hr 54 min 53 sec) 
Heartbeat CPU 0 instructions: 44000000 cycles: 18917811 heartbeat IPC: 1.86281 cumulative IPC: 2.32585 (Simulation time: 1 hr 57 min 13 sec) 
Heartbeat CPU 0 instructions: 45000003 cycles: 19378214 heartbeat IPC: 2.17202 cumulative IPC: 2.3222 (Simulation time: 2 hr 0 min 20 sec) 
Heartbeat CPU 0 instructions: 46000000 cycles: 19809847 heartbeat IPC: 2.31678 cumulative IPC: 2.32208 (Simulation time: 2 hr 3 min 4 sec) 
Heartbeat CPU 0 instructions: 47000001 cycles: 20221017 heartbeat IPC: 2.43209 cumulative IPC: 2.32431 (Simulation time: 2 hr 5 min 24 sec) 
Heartbeat CPU 0 instructions: 48000000 cycles: 20649468 heartbeat IPC: 2.33399 cumulative IPC: 2.32452 (Simulation time: 2 hr 8 min 19 sec) 
Heartbeat CPU 0 instructions: 49000000 cycles: 21055047 heartbeat IPC: 2.46561 cumulative IPC: 2.32723 (Simulation time: 2 hr 10 min 52 sec) 
Heartbeat CPU 0 instructions: 50000002 cycles: 21439551 heartbeat IPC: 2.60076 cumulative IPC: 2.33214 (Simulation time: 2 hr 12 min 45 sec) 

Warmup complete CPU 0 instructions: 50000002 cycles: 21439551 (Simulation time: 2 hr 12 min 45 sec) 

Heartbeat CPU 0 instructions: 51000000 cycles: 23968471 heartbeat IPC: 0.395425 cumulative IPC: 0.395425 (Simulation time: 2 hr 15 min 27 sec) 
Heartbeat CPU 0 instructions: 52000000 cycles: 26615238 heartbeat IPC: 0.377819 cumulative IPC: 0.386422 (Simulation time: 2 hr 18 min 22 sec) 
Heartbeat CPU 0 instructions: 53000000 cycles: 29974969 heartbeat IPC: 0.297643 cumulative IPC: 0.351476 (Simulation time: 2 hr 21 min 23 sec) 
Heartbeat CPU 0 instructions: 54000000 cycles: 31961982 heartbeat IPC: 0.503268 cumulative IPC: 0.38014 (Simulation time: 2 hr 23 min 54 sec) 
Heartbeat CPU 0 instructions: 55000000 cycles: 35100825 heartbeat IPC: 0.318589 cumulative IPC: 0.365998 (Simulation time: 2 hr 26 min 59 sec) 
Heartbeat CPU 0 instructions: 56000000 cycles: 37921046 heartbeat IPC: 0.354582 cumulative IPC: 0.364045 (Simulation time: 2 hr 30 min 8 sec) 
Heartbeat CPU 0 instructions: 57000003 cycles: 39252683 heartbeat IPC: 0.750958 cumulative IPC: 0.392969 (Simulation time: 2 hr 32 min 36 sec) 
Heartbeat CPU 0 instructions: 58000000 cycles: 41415637 heartbeat IPC: 0.462329 cumulative IPC: 0.400479 (Simulation time: 2 hr 34 min 59 sec) 
Heartbeat CPU 0 instructions: 59000000 cycles: 43961850 heartbeat IPC: 0.39274 cumulative IPC: 0.399604 (Simulation time: 2 hr 38 min 3 sec) 
Heartbeat CPU 0 instructions: 60000000 cycles: 47540152 heartbeat IPC: 0.279462 cumulative IPC: 0.383133 (Simulation time: 2 hr 42 min 6 sec) 
Heartbeat CPU 0 instructions: 61000000 cycles: 49862337 heartbeat IPC: 0.430629 cumulative IPC: 0.387013 (Simulation time: 2 hr 44 min 28 sec) 
Heartbeat CPU 0 instructions: 62000000 cycles: 52426173 heartbeat IPC: 0.390041 cumulative IPC: 0.387264 (Simulation time: 2 hr 47 min 15 sec) 
Heartbeat CPU 0 instructions: 63000001 cycles: 55759714 heartbeat IPC: 0.299982 cumulative IPC: 0.378786 (Simulation time: 2 hr 51 min 3 sec) 
Heartbeat CPU 0 instructions: 64000000 cycles: 57094671 heartbeat IPC: 0.749087 cumulative IPC: 0.39265 (Simulation time: 2 hr 53 min 41 sec) 
Heartbeat CPU 0 instructions: 65000001 cycles: 58587766 heartbeat IPC: 0.66975 cumulative IPC: 0.403788 (Simulation time: 2 hr 56 min 5 sec) 
Heartbeat CPU 0 instructions: 66000002 cycles: 61659211 heartbeat IPC: 0.32558 cumulative IPC: 0.397815 (Simulation time: 2 hr 59 min 10 sec) 
Heartbeat CPU 0 instructions: 67000000 cycles: 65283582 heartbeat IPC: 0.275909 cumulative IPC: 0.387738 (Simulation time: 3 hr 2 min 48 sec) 
Heartbeat CPU 0 instructions: 68000000 cycles: 71456698 heartbeat IPC: 0.161993 cumulative IPC: 0.359877 (Simulation time: 3 hr 7 min 0 sec) 
Heartbeat CPU 0 instructions: 69000001 cycles: 75931252 heartbeat IPC: 0.223486 cumulative IPC: 0.348677 (Simulation time: 3 hr 10 min 32 sec) 
Heartbeat CPU 0 instructions: 70000002 cycles: 80361226 heartbeat IPC: 0.225735 cumulative IPC: 0.339434 (Simulation time: 3 hr 14 min 37 sec) 
Heartbeat CPU 0 instructions: 71000002 cycles: 85284669 heartbeat IPC: 0.20311 cumulative IPC: 0.328921 (Simulation time: 3 hr 19 min 19 sec) 
Heartbeat CPU 0 instructions: 72000000 cycles: 89009324 heartbeat IPC: 0.268481 cumulative IPC: 0.325589 (Simulation time: 3 hr 22 min 57 sec) 
Heartbeat CPU 0 instructions: 73000000 cycles: 92557875 heartbeat IPC: 0.281805 cumulative IPC: 0.323405 (Simulation time: 3 hr 26 min 14 sec) 
Heartbeat CPU 0 instructions: 74000000 cycles: 96973028 heartbeat IPC: 0.226493 cumulative IPC: 0.31774 (Simulation time: 3 hr 29 min 48 sec) 
Heartbeat CPU 0 instructions: 75000002 cycles: 101676697 heartbeat IPC: 0.2126 cumulative IPC: 0.311576 (Simulation time: 3 hr 35 min 49 sec) 
Heartbeat CPU 0 instructions: 76000000 cycles: 104378228 heartbeat IPC: 0.37016 cumulative IPC: 0.313485 (Simulation time: 3 hr 39 min 19 sec) 
Heartbeat CPU 0 instructions: 77000000 cycles: 108246984 heartbeat IPC: 0.258481 cumulative IPC: 0.311033 (Simulation time: 3 hr 42 min 47 sec) 
Heartbeat CPU 0 instructions: 78000002 cycles: 110557825 heartbeat IPC: 0.432744 cumulative IPC: 0.314189 (Simulation time: 3 hr 47 min 3 sec) 
Heartbeat CPU 0 instructions: 79000002 cycles: 112496469 heartbeat IPC: 0.515824 cumulative IPC: 0.318482 (Simulation time: 3 hr 50 min 16 sec) 
Heartbeat CPU 0 instructions: 80000000 cycles: 113670195 heartbeat IPC: 0.851986 cumulative IPC: 0.325271 (Simulation time: 3 hr 52 min 33 sec) 
Heartbeat CPU 0 instructions: 81000002 cycles: 116035841 heartbeat IPC: 0.422718 cumulative IPC: 0.327708 (Simulation time: 3 hr 55 min 35 sec) 
Heartbeat CPU 0 instructions: 82000001 cycles: 119298717 heartbeat IPC: 0.306478 cumulative IPC: 0.327001 (Simulation time: 3 hr 59 min 52 sec) 
Heartbeat CPU 0 instructions: 83000002 cycles: 122081779 heartbeat IPC: 0.359317 cumulative IPC: 0.327894 (Simulation time: 4 hr 3 min 8 sec) 
Heartbeat CPU 0 instructions: 84000000 cycles: 124456357 heartbeat IPC: 0.421127 cumulative IPC: 0.330043 (Simulation time: 4 hr 6 min 42 sec) 
Heartbeat CPU 0 instructions: 85000000 cycles: 126248114 heartbeat IPC: 0.558111 cumulative IPC: 0.333942 (Simulation time: 4 hr 9 min 44 sec) 
Heartbeat CPU 0 instructions: 86000000 cycles: 130672218 heartbeat IPC: 0.226034 cumulative IPC: 0.329572 (Simulation time: 4 hr 16 min 26 sec) 
Heartbeat CPU 0 instructions: 87000000 cycles: 133756123 heartbeat IPC: 0.324264 cumulative IPC: 0.329426 (Simulation time: 4 hr 20 min 6 sec) 
Heartbeat CPU 0 instructions: 88000000 cycles: 135223298 heartbeat IPC: 0.681582 cumulative IPC: 0.333967 (Simulation time: 4 hr 22 min 33 sec) 
Heartbeat CPU 0 instructions: 89000003 cycles: 138001504 heartbeat IPC: 0.359946 cumulative IPC: 0.334586 (Simulation time: 4 hr 25 min 7 sec) 
Heartbeat CPU 0 instructions: 90000002 cycles: 140802570 heartbeat IPC: 0.357007 cumulative IPC: 0.335112 (Simulation time: 4 hr 29 min 5 sec) 
Heartbeat CPU 0 instructions: 91000001 cycles: 144410511 heartbeat IPC: 0.277166 cumulative IPC: 0.333412 (Simulation time: 4 hr 33 min 5 sec) 
Heartbeat CPU 0 instructions: 92000000 cycles: 146305551 heartbeat IPC: 0.527693 cumulative IPC: 0.336361 (Simulation time: 4 hr 35 min 59 sec) 
Heartbeat CPU 0 instructions: 93000000 cycles: 149946276 heartbeat IPC: 0.274671 cumulative IPC: 0.334613 (Simulation time: 4 hr 40 min 32 sec) 
Heartbeat CPU 0 instructions: 94000001 cycles: 153037030 heartbeat IPC: 0.323546 cumulative IPC: 0.334353 (Simulation time: 4 hr 44 min 9 sec) 
Heartbeat CPU 0 instructions: 95000003 cycles: 154457080 heartbeat IPC: 0.704202 cumulative IPC: 0.338301 (Simulation time: 4 hr 46 min 31 sec) 
Heartbeat CPU 0 instructions: 96000000 cycles: 156769855 heartbeat IPC: 0.43238 cumulative IPC: 0.339909 (Simulation time: 4 hr 49 min 8 sec) 
Heartbeat CPU 0 instructions: 97000002 cycles: 159219068 heartbeat IPC: 0.408295 cumulative IPC: 0.341125 (Simulation time: 4 hr 52 min 14 sec) 
Heartbeat CPU 0 instructions: 98000003 cycles: 163182781 heartbeat IPC: 0.252289 cumulative IPC: 0.338641 (Simulation time: 4 hr 55 min 57 sec) 
Heartbeat CPU 0 instructions: 99000000 cycles: 166182762 heartbeat IPC: 0.333334 cumulative IPC: 0.338531 (Simulation time: 5 hr 0 min 13 sec) 
Heartbeat CPU 0 instructions: 100000000 cycles: 168037919 heartbeat IPC: 0.539038 cumulative IPC: 0.341068 (Simulation time: 5 hr 3 min 40 sec) 
Heartbeat CPU 0 instructions: 101000001 cycles: 172100331 heartbeat IPC: 0.246159 cumulative IPC: 0.338509 (Simulation time: 5 hr 8 min 10 sec) 
Heartbeat CPU 0 instructions: 102000000 cycles: 173758859 heartbeat IPC: 0.602944 cumulative IPC: 0.341388 (Simulation time: 5 hr 10 min 29 sec) 
Heartbeat CPU 0 instructions: 103000001 cycles: 175103221 heartbeat IPC: 0.743848 cumulative IPC: 0.344909 (Simulation time: 5 hr 13 min 2 sec) 
Heartbeat CPU 0 instructions: 104000000 cycles: 178397394 heartbeat IPC: 0.303566 cumulative IPC: 0.344041 (Simulation time: 5 hr 16 min 26 sec) 
Heartbeat CPU 0 instructions: 105000003 cycles: 181575098 heartbeat IPC: 0.314694 cumulative IPC: 0.343459 (Simulation time: 5 hr 19 min 41 sec) 
Heartbeat CPU 0 instructions: 106000002 cycles: 184292763 heartbeat IPC: 0.367963 cumulative IPC: 0.343868 (Simulation time: 5 hr 22 min 42 sec) 
Heartbeat CPU 0 instructions: 107000000 cycles: 185957575 heartbeat IPC: 0.600667 cumulative IPC: 0.346467 (Simulation time: 5 hr 25 min 55 sec) 
Heartbeat CPU 0 instructions: 108000000 cycles: 189831652 heartbeat IPC: 0.258126 cumulative IPC: 0.344434 (Simulation time: 5 hr 29 min 36 sec) 
Heartbeat CPU 0 instructions: 109000000 cycles: 191756326 heartbeat IPC: 0.519569 cumulative IPC: 0.346413 (Simulation time: 5 hr 32 min 2 sec) 
Heartbeat CPU 0 instructions: 110000002 cycles: 193091785 heartbeat IPC: 0.748808 cumulative IPC: 0.349544 (Simulation time: 5 hr 34 min 30 sec) 
Heartbeat CPU 0 instructions: 111000000 cycles: 196319109 heartbeat IPC: 0.309854 cumulative IPC: 0.348811 (Simulation time: 5 hr 37 min 29 sec) 
Heartbeat CPU 0 instructions: 112000000 cycles: 199137017 heartbeat IPC: 0.354873 cumulative IPC: 0.348908 (Simulation time: 5 hr 40 min 24 sec) 
Heartbeat CPU 0 instructions: 113000001 cycles: 202065688 heartbeat IPC: 0.341452 cumulative IPC: 0.348787 (Simulation time: 5 hr 43 min 4 sec) 
Heartbeat CPU 0 instructions: 114000003 cycles: 203656728 heartbeat IPC: 0.628521 cumulative IPC: 0.351229 (Simulation time: 5 hr 45 min 40 sec) 
Heartbeat CPU 0 instructions: 115000000 cycles: 207431698 heartbeat IPC: 0.264902 cumulative IPC: 0.349477 (Simulation time: 5 hr 49 min 37 sec) 
Heartbeat CPU 0 instructions: 116000000 cycles: 209668788 heartbeat IPC: 0.447009 cumulative IPC: 0.350636 (Simulation time: 5 hr 52 min 46 sec) 
Heartbeat CPU 0 instructions: 117000000 cycles: 211009758 heartbeat IPC: 0.745729 cumulative IPC: 0.353431 (Simulation time: 5 hr 54 min 38 sec) 
Heartbeat CPU 0 instructions: 118000000 cycles: 213995300 heartbeat IPC: 0.334948 cumulative IPC: 0.353144 (Simulation time: 5 hr 57 min 46 sec) 
Heartbeat CPU 0 instructions: 119000002 cycles: 216637073 heartbeat IPC: 0.378534 cumulative IPC: 0.353488 (Simulation time: 6 hr 1 min 8 sec) 
Heartbeat CPU 0 instructions: 120000000 cycles: 219758666 heartbeat IPC: 0.320349 cumulative IPC: 0.352966 (Simulation time: 6 hr 3 min 45 sec) 
Heartbeat CPU 0 instructions: 121000000 cycles: 221432209 heartbeat IPC: 0.597535 cumulative IPC: 0.355013 (Simulation time: 6 hr 6 min 20 sec) 
Heartbeat CPU 0 instructions: 122000001 cycles: 224939971 heartbeat IPC: 0.285082 cumulative IPC: 0.353808 (Simulation time: 6 hr 10 min 21 sec) 
Heartbeat CPU 0 instructions: 123000000 cycles: 227483242 heartbeat IPC: 0.393194 cumulative IPC: 0.354294 (Simulation time: 6 hr 13 min 11 sec) 
Heartbeat CPU 0 instructions: 124000000 cycles: 228832978 heartbeat IPC: 0.740886 cumulative IPC: 0.35681 (Simulation time: 6 hr 15 min 21 sec) 
Heartbeat CPU 0 instructions: 125000003 cycles: 231442038 heartbeat IPC: 0.383281 cumulative IPC: 0.357139 (Simulation time: 6 hr 17 min 40 sec) 
Heartbeat CPU 0 instructions: 126000002 cycles: 234064198 heartbeat IPC: 0.381365 cumulative IPC: 0.357437 (Simulation time: 6 hr 20 min 40 sec) 
Heartbeat CPU 0 instructions: 127000003 cycles: 236863543 heartbeat IPC: 0.357227 cumulative IPC: 0.357435 (Simulation time: 6 hr 23 min 48 sec) 
Heartbeat CPU 0 instructions: 128000000 cycles: 239344856 heartbeat IPC: 0.403011 cumulative IPC: 0.357954 (Simulation time: 6 hr 26 min 19 sec) 
Heartbeat CPU 0 instructions: 129000002 cycles: 241255371 heartbeat IPC: 0.52342 cumulative IPC: 0.359392 (Simulation time: 6 hr 28 min 50 sec) 
Heartbeat CPU 0 instructions: 130000000 cycles: 245323986 heartbeat IPC: 0.245783 cumulative IPC: 0.357327 (Simulation time: 6 hr 32 min 7 sec) 
Heartbeat CPU 0 instructions: 131000001 cycles: 246725296 heartbeat IPC: 0.713619 cumulative IPC: 0.359543 (Simulation time: 6 hr 33 min 32 sec) 
Heartbeat CPU 0 instructions: 132000000 cycles: 248035196 heartbeat IPC: 0.763416 cumulative IPC: 0.361878 (Simulation time: 6 hr 35 min 2 sec) 
Heartbeat CPU 0 instructions: 133000002 cycles: 251289878 heartbeat IPC: 0.30725 cumulative IPC: 0.361105 (Simulation time: 6 hr 37 min 31 sec) 
Heartbeat CPU 0 instructions: 134000002 cycles: 254599809 heartbeat IPC: 0.302121 cumulative IPC: 0.360267 (Simulation time: 6 hr 40 min 4 sec) 
Heartbeat CPU 0 instructions: 135000001 cycles: 257231772 heartbeat IPC: 0.379944 cumulative IPC: 0.360487 (Simulation time: 6 hr 41 min 56 sec) 
Heartbeat CPU 0 instructions: 136000000 cycles: 258900228 heartbeat IPC: 0.599356 cumulative IPC: 0.362165 (Simulation time: 6 hr 43 min 42 sec) 
Heartbeat CPU 0 instructions: 137000003 cycles: 262694513 heartbeat IPC: 0.263555 cumulative IPC: 0.360614 (Simulation time: 6 hr 45 min 47 sec) 
Heartbeat CPU 0 instructions: 138000000 cycles: 264516322 heartbeat IPC: 0.548903 cumulative IPC: 0.362026 (Simulation time: 6 hr 46 min 49 sec) 
Heartbeat CPU 0 instructions: 139000000 cycles: 265827851 heartbeat IPC: 0.762469 cumulative IPC: 0.364175 (Simulation time: 6 hr 47 min 44 sec) 
Heartbeat CPU 0 instructions: 140000000 cycles: 269082758 heartbeat IPC: 0.307228 cumulative IPC: 0.363426 (Simulation time: 6 hr 49 min 20 sec) 
Heartbeat CPU 0 instructions: 141000001 cycles: 272039526 heartbeat IPC: 0.338207 cumulative IPC: 0.363129 (Simulation time: 6 hr 51 min 17 sec) 
Heartbeat CPU 0 instructions: 142000001 cycles: 274862033 heartbeat IPC: 0.354295 cumulative IPC: 0.36303 (Simulation time: 6 hr 52 min 52 sec) 
Heartbeat CPU 0 instructions: 143000000 cycles: 276491008 heartbeat IPC: 0.613882 cumulative IPC: 0.364632 (Simulation time: 6 hr 54 min 11 sec) 
Heartbeat CPU 0 instructions: 144000000 cycles: 280212057 heartbeat IPC: 0.268741 cumulative IPC: 0.363253 (Simulation time: 6 hr 55 min 36 sec) 
Heartbeat CPU 0 instructions: 145000001 cycles: 282316467 heartbeat IPC: 0.475193 cumulative IPC: 0.364156 (Simulation time: 6 hr 56 min 19 sec) 
Heartbeat CPU 0 instructions: 146000000 cycles: 283639288 heartbeat IPC: 0.755959 cumulative IPC: 0.366133 (Simulation time: 6 hr 56 min 51 sec) 
Heartbeat CPU 0 instructions: 147000000 cycles: 286696984 heartbeat IPC: 0.327044 cumulative IPC: 0.365682 (Simulation time: 6 hr 57 min 42 sec) 
Heartbeat CPU 0 instructions: 148000000 cycles: 289399918 heartbeat IPC: 0.369968 cumulative IPC: 0.365726 (Simulation time: 6 hr 58 min 45 sec) 
Heartbeat CPU 0 instructions: 149000002 cycles: 292515798 heartbeat IPC: 0.320937 cumulative IPC: 0.365211 (Simulation time: 6 hr 59 min 34 sec) 
Heartbeat CPU 0 instructions: 150000000 cycles: 294086020 heartbeat IPC: 0.636851 cumulative IPC: 0.366775 (Simulation time: 7 hr 0 min 15 sec) 
Finished CPU 0 instructions: 100000001 cycles: 272646471 cummulative IPC: 0.366775 (Simulation time: 7 hr 0 min 15 sec) 

ChampSim completed all CPUs

Region of Interest Statistics

CPU 0 cummulative IPC: 0.366775 instructions: 100000001 cycles: 272646471
LLC TOTAL     ACCESS:    8587157  HIT:    4004390  MISS:    4582767
LLC LOAD      ACCESS:    2179893  HIT:     910011  MISS:    1269882
LLC RFO       ACCESS:     808473  HIT:     369003  MISS:     439470
LLC PREFETCH  ACCESS:    3500037  HIT:    1368513  MISS:    2131524
LLC WRITEBACK ACCESS:    2098754  HIT:    1356863  MISS:     741891
