
*** ChampSim Multicore Out-of-Order Simulator ***

Warmup Instructions: 50000000
Simulation Instructions: 100000000
Configuration: 2
Number of CPUs: 1
LLC sets: 2048
LLC ways: 16
Off-chip DRAM Channels: 1 Width: 64-bit Data Rate: 1600 MT/s

CPU 0 runs /datasets/cs240c-wi22-a00-public/data/Assignment2-gz/astar_313B.trace.gz
CPU 0 L1D next line prefetcher
CPU 0 L2C IP-based stride prefetcher
Heartbeat CPU 0 instructions: 1000001 cycles: 675752 heartbeat IPC: 1.47983 cumulative IPC: 1.47983 (Simulation time: 0 hr 3 min 0 sec) 
Heartbeat CPU 0 instructions: 2000003 cycles: 1263107 heartbeat IPC: 1.70255 cumulative IPC: 1.5834 (Simulation time: 0 hr 7 min 33 sec) 
Heartbeat CPU 0 instructions: 3000003 cycles: 1937139 heartbeat IPC: 1.48361 cumulative IPC: 1.54868 (Simulation time: 0 hr 10 min 57 sec) 
Heartbeat CPU 0 instructions: 4000000 cycles: 2610568 heartbeat IPC: 1.48493 cumulative IPC: 1.53223 (Simulation time: 0 hr 14 min 21 sec) 
Heartbeat CPU 0 instructions: 5000002 cycles: 3284678 heartbeat IPC: 1.48344 cumulative IPC: 1.52222 (Simulation time: 0 hr 17 min 35 sec) 
Heartbeat CPU 0 instructions: 6000001 cycles: 3871292 heartbeat IPC: 1.7047 cumulative IPC: 1.54987 (Simulation time: 0 hr 22 min 14 sec) 
Heartbeat CPU 0 instructions: 7000001 cycles: 4440296 heartbeat IPC: 1.75746 cumulative IPC: 1.57647 (Simulation time: 0 hr 26 min 55 sec) 
Heartbeat CPU 0 instructions: 8000000 cycles: 4992090 heartbeat IPC: 1.81227 cumulative IPC: 1.60254 (Simulation time: 0 hr 31 min 30 sec) 
Heartbeat CPU 0 instructions: 9000001 cycles: 5553990 heartbeat IPC: 1.77968 cumulative IPC: 1.62046 (Simulation time: 0 hr 36 min 24 sec) 
Heartbeat CPU 0 instructions: 10000002 cycles: 6229067 heartbeat IPC: 1.48131 cumulative IPC: 1.60538 (Simulation time: 0 hr 39 min 41 sec) 
Heartbeat CPU 0 instructions: 11000000 cycles: 6904483 heartbeat IPC: 1.48057 cumulative IPC: 1.59317 (Simulation time: 0 hr 43 min 10 sec) 
Heartbeat CPU 0 instructions: 12000000 cycles: 7573652 heartbeat IPC: 1.49439 cumulative IPC: 1.58444 (Simulation time: 0 hr 46 min 43 sec) 
Heartbeat CPU 0 instructions: 13000003 cycles: 8166102 heartbeat IPC: 1.68791 cumulative IPC: 1.59195 (Simulation time: 0 hr 51 min 3 sec) 
Heartbeat CPU 0 instructions: 14000002 cycles: 8838743 heartbeat IPC: 1.48668 cumulative IPC: 1.58394 (Simulation time: 0 hr 54 min 10 sec) 
Heartbeat CPU 0 instructions: 15000000 cycles: 9512496 heartbeat IPC: 1.48422 cumulative IPC: 1.57687 (Simulation time: 0 hr 57 min 10 sec) 
Heartbeat CPU 0 instructions: 16000000 cycles: 10184066 heartbeat IPC: 1.48905 cumulative IPC: 1.57108 (Simulation time: 1 hr 0 min 39 sec) 
Heartbeat CPU 0 instructions: 17000001 cycles: 10856280 heartbeat IPC: 1.48762 cumulative IPC: 1.56591 (Simulation time: 1 hr 3 min 57 sec) 
Heartbeat CPU 0 instructions: 18000000 cycles: 11441326 heartbeat IPC: 1.70927 cumulative IPC: 1.57324 (Simulation time: 1 hr 8 min 40 sec) 
Heartbeat CPU 0 instructions: 19000000 cycles: 12115206 heartbeat IPC: 1.48394 cumulative IPC: 1.56828 (Simulation time: 1 hr 11 min 49 sec) 
Heartbeat CPU 0 instructions: 20000000 cycles: 12789281 heartbeat IPC: 1.48351 cumulative IPC: 1.56381 (Simulation time: 1 hr 14 min 54 sec) 
Heartbeat CPU 0 instructions: 21000001 cycles: 13416025 heartbeat IPC: 1.59555 cumulative IPC: 1.56529 (Simulation time: 1 hr 18 min 16 sec) 
Heartbeat CPU 0 instructions: 22000001 cycles: 14051468 heartbeat IPC: 1.57371 cumulative IPC: 1.56567 (Simulation time: 1 hr 21 min 44 sec) 
Heartbeat CPU 0 instructions: 23000001 cycles: 14724857 heartbeat IPC: 1.48503 cumulative IPC: 1.56198 (Simulation time: 1 hr 25 min 9 sec) 
Heartbeat CPU 0 instructions: 24000000 cycles: 15381073 heartbeat IPC: 1.52389 cumulative IPC: 1.56036 (Simulation time: 1 hr 28 min 26 sec) 
Heartbeat CPU 0 instructions: 25000001 cycles: 15986159 heartbeat IPC: 1.65266 cumulative IPC: 1.56385 (Simulation time: 1 hr 32 min 5 sec) 
Heartbeat CPU 0 instructions: 26000002 cycles: 16661818 heartbeat IPC: 1.48004 cumulative IPC: 1.56045 (Simulation time: 1 hr 35 min 6 sec) 
Heartbeat CPU 0 instructions: 27000002 cycles: 17252288 heartbeat IPC: 1.69357 cumulative IPC: 1.56501 (Simulation time: 1 hr 38 min 39 sec) 
Heartbeat CPU 0 instructions: 28000000 cycles: 17926054 heartbeat IPC: 1.48419 cumulative IPC: 1.56197 (Simulation time: 1 hr 42 min 14 sec) 
Heartbeat CPU 0 instructions: 29000001 cycles: 18514764 heartbeat IPC: 1.69863 cumulative IPC: 1.56632 (Simulation time: 1 hr 45 min 44 sec) 
Heartbeat CPU 0 instructions: 30000002 cycles: 19189473 heartbeat IPC: 1.48212 cumulative IPC: 1.56336 (Simulation time: 1 hr 48 min 50 sec) 
Heartbeat CPU 0 instructions: 31000002 cycles: 19864994 heartbeat IPC: 1.48034 cumulative IPC: 1.56053 (Simulation time: 1 hr 52 min 1 sec) 
Heartbeat CPU 0 instructions: 32000000 cycles: 20539855 heartbeat IPC: 1.48178 cumulative IPC: 1.55795 (Simulation time: 1 hr 54 min 46 sec) 
Heartbeat CPU 0 instructions: 33000003 cycles: 21214614 heartbeat IPC: 1.48202 cumulative IPC: 1.55553 (Simulation time: 1 hr 57 min 28 sec) 
Heartbeat CPU 0 instructions: 34000000 cycles: 21800569 heartbeat IPC: 1.70661 cumulative IPC: 1.55959 (Simulation time: 2 hr 1 min 34 sec) 
Heartbeat CPU 0 instructions: 35000000 cycles: 22474008 heartbeat IPC: 1.48492 cumulative IPC: 1.55735 (Simulation time: 2 hr 4 min 16 sec) 
Heartbeat CPU 0 instructions: 36000000 cycles: 23148744 heartbeat IPC: 1.48206 cumulative IPC: 1.55516 (Simulation time: 2 hr 7 min 8 sec) 
Heartbeat CPU 0 instructions: 37000002 cycles: 23737519 heartbeat IPC: 1.69845 cumulative IPC: 1.55871 (Simulation time: 2 hr 10 min 37 sec) 
Heartbeat CPU 0 instructions: 38000000 cycles: 24411064 heartbeat IPC: 1.48468 cumulative IPC: 1.55667 (Simulation time: 2 hr 13 min 41 sec) 
Heartbeat CPU 0 instructions: 39000003 cycles: 24999875 heartbeat IPC: 1.69834 cumulative IPC: 1.56001 (Simulation time: 2 hr 17 min 30 sec) 
Heartbeat CPU 0 instructions: 40000000 cycles: 25588255 heartbeat IPC: 1.69958 cumulative IPC: 1.56322 (Simulation time: 2 hr 21 min 16 sec) 
Heartbeat CPU 0 instructions: 41000001 cycles: 26261864 heartbeat IPC: 1.48454 cumulative IPC: 1.5612 (Simulation time: 2 hr 24 min 6 sec) 
Heartbeat CPU 0 instructions: 42000003 cycles: 26938579 heartbeat IPC: 1.47773 cumulative IPC: 1.5591 (Simulation time: 2 hr 26 min 49 sec) 
Heartbeat CPU 0 instructions: 43000003 cycles: 27531622 heartbeat IPC: 1.68622 cumulative IPC: 1.56184 (Simulation time: 2 hr 30 min 19 sec) 
Heartbeat CPU 0 instructions: 44000000 cycles: 28200264 heartbeat IPC: 1.49556 cumulative IPC: 1.56027 (Simulation time: 2 hr 33 min 32 sec) 
Heartbeat CPU 0 instructions: 45000002 cycles: 28874426 heartbeat IPC: 1.48333 cumulative IPC: 1.55847 (Simulation time: 2 hr 36 min 48 sec) 
Heartbeat CPU 0 instructions: 46000002 cycles: 29549333 heartbeat IPC: 1.48169 cumulative IPC: 1.55672 (Simulation time: 2 hr 39 min 59 sec) 
Heartbeat CPU 0 instructions: 47000002 cycles: 30221645 heartbeat IPC: 1.4874 cumulative IPC: 1.55518 (Simulation time: 2 hr 42 min 38 sec) 
Heartbeat CPU 0 instructions: 48000000 cycles: 30810457 heartbeat IPC: 1.69833 cumulative IPC: 1.55791 (Simulation time: 2 hr 46 min 14 sec) 
Heartbeat CPU 0 instructions: 49000000 cycles: 31483576 heartbeat IPC: 1.48562 cumulative IPC: 1.55637 (Simulation time: 2 hr 50 min 12 sec) 
Heartbeat CPU 0 instructions: 50000000 cycles: 32158025 heartbeat IPC: 1.48269 cumulative IPC: 1.55482 (Simulation time: 2 hr 54 min 8 sec) 

Warmup complete CPU 0 instructions: 50000001 cycles: 32158026 (Simulation time: 2 hr 54 min 8 sec) 

Heartbeat CPU 0 instructions: 51000002 cycles: 38926712 heartbeat IPC: 0.147739 cumulative IPC: 0.147739 (Simulation time: 2 hr 57 min 29 sec) 
Heartbeat CPU 0 instructions: 52000000 cycles: 46715323 heartbeat IPC: 0.128392 cumulative IPC: 0.137388 (Simulation time: 3 hr 2 min 20 sec) 
Heartbeat CPU 0 instructions: 53000000 cycles: 53109970 heartbeat IPC: 0.156381 cumulative IPC: 0.143185 (Simulation time: 3 hr 5 min 20 sec) 
Heartbeat CPU 0 instructions: 54000000 cycles: 60635022 heartbeat IPC: 0.132889 cumulative IPC: 0.140464 (Simulation time: 3 hr 9 min 28 sec) 
Heartbeat CPU 0 instructions: 55000001 cycles: 68673615 heartbeat IPC: 0.1244 cumulative IPC: 0.136928 (Simulation time: 3 hr 13 min 18 sec) 
Heartbeat CPU 0 instructions: 56000000 cycles: 78254876 heartbeat IPC: 0.10437 cumulative IPC: 0.130161 (Simulation time: 3 hr 18 min 6 sec) 
Heartbeat CPU 0 instructions: 57000000 cycles: 83945721 heartbeat IPC: 0.175721 cumulative IPC: 0.135167 (Simulation time: 3 hr 21 min 6 sec) 
Heartbeat CPU 0 instructions: 58000001 cycles: 90035519 heartbeat IPC: 0.164209 cumulative IPC: 0.138223 (Simulation time: 3 hr 24 min 24 sec) 
Heartbeat CPU 0 instructions: 59000002 cycles: 98166829 heartbeat IPC: 0.122982 cumulative IPC: 0.136345 (Simulation time: 3 hr 27 min 30 sec) 
Heartbeat CPU 0 instructions: 60000000 cycles: 105405039 heartbeat IPC: 0.138155 cumulative IPC: 0.136524 (Simulation time: 3 hr 31 min 25 sec) 
Heartbeat CPU 0 instructions: 61000000 cycles: 111495881 heartbeat IPC: 0.164181 cumulative IPC: 0.138648 (Simulation time: 3 hr 36 min 14 sec) 
Heartbeat CPU 0 instructions: 62000001 cycles: 117678802 heartbeat IPC: 0.161736 cumulative IPC: 0.140317 (Simulation time: 3 hr 40 min 0 sec) 
Heartbeat CPU 0 instructions: 63000000 cycles: 124023407 heartbeat IPC: 0.157614 cumulative IPC: 0.141511 (Simulation time: 3 hr 43 min 54 sec) 
Heartbeat CPU 0 instructions: 64000000 cycles: 132637669 heartbeat IPC: 0.116087 cumulative IPC: 0.139332 (Simulation time: 3 hr 47 min 37 sec) 
Heartbeat CPU 0 instructions: 65000000 cycles: 139105011 heartbeat IPC: 0.154623 cumulative IPC: 0.140256 (Simulation time: 3 hr 52 min 12 sec) 
Heartbeat CPU 0 instructions: 66000001 cycles: 145442114 heartbeat IPC: 0.157801 cumulative IPC: 0.141238 (Simulation time: 3 hr 55 min 40 sec) 
Heartbeat CPU 0 instructions: 67000000 cycles: 152065818 heartbeat IPC: 0.150973 cumulative IPC: 0.141776 (Simulation time: 3 hr 58 min 55 sec) 
Heartbeat CPU 0 instructions: 68000000 cycles: 158850056 heartbeat IPC: 0.1474 cumulative IPC: 0.142077 (Simulation time: 4 hr 2 min 22 sec) 
Heartbeat CPU 0 instructions: 69000000 cycles: 170072715 heartbeat IPC: 0.0891054 cumulative IPC: 0.137766 (Simulation time: 4 hr 9 min 4 sec) 
Heartbeat CPU 0 instructions: 70000000 cycles: 176540859 heartbeat IPC: 0.154604 cumulative IPC: 0.138521 (Simulation time: 4 hr 13 min 19 sec) 
Heartbeat CPU 0 instructions: 71000002 cycles: 183046001 heartbeat IPC: 0.153725 cumulative IPC: 0.139176 (Simulation time: 4 hr 16 min 31 sec) 
Heartbeat CPU 0 instructions: 72000000 cycles: 189727510 heartbeat IPC: 0.149666 cumulative IPC: 0.139621 (Simulation time: 4 hr 19 min 31 sec) 
Heartbeat CPU 0 instructions: 73000003 cycles: 196497679 heartbeat IPC: 0.147707 cumulative IPC: 0.139954 (Simulation time: 4 hr 23 min 8 sec) 
Heartbeat CPU 0 instructions: 74000001 cycles: 205182208 heartbeat IPC: 0.115147 cumulative IPC: 0.138709 (Simulation time: 4 hr 26 min 33 sec) 
Heartbeat CPU 0 instructions: 75000000 cycles: 211969602 heartbeat IPC: 0.147332 cumulative IPC: 0.139034 (Simulation time: 4 hr 30 min 8 sec) 
Heartbeat CPU 0 instructions: 76000000 cycles: 217837401 heartbeat IPC: 0.170422 cumulative IPC: 0.140026 (Simulation time: 4 hr 33 min 31 sec) 
Heartbeat CPU 0 instructions: 77000000 cycles: 223730297 heartbeat IPC: 0.169696 cumulative IPC: 0.140939 (Simulation time: 4 hr 36 min 47 sec) 
Heartbeat CPU 0 instructions: 78000001 cycles: 229539235 heartbeat IPC: 0.172149 cumulative IPC: 0.141857 (Simulation time: 4 hr 40 min 5 sec) 
Heartbeat CPU 0 instructions: 79000000 cycles: 237964418 heartbeat IPC: 0.118692 cumulative IPC: 0.140909 (Simulation time: 4 hr 44 min 10 sec) 
Heartbeat CPU 0 instructions: 80000000 cycles: 243696754 heartbeat IPC: 0.174449 cumulative IPC: 0.141818 (Simulation time: 4 hr 47 min 14 sec) 
Heartbeat CPU 0 instructions: 81000003 cycles: 250922023 heartbeat IPC: 0.138404 cumulative IPC: 0.141705 (Simulation time: 4 hr 50 min 55 sec) 
Heartbeat CPU 0 instructions: 82000001 cycles: 258176691 heartbeat IPC: 0.137842 cumulative IPC: 0.141581 (Simulation time: 4 hr 55 min 6 sec) 
Heartbeat CPU 0 instructions: 83000002 cycles: 263850433 heartbeat IPC: 0.176251 cumulative IPC: 0.14243 (Simulation time: 4 hr 58 min 52 sec) 
Heartbeat CPU 0 instructions: 84000000 cycles: 269839938 heartbeat IPC: 0.166958 cumulative IPC: 0.143048 (Simulation time: 5 hr 2 min 50 sec) 
Heartbeat CPU 0 instructions: 85000000 cycles: 276661045 heartbeat IPC: 0.146604 cumulative IPC: 0.143148 (Simulation time: 5 hr 6 min 6 sec) 
Heartbeat CPU 0 instructions: 86000001 cycles: 284887469 heartbeat IPC: 0.12156 cumulative IPC: 0.142445 (Simulation time: 5 hr 10 min 6 sec) 
Heartbeat CPU 0 instructions: 87000000 cycles: 290421802 heartbeat IPC: 0.18069 cumulative IPC: 0.143264 (Simulation time: 5 hr 13 min 5 sec) 
Heartbeat CPU 0 instructions: 88000000 cycles: 296148417 heartbeat IPC: 0.174623 cumulative IPC: 0.143945 (Simulation time: 5 hr 16 min 36 sec) 
Heartbeat CPU 0 instructions: 89000002 cycles: 302207749 heartbeat IPC: 0.165035 cumulative IPC: 0.144418 (Simulation time: 5 hr 19 min 49 sec) 
Heartbeat CPU 0 instructions: 90000002 cycles: 308375616 heartbeat IPC: 0.162131 cumulative IPC: 0.144813 (Simulation time: 5 hr 23 min 27 sec) 
Heartbeat CPU 0 instructions: 91000001 cycles: 316821495 heartbeat IPC: 0.118401 cumulative IPC: 0.14403 (Simulation time: 5 hr 29 min 35 sec) 
Heartbeat CPU 0 instructions: 92000000 cycles: 323218867 heartbeat IPC: 0.156314 cumulative IPC: 0.1443 (Simulation time: 5 hr 33 min 29 sec) 
Heartbeat CPU 0 instructions: 93000003 cycles: 330225351 heartbeat IPC: 0.142725 cumulative IPC: 0.144263 (Simulation time: 5 hr 37 min 39 sec) 
Heartbeat CPU 0 instructions: 94000000 cycles: 337707334 heartbeat IPC: 0.133654 cumulative IPC: 0.144003 (Simulation time: 5 hr 41 min 14 sec) 
Heartbeat CPU 0 instructions: 95000000 cycles: 344096376 heartbeat IPC: 0.156518 cumulative IPC: 0.144259 (Simulation time: 5 hr 44 min 10 sec) 
Heartbeat CPU 0 instructions: 96000000 cycles: 352498469 heartbeat IPC: 0.119018 cumulative IPC: 0.143597 (Simulation time: 5 hr 48 min 32 sec) 
Heartbeat CPU 0 instructions: 97000000 cycles: 358644734 heartbeat IPC: 0.1627 cumulative IPC: 0.143957 (Simulation time: 5 hr 52 min 13 sec) 
Heartbeat CPU 0 instructions: 98000003 cycles: 366015924 heartbeat IPC: 0.135664 cumulative IPC: 0.143774 (Simulation time: 5 hr 55 min 28 sec) 
Heartbeat CPU 0 instructions: 99000001 cycles: 373857042 heartbeat IPC: 0.127533 cumulative IPC: 0.143401 (Simulation time: 5 hr 59 min 5 sec) 
Heartbeat CPU 0 instructions: 100000000 cycles: 381454614 heartbeat IPC: 0.131621 cumulative IPC: 0.143145 (Simulation time: 6 hr 2 min 48 sec) 
Heartbeat CPU 0 instructions: 101000000 cycles: 390420429 heartbeat IPC: 0.111535 cumulative IPC: 0.142354 (Simulation time: 6 hr 7 min 16 sec) 
Heartbeat CPU 0 instructions: 102000001 cycles: 396312960 heartbeat IPC: 0.169707 cumulative IPC: 0.142796 (Simulation time: 6 hr 10 min 20 sec) 
Heartbeat CPU 0 instructions: 103000000 cycles: 402341882 heartbeat IPC: 0.165867 cumulative IPC: 0.143172 (Simulation time: 6 hr 13 min 21 sec) 
Heartbeat CPU 0 instructions: 104000000 cycles: 408180824 heartbeat IPC: 0.171264 cumulative IPC: 0.143608 (Simulation time: 6 hr 16 min 39 sec) 
Heartbeat CPU 0 instructions: 105000000 cycles: 413803094 heartbeat IPC: 0.177864 cumulative IPC: 0.144113 (Simulation time: 6 hr 19 min 36 sec) 
Heartbeat CPU 0 instructions: 106000000 cycles: 422526946 heartbeat IPC: 0.114628 cumulative IPC: 0.143454 (Simulation time: 6 hr 23 min 35 sec) 
Heartbeat CPU 0 instructions: 107000002 cycles: 429061273 heartbeat IPC: 0.153038 cumulative IPC: 0.143612 (Simulation time: 6 hr 26 min 20 sec) 
Heartbeat CPU 0 instructions: 108000000 cycles: 437854620 heartbeat IPC: 0.113722 cumulative IPC: 0.142964 (Simulation time: 6 hr 29 min 42 sec) 
Heartbeat CPU 0 instructions: 109000003 cycles: 443849271 heartbeat IPC: 0.166816 cumulative IPC: 0.143311 (Simulation time: 6 hr 32 min 28 sec) 
Heartbeat CPU 0 instructions: 110000003 cycles: 449616548 heartbeat IPC: 0.173392 cumulative IPC: 0.143727 (Simulation time: 6 hr 35 min 2 sec) 
Heartbeat CPU 0 instructions: 111000001 cycles: 455557210 heartbeat IPC: 0.168331 cumulative IPC: 0.144072 (Simulation time: 6 hr 37 min 29 sec) 
Heartbeat CPU 0 instructions: 112000000 cycles: 463711061 heartbeat IPC: 0.122641 cumulative IPC: 0.143667 (Simulation time: 6 hr 40 min 4 sec) 
Heartbeat CPU 0 instructions: 113000000 cycles: 470616106 heartbeat IPC: 0.144822 cumulative IPC: 0.143685 (Simulation time: 6 hr 42 min 32 sec) 
Heartbeat CPU 0 instructions: 114000003 cycles: 477788273 heartbeat IPC: 0.139428 cumulative IPC: 0.143617 (Simulation time: 6 hr 44 min 26 sec) 
Heartbeat CPU 0 instructions: 115000001 cycles: 485269236 heartbeat IPC: 0.133672 cumulative IPC: 0.143453 (Simulation time: 6 hr 46 min 38 sec) 
Heartbeat CPU 0 instructions: 116000000 cycles: 491245344 heartbeat IPC: 0.167333 cumulative IPC: 0.143763 (Simulation time: 6 hr 48 min 17 sec) 
Heartbeat CPU 0 instructions: 117000001 cycles: 497640903 heartbeat IPC: 0.156359 cumulative IPC: 0.143937 (Simulation time: 6 hr 49 min 57 sec) 
Heartbeat CPU 0 instructions: 118000003 cycles: 506364758 heartbeat IPC: 0.114628 cumulative IPC: 0.143397 (Simulation time: 6 hr 52 min 9 sec) 
Heartbeat CPU 0 instructions: 119000000 cycles: 512495815 heartbeat IPC: 0.163104 cumulative IPC: 0.143649 (Simulation time: 6 hr 53 min 46 sec) 
Heartbeat CPU 0 instructions: 120000000 cycles: 518577486 heartbeat IPC: 0.164428 cumulative IPC: 0.143909 (Simulation time: 6 hr 54 min 57 sec) 
Heartbeat CPU 0 instructions: 121000001 cycles: 524652519 heartbeat IPC: 0.164608 cumulative IPC: 0.144164 (Simulation time: 6 hr 55 min 58 sec) 
Heartbeat CPU 0 instructions: 122000001 cycles: 531230856 heartbeat IPC: 0.152014 cumulative IPC: 0.144268 (Simulation time: 6 hr 56 min 57 sec) 
Heartbeat CPU 0 instructions: 123000001 cycles: 540345388 heartbeat IPC: 0.109715 cumulative IPC: 0.143648 (Simulation time: 6 hr 58 min 12 sec) 
Heartbeat CPU 0 instructions: 124000000 cycles: 546702120 heartbeat IPC: 0.157313 cumulative IPC: 0.143817 (Simulation time: 6 hr 59 min 2 sec) 
Heartbeat CPU 0 instructions: 125000000 cycles: 553093944 heartbeat IPC: 0.15645 cumulative IPC: 0.143972 (Simulation time: 6 hr 59 min 48 sec) 
Heartbeat CPU 0 instructions: 126000003 cycles: 559823791 heartbeat IPC: 0.148592 cumulative IPC: 0.144031 (Simulation time: 7 hr 0 min 32 sec) 
Heartbeat CPU 0 instructions: 127000003 cycles: 568799389 heartbeat IPC: 0.111413 cumulative IPC: 0.143485 (Simulation time: 7 hr 1 min 25 sec) 
Heartbeat CPU 0 instructions: 128000000 cycles: 574903084 heartbeat IPC: 0.163835 cumulative IPC: 0.143714 (Simulation time: 7 hr 2 min 4 sec) 
Heartbeat CPU 0 instructions: 129000001 cycles: 583556177 heartbeat IPC: 0.115566 cumulative IPC: 0.143272 (Simulation time: 7 hr 2 min 53 sec) 
Heartbeat CPU 0 instructions: 130000002 cycles: 589357559 heartbeat IPC: 0.172373 cumulative IPC: 0.143575 (Simulation time: 7 hr 3 min 23 sec) 
Heartbeat CPU 0 instructions: 131000003 cycles: 595231230 heartbeat IPC: 0.170251 cumulative IPC: 0.143853 (Simulation time: 7 hr 3 min 52 sec) 
Heartbeat CPU 0 instructions: 132000000 cycles: 606049730 heartbeat IPC: 0.092434 cumulative IPC: 0.142884 (Simulation time: 7 hr 4 min 33 sec) 
Heartbeat CPU 0 instructions: 133000002 cycles: 614746810 heartbeat IPC: 0.114981 cumulative IPC: 0.142468 (Simulation time: 7 hr 5 min 9 sec) 
Heartbeat CPU 0 instructions: 134000000 cycles: 620822895 heartbeat IPC: 0.164579 cumulative IPC: 0.142696 (Simulation time: 7 hr 5 min 33 sec) 
Heartbeat CPU 0 instructions: 135000002 cycles: 627984733 heartbeat IPC: 0.139629 cumulative IPC: 0.142659 (Simulation time: 7 hr 5 min 59 sec) 
Heartbeat CPU 0 instructions: 136000000 cycles: 636900610 heartbeat IPC: 0.112159 cumulative IPC: 0.142209 (Simulation time: 7 hr 6 min 28 sec) 
Heartbeat CPU 0 instructions: 137000001 cycles: 644262493 heartbeat IPC: 0.135835 cumulative IPC: 0.142133 (Simulation time: 7 hr 6 min 56 sec) 
Heartbeat CPU 0 instructions: 138000002 cycles: 650193608 heartbeat IPC: 0.168603 cumulative IPC: 0.142387 (Simulation time: 7 hr 7 min 16 sec) 
Heartbeat CPU 0 instructions: 139000001 cycles: 656171783 heartbeat IPC: 0.167275 cumulative IPC: 0.142625 (Simulation time: 7 hr 7 min 35 sec) 
Heartbeat CPU 0 instructions: 140000000 cycles: 664901452 heartbeat IPC: 0.114552 cumulative IPC: 0.142238 (Simulation time: 7 hr 8 min 0 sec) 
Heartbeat CPU 0 instructions: 141000001 cycles: 670712958 heartbeat IPC: 0.172073 cumulative IPC: 0.142509 (Simulation time: 7 hr 8 min 19 sec) 
Heartbeat CPU 0 instructions: 142000000 cycles: 676529505 heartbeat IPC: 0.171923 cumulative IPC: 0.142775 (Simulation time: 7 hr 8 min 37 sec) 
Heartbeat CPU 0 instructions: 143000001 cycles: 682693359 heartbeat IPC: 0.162236 cumulative IPC: 0.142959 (Simulation time: 7 hr 8 min 54 sec) 
Heartbeat CPU 0 instructions: 144000000 cycles: 691670621 heartbeat IPC: 0.111392 cumulative IPC: 0.14253 (Simulation time: 7 hr 9 min 16 sec) 
Heartbeat CPU 0 instructions: 145000000 cycles: 698180530 heartbeat IPC: 0.153612 cumulative IPC: 0.142638 (Simulation time: 7 hr 9 min 32 sec) 
Heartbeat CPU 0 instructions: 146000000 cycles: 704486702 heartbeat IPC: 0.158575 cumulative IPC: 0.142787 (Simulation time: 7 hr 9 min 44 sec) 
Heartbeat CPU 0 instructions: 147000000 cycles: 713289790 heartbeat IPC: 0.113596 cumulative IPC: 0.14241 (Simulation time: 7 hr 10 min 1 sec) 
Heartbeat CPU 0 instructions: 148000000 cycles: 719301723 heartbeat IPC: 0.166336 cumulative IPC: 0.142619 (Simulation time: 7 hr 10 min 13 sec) 
Heartbeat CPU 0 instructions: 149000000 cycles: 727782280 heartbeat IPC: 0.117917 cumulative IPC: 0.142318 (Simulation time: 7 hr 10 min 29 sec) 
Heartbeat CPU 0 instructions: 150000001 cycles: 734164273 heartbeat IPC: 0.156691 cumulative IPC: 0.142449 (Simulation time: 7 hr 10 min 38 sec) 
Finished CPU 0 instructions: 100000000 cycles: 702006247 cummulative IPC: 0.142449 (Simulation time: 7 hr 10 min 38 sec) 

ChampSim completed all CPUs

Region of Interest Statistics

CPU 0 cummulative IPC: 0.142449 instructions: 100000000 cycles: 702006247
LLC TOTAL     ACCESS:    9033053  HIT:    2993851  MISS:    6039202
LLC LOAD      ACCESS:    1894931  HIT:     632961  MISS:    1261970
LLC RFO       ACCESS:    1963568  HIT:     832205  MISS:    1131363
LLC PREFETCH  ACCESS:    2283425  HIT:     138430  MISS:    2144995
LLC WRITEBACK ACCESS:    2891129  HIT:    1390255  MISS:    1500874
