
*** ChampSim Multicore Out-of-Order Simulator ***

Warmup Instructions: 50000000
Simulation Instructions: 100000000
Configuration: 2
Number of CPUs: 1
LLC sets: 2048
LLC ways: 16
Off-chip DRAM Channels: 1 Width: 64-bit Data Rate: 1600 MT/s

CPU 0 runs /datasets/cs240c-wi22-a00-public/data/Assignment2-gz/wrf_1212B.trace.gz
CPU 0 L1D next line prefetcher
CPU 0 L2C IP-based stride prefetcher
Heartbeat CPU 0 instructions: 1000001 cycles: 598660 heartbeat IPC: 1.6704 cumulative IPC: 1.6704 (Simulation time: 0 hr 2 min 40 sec) 
Heartbeat CPU 0 instructions: 2000000 cycles: 1197118 heartbeat IPC: 1.67096 cumulative IPC: 1.67068 (Simulation time: 0 hr 5 min 32 sec) 
Heartbeat CPU 0 instructions: 3000001 cycles: 1795976 heartbeat IPC: 1.66985 cumulative IPC: 1.6704 (Simulation time: 0 hr 7 min 55 sec) 
Heartbeat CPU 0 instructions: 4000000 cycles: 2394087 heartbeat IPC: 1.67193 cumulative IPC: 1.67078 (Simulation time: 0 hr 10 min 59 sec) 
Heartbeat CPU 0 instructions: 5000000 cycles: 2993053 heartbeat IPC: 1.66954 cumulative IPC: 1.67054 (Simulation time: 0 hr 13 min 29 sec) 
Heartbeat CPU 0 instructions: 6000001 cycles: 3592667 heartbeat IPC: 1.66774 cumulative IPC: 1.67007 (Simulation time: 0 hr 16 min 15 sec) 
Heartbeat CPU 0 instructions: 7000001 cycles: 4190665 heartbeat IPC: 1.67225 cumulative IPC: 1.67038 (Simulation time: 0 hr 18 min 38 sec) 
Heartbeat CPU 0 instructions: 8000000 cycles: 4788873 heartbeat IPC: 1.67166 cumulative IPC: 1.67054 (Simulation time: 0 hr 21 min 20 sec) 
Heartbeat CPU 0 instructions: 9000002 cycles: 5387792 heartbeat IPC: 1.66968 cumulative IPC: 1.67044 (Simulation time: 0 hr 23 min 46 sec) 
Heartbeat CPU 0 instructions: 10000001 cycles: 5987357 heartbeat IPC: 1.66787 cumulative IPC: 1.67019 (Simulation time: 0 hr 26 min 17 sec) 
Heartbeat CPU 0 instructions: 11000003 cycles: 6585304 heartbeat IPC: 1.67239 cumulative IPC: 1.67039 (Simulation time: 0 hr 28 min 58 sec) 
Heartbeat CPU 0 instructions: 12000000 cycles: 7184891 heartbeat IPC: 1.66781 cumulative IPC: 1.67017 (Simulation time: 0 hr 31 min 59 sec) 
Heartbeat CPU 0 instructions: 13000000 cycles: 7782944 heartbeat IPC: 1.67209 cumulative IPC: 1.67032 (Simulation time: 0 hr 34 min 22 sec) 
Heartbeat CPU 0 instructions: 14000002 cycles: 8381675 heartbeat IPC: 1.6702 cumulative IPC: 1.67031 (Simulation time: 0 hr 37 min 46 sec) 
Heartbeat CPU 0 instructions: 15000003 cycles: 8981003 heartbeat IPC: 1.66854 cumulative IPC: 1.67019 (Simulation time: 0 hr 40 min 13 sec) 
Heartbeat CPU 0 instructions: 16000000 cycles: 9579443 heartbeat IPC: 1.67101 cumulative IPC: 1.67024 (Simulation time: 0 hr 42 min 39 sec) 
Heartbeat CPU 0 instructions: 17000000 cycles: 10177930 heartbeat IPC: 1.67088 cumulative IPC: 1.67028 (Simulation time: 0 hr 45 min 35 sec) 
Heartbeat CPU 0 instructions: 18000000 cycles: 10777771 heartbeat IPC: 1.66711 cumulative IPC: 1.6701 (Simulation time: 0 hr 48 min 37 sec) 
Heartbeat CPU 0 instructions: 19000003 cycles: 11376778 heartbeat IPC: 1.66943 cumulative IPC: 1.67007 (Simulation time: 0 hr 51 min 14 sec) 
Heartbeat CPU 0 instructions: 20000000 cycles: 11974273 heartbeat IPC: 1.67365 cumulative IPC: 1.67025 (Simulation time: 0 hr 53 min 39 sec) 
Heartbeat CPU 0 instructions: 21000001 cycles: 12573595 heartbeat IPC: 1.66855 cumulative IPC: 1.67017 (Simulation time: 0 hr 56 min 13 sec) 
Heartbeat CPU 0 instructions: 22000001 cycles: 13172415 heartbeat IPC: 1.66995 cumulative IPC: 1.67016 (Simulation time: 0 hr 59 min 8 sec) 
Heartbeat CPU 0 instructions: 23000000 cycles: 13770962 heartbeat IPC: 1.67071 cumulative IPC: 1.67018 (Simulation time: 1 hr 1 min 37 sec) 
Heartbeat CPU 0 instructions: 24000000 cycles: 14370492 heartbeat IPC: 1.66797 cumulative IPC: 1.67009 (Simulation time: 1 hr 4 min 38 sec) 
Heartbeat CPU 0 instructions: 25000002 cycles: 14968213 heartbeat IPC: 1.67302 cumulative IPC: 1.67021 (Simulation time: 1 hr 7 min 29 sec) 
Heartbeat CPU 0 instructions: 26000000 cycles: 15566342 heartbeat IPC: 1.67188 cumulative IPC: 1.67027 (Simulation time: 1 hr 10 min 27 sec) 
Heartbeat CPU 0 instructions: 27000000 cycles: 16165870 heartbeat IPC: 1.66798 cumulative IPC: 1.67019 (Simulation time: 1 hr 13 min 10 sec) 
Heartbeat CPU 0 instructions: 28000000 cycles: 16764723 heartbeat IPC: 1.66986 cumulative IPC: 1.67017 (Simulation time: 1 hr 15 min 31 sec) 
Heartbeat CPU 0 instructions: 29000000 cycles: 17361466 heartbeat IPC: 1.67576 cumulative IPC: 1.67037 (Simulation time: 1 hr 18 min 17 sec) 
Heartbeat CPU 0 instructions: 30000003 cycles: 17961447 heartbeat IPC: 1.66672 cumulative IPC: 1.67024 (Simulation time: 1 hr 20 min 51 sec) 
Heartbeat CPU 0 instructions: 31000000 cycles: 18559298 heartbeat IPC: 1.67265 cumulative IPC: 1.67032 (Simulation time: 1 hr 23 min 31 sec) 
Heartbeat CPU 0 instructions: 32000000 cycles: 19157621 heartbeat IPC: 1.67134 cumulative IPC: 1.67035 (Simulation time: 1 hr 26 min 10 sec) 
Heartbeat CPU 0 instructions: 33000003 cycles: 19755969 heartbeat IPC: 1.67127 cumulative IPC: 1.67038 (Simulation time: 1 hr 28 min 58 sec) 
Heartbeat CPU 0 instructions: 34000000 cycles: 20353992 heartbeat IPC: 1.67217 cumulative IPC: 1.67043 (Simulation time: 1 hr 31 min 22 sec) 
Heartbeat CPU 0 instructions: 35000002 cycles: 20953787 heartbeat IPC: 1.66724 cumulative IPC: 1.67034 (Simulation time: 1 hr 33 min 56 sec) 
Heartbeat CPU 0 instructions: 36000000 cycles: 21552566 heartbeat IPC: 1.67006 cumulative IPC: 1.67033 (Simulation time: 1 hr 36 min 47 sec) 
Heartbeat CPU 0 instructions: 37000003 cycles: 22150484 heartbeat IPC: 1.67248 cumulative IPC: 1.67039 (Simulation time: 1 hr 39 min 9 sec) 
Heartbeat CPU 0 instructions: 38000003 cycles: 22749142 heartbeat IPC: 1.6704 cumulative IPC: 1.67039 (Simulation time: 1 hr 41 min 47 sec) 
Heartbeat CPU 0 instructions: 39000001 cycles: 23347357 heartbeat IPC: 1.67164 cumulative IPC: 1.67042 (Simulation time: 1 hr 44 min 11 sec) 
Heartbeat CPU 0 instructions: 40000000 cycles: 23945337 heartbeat IPC: 1.6723 cumulative IPC: 1.67047 (Simulation time: 1 hr 46 min 29 sec) 
Heartbeat CPU 0 instructions: 41000001 cycles: 24544128 heartbeat IPC: 1.67003 cumulative IPC: 1.67046 (Simulation time: 1 hr 49 min 3 sec) 
Heartbeat CPU 0 instructions: 42000002 cycles: 25143022 heartbeat IPC: 1.66975 cumulative IPC: 1.67044 (Simulation time: 1 hr 51 min 35 sec) 
Heartbeat CPU 0 instructions: 43000001 cycles: 25739490 heartbeat IPC: 1.67653 cumulative IPC: 1.67058 (Simulation time: 1 hr 53 min 49 sec) 
Heartbeat CPU 0 instructions: 44000000 cycles: 26338474 heartbeat IPC: 1.66949 cumulative IPC: 1.67056 (Simulation time: 1 hr 56 min 30 sec) 
Heartbeat CPU 0 instructions: 45000000 cycles: 26936938 heartbeat IPC: 1.67094 cumulative IPC: 1.67057 (Simulation time: 1 hr 58 min 46 sec) 
Heartbeat CPU 0 instructions: 46000000 cycles: 27536421 heartbeat IPC: 1.6681 cumulative IPC: 1.67051 (Simulation time: 2 hr 1 min 9 sec) 
Heartbeat CPU 0 instructions: 47000000 cycles: 28133485 heartbeat IPC: 1.67486 cumulative IPC: 1.67061 (Simulation time: 2 hr 3 min 48 sec) 
Heartbeat CPU 0 instructions: 48000000 cycles: 28732161 heartbeat IPC: 1.67035 cumulative IPC: 1.6706 (Simulation time: 2 hr 5 min 57 sec) 
Heartbeat CPU 0 instructions: 49000002 cycles: 29331654 heartbeat IPC: 1.66808 cumulative IPC: 1.67055 (Simulation time: 2 hr 8 min 30 sec) 
Heartbeat CPU 0 instructions: 50000002 cycles: 29930516 heartbeat IPC: 1.66983 cumulative IPC: 1.67054 (Simulation time: 2 hr 10 min 45 sec) 

Warmup complete CPU 0 instructions: 50000002 cycles: 29930516 (Simulation time: 2 hr 10 min 45 sec) 

Heartbeat CPU 0 instructions: 51000002 cycles: 31728954 heartbeat IPC: 0.556038 cumulative IPC: 0.556038 (Simulation time: 2 hr 13 min 55 sec) 
Heartbeat CPU 0 instructions: 52000000 cycles: 33451355 heartbeat IPC: 0.580584 cumulative IPC: 0.568046 (Simulation time: 2 hr 16 min 29 sec) 
Heartbeat CPU 0 instructions: 53000002 cycles: 35218484 heartbeat IPC: 0.565891 cumulative IPC: 0.567326 (Simulation time: 2 hr 19 min 20 sec) 
Heartbeat CPU 0 instructions: 54000001 cycles: 36999604 heartbeat IPC: 0.561444 cumulative IPC: 0.565844 (Simulation time: 2 hr 21 min 52 sec) 
Heartbeat CPU 0 instructions: 55000000 cycles: 38781287 heartbeat IPC: 0.561266 cumulative IPC: 0.564922 (Simulation time: 2 hr 24 min 30 sec) 
Heartbeat CPU 0 instructions: 56000000 cycles: 40552819 heartbeat IPC: 0.564483 cumulative IPC: 0.564849 (Simulation time: 2 hr 27 min 6 sec) 
Heartbeat CPU 0 instructions: 57000001 cycles: 42279454 heartbeat IPC: 0.579162 cumulative IPC: 0.56685 (Simulation time: 2 hr 29 min 54 sec) 
Heartbeat CPU 0 instructions: 58000001 cycles: 44060121 heartbeat IPC: 0.561587 cumulative IPC: 0.566187 (Simulation time: 2 hr 32 min 45 sec) 
Heartbeat CPU 0 instructions: 59000000 cycles: 45842623 heartbeat IPC: 0.561009 cumulative IPC: 0.565607 (Simulation time: 2 hr 35 min 41 sec) 
Heartbeat CPU 0 instructions: 60000000 cycles: 47626433 heartbeat IPC: 0.560598 cumulative IPC: 0.565102 (Simulation time: 2 hr 38 min 20 sec) 
Heartbeat CPU 0 instructions: 61000001 cycles: 49363548 heartbeat IPC: 0.575668 cumulative IPC: 0.566046 (Simulation time: 2 hr 41 min 10 sec) 
Heartbeat CPU 0 instructions: 62000001 cycles: 51106098 heartbeat IPC: 0.573872 cumulative IPC: 0.56669 (Simulation time: 2 hr 43 min 41 sec) 
Heartbeat CPU 0 instructions: 63000002 cycles: 52891150 heartbeat IPC: 0.560208 cumulative IPC: 0.566186 (Simulation time: 2 hr 46 min 29 sec) 
Heartbeat CPU 0 instructions: 64000000 cycles: 54672974 heartbeat IPC: 0.561222 cumulative IPC: 0.565829 (Simulation time: 2 hr 49 min 50 sec) 
Heartbeat CPU 0 instructions: 65000000 cycles: 56458138 heartbeat IPC: 0.560173 cumulative IPC: 0.565448 (Simulation time: 2 hr 53 min 3 sec) 
Heartbeat CPU 0 instructions: 66000001 cycles: 58172058 heartbeat IPC: 0.583458 cumulative IPC: 0.566541 (Simulation time: 2 hr 55 min 45 sec) 
Heartbeat CPU 0 instructions: 67000002 cycles: 59928262 heartbeat IPC: 0.569411 cumulative IPC: 0.566709 (Simulation time: 2 hr 58 min 24 sec) 
Heartbeat CPU 0 instructions: 68000000 cycles: 61713133 heartbeat IPC: 0.560263 cumulative IPC: 0.566347 (Simulation time: 3 hr 1 min 19 sec) 
Heartbeat CPU 0 instructions: 69000001 cycles: 63495998 heartbeat IPC: 0.560896 cumulative IPC: 0.566058 (Simulation time: 3 hr 4 min 18 sec) 
Heartbeat CPU 0 instructions: 70000000 cycles: 65263827 heartbeat IPC: 0.565665 cumulative IPC: 0.566038 (Simulation time: 3 hr 7 min 32 sec) 
Heartbeat CPU 0 instructions: 71000001 cycles: 66978835 heartbeat IPC: 0.583088 cumulative IPC: 0.566827 (Simulation time: 3 hr 10 min 13 sec) 
Heartbeat CPU 0 instructions: 72000000 cycles: 68755064 heartbeat IPC: 0.56299 cumulative IPC: 0.566652 (Simulation time: 3 hr 13 min 22 sec) 
Heartbeat CPU 0 instructions: 73000001 cycles: 70542243 heartbeat IPC: 0.559542 cumulative IPC: 0.566339 (Simulation time: 3 hr 16 min 52 sec) 
Heartbeat CPU 0 instructions: 74000000 cycles: 72321840 heartbeat IPC: 0.561924 cumulative IPC: 0.566154 (Simulation time: 3 hr 20 min 6 sec) 
Heartbeat CPU 0 instructions: 75000002 cycles: 74075481 heartbeat IPC: 0.570243 cumulative IPC: 0.566316 (Simulation time: 3 hr 22 min 47 sec) 
Heartbeat CPU 0 instructions: 76000000 cycles: 75809489 heartbeat IPC: 0.576697 cumulative IPC: 0.566708 (Simulation time: 3 hr 26 min 25 sec) 
Heartbeat CPU 0 instructions: 77000003 cycles: 77586891 heartbeat IPC: 0.562621 cumulative IPC: 0.566556 (Simulation time: 3 hr 29 min 30 sec) 
Heartbeat CPU 0 instructions: 78000000 cycles: 79368077 heartbeat IPC: 0.561422 cumulative IPC: 0.566371 (Simulation time: 3 hr 32 min 56 sec) 
Heartbeat CPU 0 instructions: 79000000 cycles: 81165011 heartbeat IPC: 0.556503 cumulative IPC: 0.566025 (Simulation time: 3 hr 36 min 19 sec) 
Heartbeat CPU 0 instructions: 80000000 cycles: 82886493 heartbeat IPC: 0.580895 cumulative IPC: 0.566508 (Simulation time: 3 hr 39 min 24 sec) 
Heartbeat CPU 0 instructions: 81000003 cycles: 84652084 heartbeat IPC: 0.566384 cumulative IPC: 0.566504 (Simulation time: 3 hr 43 min 17 sec) 
Heartbeat CPU 0 instructions: 82000002 cycles: 86439134 heartbeat IPC: 0.559581 cumulative IPC: 0.566285 (Simulation time: 3 hr 47 min 9 sec) 
Heartbeat CPU 0 instructions: 83000001 cycles: 88221624 heartbeat IPC: 0.561012 cumulative IPC: 0.566124 (Simulation time: 3 hr 50 min 5 sec) 
Heartbeat CPU 0 instructions: 84000000 cycles: 89994941 heartbeat IPC: 0.563914 cumulative IPC: 0.566059 (Simulation time: 3 hr 53 min 45 sec) 
Heartbeat CPU 0 instructions: 85000000 cycles: 91712719 heartbeat IPC: 0.582147 cumulative IPC: 0.566506 (Simulation time: 3 hr 57 min 28 sec) 
Heartbeat CPU 0 instructions: 86000001 cycles: 93498029 heartbeat IPC: 0.560127 cumulative IPC: 0.566327 (Simulation time: 4 hr 1 min 5 sec) 
Heartbeat CPU 0 instructions: 87000000 cycles: 95280401 heartbeat IPC: 0.56105 cumulative IPC: 0.566183 (Simulation time: 4 hr 4 min 56 sec) 
Heartbeat CPU 0 instructions: 88000000 cycles: 97056920 heartbeat IPC: 0.562899 cumulative IPC: 0.566096 (Simulation time: 4 hr 7 min 55 sec) 
Heartbeat CPU 0 instructions: 89000000 cycles: 98806339 heartbeat IPC: 0.571618 cumulative IPC: 0.566236 (Simulation time: 4 hr 10 min 36 sec) 
Heartbeat CPU 0 instructions: 90000000 cycles: 100561648 heartbeat IPC: 0.5697 cumulative IPC: 0.566323 (Simulation time: 4 hr 13 min 31 sec) 
Heartbeat CPU 0 instructions: 91000001 cycles: 102340912 heartbeat IPC: 0.562031 cumulative IPC: 0.566217 (Simulation time: 4 hr 17 min 27 sec) 
Heartbeat CPU 0 instructions: 92000000 cycles: 104124191 heartbeat IPC: 0.560764 cumulative IPC: 0.566086 (Simulation time: 4 hr 20 min 23 sec) 
Heartbeat CPU 0 instructions: 93000003 cycles: 105907583 heartbeat IPC: 0.560731 cumulative IPC: 0.56596 (Simulation time: 4 hr 23 min 28 sec) 
Heartbeat CPU 0 instructions: 94000001 cycles: 107633751 heartbeat IPC: 0.579317 cumulative IPC: 0.566257 (Simulation time: 4 hr 26 min 32 sec) 
Heartbeat CPU 0 instructions: 95000001 cycles: 109414208 heartbeat IPC: 0.561654 cumulative IPC: 0.566154 (Simulation time: 4 hr 29 min 44 sec) 
Heartbeat CPU 0 instructions: 96000000 cycles: 111194349 heartbeat IPC: 0.561753 cumulative IPC: 0.566057 (Simulation time: 4 hr 33 min 17 sec) 
Heartbeat CPU 0 instructions: 97000000 cycles: 112974347 heartbeat IPC: 0.561798 cumulative IPC: 0.565966 (Simulation time: 4 hr 36 min 30 sec) 
Heartbeat CPU 0 instructions: 98000000 cycles: 114735744 heartbeat IPC: 0.567731 cumulative IPC: 0.566003 (Simulation time: 4 hr 39 min 26 sec) 
Heartbeat CPU 0 instructions: 99000000 cycles: 116490116 heartbeat IPC: 0.570005 cumulative IPC: 0.566084 (Simulation time: 4 hr 42 min 50 sec) 
Heartbeat CPU 0 instructions: 100000000 cycles: 118269300 heartbeat IPC: 0.562055 cumulative IPC: 0.566003 (Simulation time: 4 hr 45 min 54 sec) 
Heartbeat CPU 0 instructions: 101000000 cycles: 120047361 heartbeat IPC: 0.56241 cumulative IPC: 0.565932 (Simulation time: 4 hr 49 min 12 sec) 
Heartbeat CPU 0 instructions: 102000003 cycles: 121835778 heartbeat IPC: 0.559155 cumulative IPC: 0.5658 (Simulation time: 4 hr 52 min 34 sec) 
Heartbeat CPU 0 instructions: 103000001 cycles: 123567416 heartbeat IPC: 0.577487 cumulative IPC: 0.566016 (Simulation time: 4 hr 55 min 12 sec) 
Heartbeat CPU 0 instructions: 104000000 cycles: 125352399 heartbeat IPC: 0.560229 cumulative IPC: 0.565908 (Simulation time: 4 hr 58 min 53 sec) 
Heartbeat CPU 0 instructions: 105000002 cycles: 127132548 heartbeat IPC: 0.561752 cumulative IPC: 0.565832 (Simulation time: 5 hr 1 min 58 sec) 
Heartbeat CPU 0 instructions: 106000001 cycles: 128910347 heartbeat IPC: 0.562493 cumulative IPC: 0.565772 (Simulation time: 5 hr 5 min 53 sec) 
Heartbeat CPU 0 instructions: 107000003 cycles: 130668085 heartbeat IPC: 0.568914 cumulative IPC: 0.565827 (Simulation time: 5 hr 8 min 58 sec) 
Heartbeat CPU 0 instructions: 108000000 cycles: 132433210 heartbeat IPC: 0.56653 cumulative IPC: 0.565839 (Simulation time: 5 hr 11 min 41 sec) 
Heartbeat CPU 0 instructions: 109000002 cycles: 134217317 heartbeat IPC: 0.560506 cumulative IPC: 0.565747 (Simulation time: 5 hr 14 min 35 sec) 
Heartbeat CPU 0 instructions: 110000003 cycles: 135996266 heartbeat IPC: 0.56213 cumulative IPC: 0.565687 (Simulation time: 5 hr 17 min 33 sec) 
Heartbeat CPU 0 instructions: 111000000 cycles: 137783799 heartbeat IPC: 0.559429 cumulative IPC: 0.565583 (Simulation time: 5 hr 20 min 53 sec) 
Heartbeat CPU 0 instructions: 112000000 cycles: 139524510 heartbeat IPC: 0.574478 cumulative IPC: 0.565724 (Simulation time: 5 hr 24 min 0 sec) 
Heartbeat CPU 0 instructions: 113000000 cycles: 141303689 heartbeat IPC: 0.562057 cumulative IPC: 0.565666 (Simulation time: 5 hr 27 min 4 sec) 
Heartbeat CPU 0 instructions: 114000000 cycles: 143083724 heartbeat IPC: 0.561787 cumulative IPC: 0.565605 (Simulation time: 5 hr 30 min 59 sec) 
Heartbeat CPU 0 instructions: 115000003 cycles: 144864260 heartbeat IPC: 0.56163 cumulative IPC: 0.565543 (Simulation time: 5 hr 34 min 10 sec) 
Heartbeat CPU 0 instructions: 116000000 cycles: 146622281 heartbeat IPC: 0.56882 cumulative IPC: 0.565593 (Simulation time: 5 hr 37 min 40 sec) 
Heartbeat CPU 0 instructions: 117000000 cycles: 148398507 heartbeat IPC: 0.562991 cumulative IPC: 0.565554 (Simulation time: 5 hr 40 min 58 sec) 
Heartbeat CPU 0 instructions: 118000002 cycles: 150178322 heartbeat IPC: 0.561857 cumulative IPC: 0.565499 (Simulation time: 5 hr 43 min 30 sec) 
Heartbeat CPU 0 instructions: 119000002 cycles: 151962229 heartbeat IPC: 0.560567 cumulative IPC: 0.565427 (Simulation time: 5 hr 46 min 51 sec) 
Heartbeat CPU 0 instructions: 120000000 cycles: 153738251 heartbeat IPC: 0.563055 cumulative IPC: 0.565393 (Simulation time: 5 hr 49 min 49 sec) 
Heartbeat CPU 0 instructions: 121000003 cycles: 155493582 heartbeat IPC: 0.569695 cumulative IPC: 0.565453 (Simulation time: 5 hr 53 min 6 sec) 
Heartbeat CPU 0 instructions: 122000000 cycles: 157273464 heartbeat IPC: 0.561833 cumulative IPC: 0.565402 (Simulation time: 5 hr 55 min 36 sec) 
Heartbeat CPU 0 instructions: 123000000 cycles: 159054479 heartbeat IPC: 0.561478 cumulative IPC: 0.565348 (Simulation time: 5 hr 58 min 37 sec) 
Heartbeat CPU 0 instructions: 124000000 cycles: 160833572 heartbeat IPC: 0.562084 cumulative IPC: 0.565304 (Simulation time: 6 hr 1 min 29 sec) 
Heartbeat CPU 0 instructions: 125000000 cycles: 162597443 heartbeat IPC: 0.566935 cumulative IPC: 0.565325 (Simulation time: 6 hr 4 min 18 sec) 
Heartbeat CPU 0 instructions: 126000003 cycles: 164379794 heartbeat IPC: 0.561058 cumulative IPC: 0.565269 (Simulation time: 6 hr 7 min 42 sec) 
Heartbeat CPU 0 instructions: 127000000 cycles: 166161887 heartbeat IPC: 0.561136 cumulative IPC: 0.565215 (Simulation time: 6 hr 11 min 0 sec) 
Heartbeat CPU 0 instructions: 128000000 cycles: 167940692 heartbeat IPC: 0.562175 cumulative IPC: 0.565176 (Simulation time: 6 hr 14 min 6 sec) 
Heartbeat CPU 0 instructions: 129000002 cycles: 169710913 heartbeat IPC: 0.564902 cumulative IPC: 0.565172 (Simulation time: 6 hr 17 min 1 sec) 
Heartbeat CPU 0 instructions: 130000000 cycles: 171485840 heartbeat IPC: 0.563402 cumulative IPC: 0.56515 (Simulation time: 6 hr 19 min 56 sec) 
Heartbeat CPU 0 instructions: 131000002 cycles: 173265027 heartbeat IPC: 0.562056 cumulative IPC: 0.565112 (Simulation time: 6 hr 22 min 44 sec) 
Heartbeat CPU 0 instructions: 132000000 cycles: 175048645 heartbeat IPC: 0.560657 cumulative IPC: 0.565057 (Simulation time: 6 hr 25 min 22 sec) 
Heartbeat CPU 0 instructions: 133000000 cycles: 176830659 heartbeat IPC: 0.561163 cumulative IPC: 0.56501 (Simulation time: 6 hr 28 min 3 sec) 
Heartbeat CPU 0 instructions: 134000000 cycles: 178591959 heartbeat IPC: 0.567762 cumulative IPC: 0.565042 (Simulation time: 6 hr 30 min 36 sec) 
Heartbeat CPU 0 instructions: 135000000 cycles: 180374126 heartbeat IPC: 0.561115 cumulative IPC: 0.564996 (Simulation time: 6 hr 33 min 1 sec) 
Heartbeat CPU 0 instructions: 136000000 cycles: 182154547 heartbeat IPC: 0.561665 cumulative IPC: 0.564957 (Simulation time: 6 hr 35 min 28 sec) 
Heartbeat CPU 0 instructions: 137000000 cycles: 183937350 heartbeat IPC: 0.560914 cumulative IPC: 0.56491 (Simulation time: 6 hr 37 min 49 sec) 
Heartbeat CPU 0 instructions: 138000000 cycles: 185708727 heartbeat IPC: 0.564533 cumulative IPC: 0.564906 (Simulation time: 6 hr 40 min 4 sec) 
Heartbeat CPU 0 instructions: 139000001 cycles: 187488019 heartbeat IPC: 0.562022 cumulative IPC: 0.564873 (Simulation time: 6 hr 42 min 4 sec) 
Heartbeat CPU 0 instructions: 140000000 cycles: 189266421 heartbeat IPC: 0.562302 cumulative IPC: 0.564844 (Simulation time: 6 hr 43 min 52 sec) 
Heartbeat CPU 0 instructions: 141000001 cycles: 191044563 heartbeat IPC: 0.562385 cumulative IPC: 0.564817 (Simulation time: 6 hr 45 min 44 sec) 
Heartbeat CPU 0 instructions: 142000000 cycles: 192822910 heartbeat IPC: 0.562319 cumulative IPC: 0.56479 (Simulation time: 6 hr 47 min 25 sec) 
Heartbeat CPU 0 instructions: 143000001 cycles: 194603963 heartbeat IPC: 0.561466 cumulative IPC: 0.564754 (Simulation time: 6 hr 49 min 6 sec) 
Heartbeat CPU 0 instructions: 144000000 cycles: 196384433 heartbeat IPC: 0.561649 cumulative IPC: 0.564721 (Simulation time: 6 hr 50 min 51 sec) 
Heartbeat CPU 0 instructions: 145000000 cycles: 198165320 heartbeat IPC: 0.561518 cumulative IPC: 0.564687 (Simulation time: 6 hr 52 min 33 sec) 
Heartbeat CPU 0 instructions: 146000000 cycles: 199954923 heartbeat IPC: 0.558783 cumulative IPC: 0.564625 (Simulation time: 6 hr 54 min 4 sec) 
Heartbeat CPU 0 instructions: 147000003 cycles: 201730358 heartbeat IPC: 0.563244 cumulative IPC: 0.564611 (Simulation time: 6 hr 55 min 21 sec) 
Heartbeat CPU 0 instructions: 148000000 cycles: 203512245 heartbeat IPC: 0.561201 cumulative IPC: 0.564576 (Simulation time: 6 hr 56 min 27 sec) 
Heartbeat CPU 0 instructions: 149000002 cycles: 205290234 heartbeat IPC: 0.562434 cumulative IPC: 0.564554 (Simulation time: 6 hr 57 min 37 sec) 
Heartbeat CPU 0 instructions: 150000002 cycles: 207087984 heartbeat IPC: 0.556251 cumulative IPC: 0.56447 (Simulation time: 6 hr 58 min 37 sec) 
Finished CPU 0 instructions: 100000000 cycles: 177157468 cummulative IPC: 0.56447 (Simulation time: 6 hr 58 min 37 sec) 

ChampSim completed all CPUs

Region of Interest Statistics

CPU 0 cummulative IPC: 0.56447 instructions: 100000000 cycles: 177157468
LLC TOTAL     ACCESS:     134433  HIT:      18008  MISS:     116425
LLC LOAD      ACCESS:      14874  HIT:       3748  MISS:      11126
LLC RFO       ACCESS:       1058  HIT:        148  MISS:        910
LLC PREFETCH  ACCESS:      79269  HIT:       5822  MISS:      73447
LLC WRITEBACK ACCESS:      39232  HIT:       8290  MISS:      30942
