
*** ChampSim Multicore Out-of-Order Simulator ***

Warmup Instructions: 50000000
Simulation Instructions: 100000000
Configuration: 2
Number of CPUs: 1
LLC sets: 2048
LLC ways: 16
Off-chip DRAM Channels: 1 Width: 64-bit Data Rate: 1600 MT/s

CPU 0 runs /datasets/cs240c-wi22-a00-public/data/Assignment2-gz/zeusmp_600B.trace.gz
CPU 0 L1D next line prefetcher
CPU 0 L2C IP-based stride prefetcher
Heartbeat CPU 0 instructions: 1000000 cycles: 407346 heartbeat IPC: 2.45492 cumulative IPC: 2.45492 (Simulation time: 0 hr 2 min 4 sec) 
Heartbeat CPU 0 instructions: 2000001 cycles: 814284 heartbeat IPC: 2.45738 cumulative IPC: 2.45615 (Simulation time: 0 hr 4 min 28 sec) 
Heartbeat CPU 0 instructions: 3000000 cycles: 1221753 heartbeat IPC: 2.45417 cumulative IPC: 2.45549 (Simulation time: 0 hr 6 min 54 sec) 
Heartbeat CPU 0 instructions: 4000000 cycles: 1629404 heartbeat IPC: 2.45308 cumulative IPC: 2.45489 (Simulation time: 0 hr 9 min 24 sec) 
Heartbeat CPU 0 instructions: 5000001 cycles: 2036967 heartbeat IPC: 2.45361 cumulative IPC: 2.45463 (Simulation time: 0 hr 12 min 26 sec) 
Heartbeat CPU 0 instructions: 6000000 cycles: 2444291 heartbeat IPC: 2.45505 cumulative IPC: 2.4547 (Simulation time: 0 hr 14 min 51 sec) 
Heartbeat CPU 0 instructions: 7000000 cycles: 2851775 heartbeat IPC: 2.45408 cumulative IPC: 2.45461 (Simulation time: 0 hr 17 min 14 sec) 
Heartbeat CPU 0 instructions: 8000000 cycles: 3259377 heartbeat IPC: 2.45337 cumulative IPC: 2.45446 (Simulation time: 0 hr 19 min 35 sec) 
Heartbeat CPU 0 instructions: 9000003 cycles: 3666454 heartbeat IPC: 2.45655 cumulative IPC: 2.45469 (Simulation time: 0 hr 21 min 46 sec) 
Heartbeat CPU 0 instructions: 10000001 cycles: 4073948 heartbeat IPC: 2.45402 cumulative IPC: 2.45462 (Simulation time: 0 hr 24 min 2 sec) 
Heartbeat CPU 0 instructions: 11000000 cycles: 4481315 heartbeat IPC: 2.45479 cumulative IPC: 2.45464 (Simulation time: 0 hr 26 min 26 sec) 
Heartbeat CPU 0 instructions: 12000000 cycles: 4888906 heartbeat IPC: 2.45344 cumulative IPC: 2.45454 (Simulation time: 0 hr 28 min 47 sec) 
Heartbeat CPU 0 instructions: 13000003 cycles: 5296034 heartbeat IPC: 2.45624 cumulative IPC: 2.45467 (Simulation time: 0 hr 31 min 47 sec) 
Heartbeat CPU 0 instructions: 14000001 cycles: 5703618 heartbeat IPC: 2.45348 cumulative IPC: 2.45458 (Simulation time: 0 hr 34 min 12 sec) 
Heartbeat CPU 0 instructions: 15000003 cycles: 6111273 heartbeat IPC: 2.45306 cumulative IPC: 2.45448 (Simulation time: 0 hr 36 min 50 sec) 
Heartbeat CPU 0 instructions: 16000000 cycles: 6519164 heartbeat IPC: 2.45163 cumulative IPC: 2.4543 (Simulation time: 0 hr 39 min 5 sec) 
Heartbeat CPU 0 instructions: 17000002 cycles: 6945434 heartbeat IPC: 2.34594 cumulative IPC: 2.44765 (Simulation time: 0 hr 41 min 19 sec) 
Heartbeat CPU 0 instructions: 18000000 cycles: 7402896 heartbeat IPC: 2.18597 cumulative IPC: 2.43148 (Simulation time: 0 hr 43 min 44 sec) 
Heartbeat CPU 0 instructions: 19000000 cycles: 7812641 heartbeat IPC: 2.44054 cumulative IPC: 2.43196 (Simulation time: 0 hr 46 min 7 sec) 
Heartbeat CPU 0 instructions: 20000000 cycles: 8225115 heartbeat IPC: 2.4244 cumulative IPC: 2.43158 (Simulation time: 0 hr 48 min 32 sec) 
Heartbeat CPU 0 instructions: 21000001 cycles: 8686472 heartbeat IPC: 2.16752 cumulative IPC: 2.41755 (Simulation time: 0 hr 50 min 44 sec) 
Heartbeat CPU 0 instructions: 22000000 cycles: 9108345 heartbeat IPC: 2.37038 cumulative IPC: 2.41537 (Simulation time: 0 hr 53 min 0 sec) 
Heartbeat CPU 0 instructions: 23000000 cycles: 9515157 heartbeat IPC: 2.45814 cumulative IPC: 2.4172 (Simulation time: 0 hr 55 min 18 sec) 
Heartbeat CPU 0 instructions: 24000000 cycles: 9968811 heartbeat IPC: 2.20432 cumulative IPC: 2.40751 (Simulation time: 0 hr 57 min 58 sec) 
Heartbeat CPU 0 instructions: 25000000 cycles: 10408192 heartbeat IPC: 2.27593 cumulative IPC: 2.40195 (Simulation time: 1 hr 0 min 22 sec) 
Heartbeat CPU 0 instructions: 26000000 cycles: 10815146 heartbeat IPC: 2.45728 cumulative IPC: 2.40404 (Simulation time: 1 hr 3 min 3 sec) 
Heartbeat CPU 0 instructions: 27000003 cycles: 11253221 heartbeat IPC: 2.28272 cumulative IPC: 2.39931 (Simulation time: 1 hr 5 min 44 sec) 
Heartbeat CPU 0 instructions: 28000000 cycles: 11711466 heartbeat IPC: 2.18223 cumulative IPC: 2.39082 (Simulation time: 1 hr 8 min 4 sec) 
Heartbeat CPU 0 instructions: 29000000 cycles: 12119009 heartbeat IPC: 2.45373 cumulative IPC: 2.39294 (Simulation time: 1 hr 10 min 31 sec) 
Heartbeat CPU 0 instructions: 30000002 cycles: 12541769 heartbeat IPC: 2.36541 cumulative IPC: 2.39201 (Simulation time: 1 hr 13 min 2 sec) 
Heartbeat CPU 0 instructions: 31000002 cycles: 13008154 heartbeat IPC: 2.14415 cumulative IPC: 2.38312 (Simulation time: 1 hr 15 min 26 sec) 
Heartbeat CPU 0 instructions: 32000000 cycles: 13426556 heartbeat IPC: 2.39004 cumulative IPC: 2.38334 (Simulation time: 1 hr 17 min 38 sec) 
Heartbeat CPU 0 instructions: 33000002 cycles: 13838106 heartbeat IPC: 2.42984 cumulative IPC: 2.38472 (Simulation time: 1 hr 20 min 14 sec) 
Heartbeat CPU 0 instructions: 34000000 cycles: 14301787 heartbeat IPC: 2.15665 cumulative IPC: 2.37733 (Simulation time: 1 hr 22 min 29 sec) 
Heartbeat CPU 0 instructions: 35000001 cycles: 14738016 heartbeat IPC: 2.29238 cumulative IPC: 2.37481 (Simulation time: 1 hr 24 min 41 sec) 
Heartbeat CPU 0 instructions: 36000000 cycles: 15145665 heartbeat IPC: 2.45309 cumulative IPC: 2.37692 (Simulation time: 1 hr 27 min 6 sec) 
Heartbeat CPU 0 instructions: 37000001 cycles: 15596605 heartbeat IPC: 2.21759 cumulative IPC: 2.37231 (Simulation time: 1 hr 29 min 53 sec) 
Heartbeat CPU 0 instructions: 38000001 cycles: 16052832 heartbeat IPC: 2.19189 cumulative IPC: 2.36718 (Simulation time: 1 hr 32 min 26 sec) 
Heartbeat CPU 0 instructions: 39000002 cycles: 16459969 heartbeat IPC: 2.45618 cumulative IPC: 2.36939 (Simulation time: 1 hr 34 min 37 sec) 
Heartbeat CPU 0 instructions: 40000000 cycles: 16894200 heartbeat IPC: 2.30292 cumulative IPC: 2.36768 (Simulation time: 1 hr 37 min 0 sec) 
Heartbeat CPU 0 instructions: 41000002 cycles: 17361936 heartbeat IPC: 2.13796 cumulative IPC: 2.36149 (Simulation time: 1 hr 39 min 32 sec) 
Heartbeat CPU 0 instructions: 42000000 cycles: 17776377 heartbeat IPC: 2.41288 cumulative IPC: 2.36269 (Simulation time: 1 hr 41 min 54 sec) 
Heartbeat CPU 0 instructions: 43000003 cycles: 18194820 heartbeat IPC: 2.38982 cumulative IPC: 2.36331 (Simulation time: 1 hr 44 min 29 sec) 
Heartbeat CPU 0 instructions: 44000000 cycles: 18662034 heartbeat IPC: 2.14034 cumulative IPC: 2.35773 (Simulation time: 1 hr 46 min 44 sec) 
Heartbeat CPU 0 instructions: 45000003 cycles: 19093781 heartbeat IPC: 2.31618 cumulative IPC: 2.35679 (Simulation time: 1 hr 49 min 15 sec) 
Heartbeat CPU 0 instructions: 46000003 cycles: 19502057 heartbeat IPC: 2.44932 cumulative IPC: 2.35873 (Simulation time: 1 hr 51 min 48 sec) 
Heartbeat CPU 0 instructions: 47000001 cycles: 19962550 heartbeat IPC: 2.17158 cumulative IPC: 2.35441 (Simulation time: 1 hr 53 min 52 sec) 
Heartbeat CPU 0 instructions: 48000000 cycles: 20413622 heartbeat IPC: 2.21694 cumulative IPC: 2.35137 (Simulation time: 1 hr 56 min 18 sec) 
Heartbeat CPU 0 instructions: 49000001 cycles: 20820472 heartbeat IPC: 2.45791 cumulative IPC: 2.35345 (Simulation time: 1 hr 58 min 27 sec) 
Heartbeat CPU 0 instructions: 50000000 cycles: 21265979 heartbeat IPC: 2.24463 cumulative IPC: 2.35117 (Simulation time: 2 hr 0 min 38 sec) 

Warmup complete CPU 0 instructions: 50000001 cycles: 21265980 (Simulation time: 2 hr 0 min 38 sec) 

Heartbeat CPU 0 instructions: 51000001 cycles: 22046523 heartbeat IPC: 1.28116 cumulative IPC: 1.28116 (Simulation time: 2 hr 3 min 6 sec) 
Heartbeat CPU 0 instructions: 52000000 cycles: 22814369 heartbeat IPC: 1.30234 cumulative IPC: 1.29166 (Simulation time: 2 hr 5 min 28 sec) 
Heartbeat CPU 0 instructions: 53000001 cycles: 23596702 heartbeat IPC: 1.27823 cumulative IPC: 1.28715 (Simulation time: 2 hr 7 min 47 sec) 
Heartbeat CPU 0 instructions: 54000000 cycles: 24377284 heartbeat IPC: 1.28109 cumulative IPC: 1.28563 (Simulation time: 2 hr 10 min 9 sec) 
Heartbeat CPU 0 instructions: 55000001 cycles: 25148543 heartbeat IPC: 1.29658 cumulative IPC: 1.28781 (Simulation time: 2 hr 12 min 40 sec) 
Heartbeat CPU 0 instructions: 56000000 cycles: 25927389 heartbeat IPC: 1.28395 cumulative IPC: 1.28716 (Simulation time: 2 hr 15 min 13 sec) 
Heartbeat CPU 0 instructions: 57000003 cycles: 26713036 heartbeat IPC: 1.27284 cumulative IPC: 1.2851 (Simulation time: 2 hr 18 min 8 sec) 
Heartbeat CPU 0 instructions: 58000001 cycles: 27484996 heartbeat IPC: 1.2954 cumulative IPC: 1.28638 (Simulation time: 2 hr 20 min 27 sec) 
Heartbeat CPU 0 instructions: 59000000 cycles: 28258964 heartbeat IPC: 1.29204 cumulative IPC: 1.287 (Simulation time: 2 hr 23 min 5 sec) 
Heartbeat CPU 0 instructions: 60000000 cycles: 29037611 heartbeat IPC: 1.28428 cumulative IPC: 1.28673 (Simulation time: 2 hr 25 min 17 sec) 
Heartbeat CPU 0 instructions: 61000003 cycles: 29813180 heartbeat IPC: 1.28938 cumulative IPC: 1.28697 (Simulation time: 2 hr 27 min 27 sec) 
Heartbeat CPU 0 instructions: 62000001 cycles: 30590773 heartbeat IPC: 1.28602 cumulative IPC: 1.28689 (Simulation time: 2 hr 29 min 34 sec) 
Heartbeat CPU 0 instructions: 63000000 cycles: 31371506 heartbeat IPC: 1.28085 cumulative IPC: 1.28642 (Simulation time: 2 hr 31 min 54 sec) 
Heartbeat CPU 0 instructions: 64000000 cycles: 32147055 heartbeat IPC: 1.28941 cumulative IPC: 1.28664 (Simulation time: 2 hr 34 min 59 sec) 
Heartbeat CPU 0 instructions: 65000001 cycles: 32927362 heartbeat IPC: 1.28155 cumulative IPC: 1.2863 (Simulation time: 2 hr 37 min 46 sec) 
Heartbeat CPU 0 instructions: 66000000 cycles: 33713655 heartbeat IPC: 1.27179 cumulative IPC: 1.28538 (Simulation time: 2 hr 40 min 12 sec) 
Heartbeat CPU 0 instructions: 67000001 cycles: 34497831 heartbeat IPC: 1.27523 cumulative IPC: 1.28478 (Simulation time: 2 hr 42 min 56 sec) 
Heartbeat CPU 0 instructions: 68000000 cycles: 35279741 heartbeat IPC: 1.27892 cumulative IPC: 1.28445 (Simulation time: 2 hr 45 min 32 sec) 
Heartbeat CPU 0 instructions: 69000002 cycles: 36065731 heartbeat IPC: 1.27228 cumulative IPC: 1.28381 (Simulation time: 2 hr 47 min 37 sec) 
Heartbeat CPU 0 instructions: 70000000 cycles: 36845629 heartbeat IPC: 1.28222 cumulative IPC: 1.28373 (Simulation time: 2 hr 50 min 10 sec) 
Heartbeat CPU 0 instructions: 71000001 cycles: 37629177 heartbeat IPC: 1.27625 cumulative IPC: 1.28337 (Simulation time: 2 hr 52 min 24 sec) 
Heartbeat CPU 0 instructions: 72000000 cycles: 38407838 heartbeat IPC: 1.28425 cumulative IPC: 1.28341 (Simulation time: 2 hr 54 min 21 sec) 
Heartbeat CPU 0 instructions: 73000003 cycles: 39184884 heartbeat IPC: 1.28693 cumulative IPC: 1.28356 (Simulation time: 2 hr 56 min 46 sec) 
Heartbeat CPU 0 instructions: 74000002 cycles: 39966711 heartbeat IPC: 1.27905 cumulative IPC: 1.28337 (Simulation time: 3 hr 0 min 6 sec) 
Heartbeat CPU 0 instructions: 75000003 cycles: 40749332 heartbeat IPC: 1.27776 cumulative IPC: 1.28315 (Simulation time: 3 hr 2 min 1 sec) 
Heartbeat CPU 0 instructions: 76000000 cycles: 41530699 heartbeat IPC: 1.2798 cumulative IPC: 1.28302 (Simulation time: 3 hr 3 min 54 sec) 
Heartbeat CPU 0 instructions: 77000000 cycles: 42311002 heartbeat IPC: 1.28155 cumulative IPC: 1.28296 (Simulation time: 3 hr 6 min 23 sec) 
Heartbeat CPU 0 instructions: 78000003 cycles: 43094326 heartbeat IPC: 1.27661 cumulative IPC: 1.28274 (Simulation time: 3 hr 8 min 22 sec) 
Heartbeat CPU 0 instructions: 79000000 cycles: 43873150 heartbeat IPC: 1.28398 cumulative IPC: 1.28278 (Simulation time: 3 hr 10 min 58 sec) 
Heartbeat CPU 0 instructions: 80000000 cycles: 44654997 heartbeat IPC: 1.27902 cumulative IPC: 1.28265 (Simulation time: 3 hr 13 min 34 sec) 
Heartbeat CPU 0 instructions: 81000002 cycles: 45437622 heartbeat IPC: 1.27775 cumulative IPC: 1.28249 (Simulation time: 3 hr 15 min 43 sec) 
Heartbeat CPU 0 instructions: 82000002 cycles: 46212168 heartbeat IPC: 1.29108 cumulative IPC: 1.28276 (Simulation time: 3 hr 18 min 10 sec) 
Heartbeat CPU 0 instructions: 83000003 cycles: 46985221 heartbeat IPC: 1.29357 cumulative IPC: 1.28309 (Simulation time: 3 hr 21 min 4 sec) 
Heartbeat CPU 0 instructions: 84000000 cycles: 47769983 heartbeat IPC: 1.27427 cumulative IPC: 1.28282 (Simulation time: 3 hr 24 min 4 sec) 
Heartbeat CPU 0 instructions: 85000002 cycles: 48548236 heartbeat IPC: 1.28493 cumulative IPC: 1.28289 (Simulation time: 3 hr 26 min 58 sec) 
Heartbeat CPU 0 instructions: 86000002 cycles: 49324154 heartbeat IPC: 1.2888 cumulative IPC: 1.28305 (Simulation time: 3 hr 29 min 39 sec) 
Heartbeat CPU 0 instructions: 87000000 cycles: 50106892 heartbeat IPC: 1.27756 cumulative IPC: 1.2829 (Simulation time: 3 hr 32 min 55 sec) 
Heartbeat CPU 0 instructions: 88000000 cycles: 50885195 heartbeat IPC: 1.28485 cumulative IPC: 1.28295 (Simulation time: 3 hr 36 min 40 sec) 
Heartbeat CPU 0 instructions: 89000002 cycles: 51663322 heartbeat IPC: 1.28514 cumulative IPC: 1.28301 (Simulation time: 3 hr 40 min 0 sec) 
Heartbeat CPU 0 instructions: 90000002 cycles: 52438017 heartbeat IPC: 1.29083 cumulative IPC: 1.2832 (Simulation time: 3 hr 43 min 38 sec) 
Heartbeat CPU 0 instructions: 91000001 cycles: 53218421 heartbeat IPC: 1.28139 cumulative IPC: 1.28316 (Simulation time: 3 hr 47 min 40 sec) 
Heartbeat CPU 0 instructions: 92000000 cycles: 54003949 heartbeat IPC: 1.27303 cumulative IPC: 1.28291 (Simulation time: 3 hr 49 min 49 sec) 
Heartbeat CPU 0 instructions: 93000000 cycles: 54777683 heartbeat IPC: 1.29243 cumulative IPC: 1.28313 (Simulation time: 3 hr 52 min 35 sec) 
Heartbeat CPU 0 instructions: 94000002 cycles: 55557294 heartbeat IPC: 1.28269 cumulative IPC: 1.28312 (Simulation time: 3 hr 56 min 20 sec) 
Heartbeat CPU 0 instructions: 95000001 cycles: 56336178 heartbeat IPC: 1.28389 cumulative IPC: 1.28314 (Simulation time: 3 hr 58 min 40 sec) 
Heartbeat CPU 0 instructions: 96000000 cycles: 57115106 heartbeat IPC: 1.28381 cumulative IPC: 1.28316 (Simulation time: 4 hr 1 min 24 sec) 
Heartbeat CPU 0 instructions: 97000003 cycles: 57886438 heartbeat IPC: 1.29646 cumulative IPC: 1.28344 (Simulation time: 4 hr 4 min 10 sec) 
Heartbeat CPU 0 instructions: 98000002 cycles: 58658880 heartbeat IPC: 1.29459 cumulative IPC: 1.28367 (Simulation time: 4 hr 7 min 16 sec) 
Heartbeat CPU 0 instructions: 99000000 cycles: 59441822 heartbeat IPC: 1.27723 cumulative IPC: 1.28353 (Simulation time: 4 hr 10 min 25 sec) 
Heartbeat CPU 0 instructions: 100000000 cycles: 60219111 heartbeat IPC: 1.28652 cumulative IPC: 1.28359 (Simulation time: 4 hr 13 min 15 sec) 
Heartbeat CPU 0 instructions: 101000002 cycles: 60989769 heartbeat IPC: 1.2976 cumulative IPC: 1.28387 (Simulation time: 4 hr 16 min 53 sec) 
Heartbeat CPU 0 instructions: 102000002 cycles: 61778194 heartbeat IPC: 1.26835 cumulative IPC: 1.28356 (Simulation time: 4 hr 19 min 47 sec) 
Heartbeat CPU 0 instructions: 103000001 cycles: 62558737 heartbeat IPC: 1.28116 cumulative IPC: 1.28352 (Simulation time: 4 hr 22 min 39 sec) 
Heartbeat CPU 0 instructions: 104000000 cycles: 63340937 heartbeat IPC: 1.27844 cumulative IPC: 1.28342 (Simulation time: 4 hr 25 min 1 sec) 
Heartbeat CPU 0 instructions: 105000001 cycles: 64123466 heartbeat IPC: 1.27791 cumulative IPC: 1.28332 (Simulation time: 4 hr 27 min 42 sec) 
Heartbeat CPU 0 instructions: 106000000 cycles: 64902156 heartbeat IPC: 1.28421 cumulative IPC: 1.28334 (Simulation time: 4 hr 30 min 23 sec) 
Heartbeat CPU 0 instructions: 107000000 cycles: 65681363 heartbeat IPC: 1.28336 cumulative IPC: 1.28334 (Simulation time: 4 hr 33 min 8 sec) 
Heartbeat CPU 0 instructions: 108000000 cycles: 66458348 heartbeat IPC: 1.28703 cumulative IPC: 1.2834 (Simulation time: 4 hr 35 min 30 sec) 
Heartbeat CPU 0 instructions: 109000000 cycles: 67241925 heartbeat IPC: 1.2762 cumulative IPC: 1.28328 (Simulation time: 4 hr 37 min 52 sec) 
Heartbeat CPU 0 instructions: 110000002 cycles: 68025225 heartbeat IPC: 1.27665 cumulative IPC: 1.28317 (Simulation time: 4 hr 40 min 23 sec) 
Heartbeat CPU 0 instructions: 111000000 cycles: 68808007 heartbeat IPC: 1.27749 cumulative IPC: 1.28308 (Simulation time: 4 hr 43 min 20 sec) 
Heartbeat CPU 0 instructions: 112000000 cycles: 69593559 heartbeat IPC: 1.27299 cumulative IPC: 1.28291 (Simulation time: 4 hr 45 min 49 sec) 
Heartbeat CPU 0 instructions: 113000003 cycles: 70377564 heartbeat IPC: 1.27551 cumulative IPC: 1.28279 (Simulation time: 4 hr 48 min 52 sec) 
Heartbeat CPU 0 instructions: 114000000 cycles: 71155862 heartbeat IPC: 1.28485 cumulative IPC: 1.28283 (Simulation time: 4 hr 51 min 27 sec) 
Heartbeat CPU 0 instructions: 115000000 cycles: 71932570 heartbeat IPC: 1.28749 cumulative IPC: 1.2829 (Simulation time: 4 hr 53 min 58 sec) 
Heartbeat CPU 0 instructions: 116000000 cycles: 72715188 heartbeat IPC: 1.27776 cumulative IPC: 1.28282 (Simulation time: 4 hr 56 min 41 sec) 
Heartbeat CPU 0 instructions: 117000000 cycles: 73493165 heartbeat IPC: 1.28539 cumulative IPC: 1.28286 (Simulation time: 5 hr 0 min 4 sec) 
Heartbeat CPU 0 instructions: 118000000 cycles: 74271653 heartbeat IPC: 1.28454 cumulative IPC: 1.28288 (Simulation time: 5 hr 2 min 57 sec) 
Heartbeat CPU 0 instructions: 119000000 cycles: 75051677 heartbeat IPC: 1.28201 cumulative IPC: 1.28287 (Simulation time: 5 hr 5 min 46 sec) 
Heartbeat CPU 0 instructions: 120000000 cycles: 75837263 heartbeat IPC: 1.27294 cumulative IPC: 1.28273 (Simulation time: 5 hr 9 min 0 sec) 
Heartbeat CPU 0 instructions: 121000000 cycles: 76615027 heartbeat IPC: 1.28574 cumulative IPC: 1.28277 (Simulation time: 5 hr 11 min 51 sec) 
Heartbeat CPU 0 instructions: 122000003 cycles: 77390570 heartbeat IPC: 1.28942 cumulative IPC: 1.28286 (Simulation time: 5 hr 14 min 12 sec) 
Heartbeat CPU 0 instructions: 123000001 cycles: 78175012 heartbeat IPC: 1.27479 cumulative IPC: 1.28275 (Simulation time: 5 hr 17 min 14 sec) 
Heartbeat CPU 0 instructions: 124000000 cycles: 78954433 heartbeat IPC: 1.283 cumulative IPC: 1.28275 (Simulation time: 5 hr 19 min 44 sec) 
Heartbeat CPU 0 instructions: 125000001 cycles: 79736535 heartbeat IPC: 1.27861 cumulative IPC: 1.2827 (Simulation time: 5 hr 22 min 35 sec) 
Heartbeat CPU 0 instructions: 126000003 cycles: 80524145 heartbeat IPC: 1.26967 cumulative IPC: 1.28252 (Simulation time: 5 hr 25 min 20 sec) 
Heartbeat CPU 0 instructions: 127000003 cycles: 81305071 heartbeat IPC: 1.28053 cumulative IPC: 1.2825 (Simulation time: 5 hr 27 min 57 sec) 
Heartbeat CPU 0 instructions: 128000000 cycles: 82078721 heartbeat IPC: 1.29257 cumulative IPC: 1.28263 (Simulation time: 5 hr 30 min 57 sec) 
Heartbeat CPU 0 instructions: 129000002 cycles: 82853750 heartbeat IPC: 1.29028 cumulative IPC: 1.28272 (Simulation time: 5 hr 33 min 36 sec) 
Heartbeat CPU 0 instructions: 130000003 cycles: 83636447 heartbeat IPC: 1.27763 cumulative IPC: 1.28266 (Simulation time: 5 hr 36 min 0 sec) 
Heartbeat CPU 0 instructions: 131000003 cycles: 84421515 heartbeat IPC: 1.27377 cumulative IPC: 1.28255 (Simulation time: 5 hr 38 min 59 sec) 
Heartbeat CPU 0 instructions: 132000000 cycles: 85204447 heartbeat IPC: 1.27725 cumulative IPC: 1.28248 (Simulation time: 5 hr 41 min 33 sec) 
Heartbeat CPU 0 instructions: 133000001 cycles: 85983822 heartbeat IPC: 1.28308 cumulative IPC: 1.28249 (Simulation time: 5 hr 44 min 1 sec) 
Heartbeat CPU 0 instructions: 134000003 cycles: 86770175 heartbeat IPC: 1.2717 cumulative IPC: 1.28236 (Simulation time: 5 hr 46 min 29 sec) 
Heartbeat CPU 0 instructions: 135000003 cycles: 87545771 heartbeat IPC: 1.28933 cumulative IPC: 1.28244 (Simulation time: 5 hr 49 min 19 sec) 
Heartbeat CPU 0 instructions: 136000000 cycles: 88328012 heartbeat IPC: 1.27837 cumulative IPC: 1.28239 (Simulation time: 5 hr 52 min 9 sec) 
Heartbeat CPU 0 instructions: 137000003 cycles: 89107883 heartbeat IPC: 1.28227 cumulative IPC: 1.28239 (Simulation time: 5 hr 54 min 14 sec) 
Heartbeat CPU 0 instructions: 138000000 cycles: 89874688 heartbeat IPC: 1.30411 cumulative IPC: 1.28264 (Simulation time: 5 hr 56 min 17 sec) 
Heartbeat CPU 0 instructions: 139000000 cycles: 90657865 heartbeat IPC: 1.27685 cumulative IPC: 1.28257 (Simulation time: 5 hr 58 min 37 sec) 
Heartbeat CPU 0 instructions: 140000000 cycles: 91441703 heartbeat IPC: 1.27577 cumulative IPC: 1.28249 (Simulation time: 6 hr 0 min 53 sec) 
Heartbeat CPU 0 instructions: 141000000 cycles: 92219199 heartbeat IPC: 1.28618 cumulative IPC: 1.28254 (Simulation time: 6 hr 2 min 59 sec) 
Heartbeat CPU 0 instructions: 142000003 cycles: 92995617 heartbeat IPC: 1.28797 cumulative IPC: 1.28259 (Simulation time: 6 hr 5 min 1 sec) 
Heartbeat CPU 0 instructions: 143000001 cycles: 93781943 heartbeat IPC: 1.27173 cumulative IPC: 1.28248 (Simulation time: 6 hr 7 min 41 sec) 
Heartbeat CPU 0 instructions: 144000000 cycles: 94563129 heartbeat IPC: 1.2801 cumulative IPC: 1.28245 (Simulation time: 6 hr 9 min 41 sec) 
Heartbeat CPU 0 instructions: 145000001 cycles: 95344431 heartbeat IPC: 1.27992 cumulative IPC: 1.28242 (Simulation time: 6 hr 11 min 51 sec) 
Heartbeat CPU 0 instructions: 146000000 cycles: 96126526 heartbeat IPC: 1.27862 cumulative IPC: 1.28238 (Simulation time: 6 hr 14 min 10 sec) 
Heartbeat CPU 0 instructions: 147000000 cycles: 96905837 heartbeat IPC: 1.28318 cumulative IPC: 1.28239 (Simulation time: 6 hr 16 min 13 sec) 
Heartbeat CPU 0 instructions: 148000000 cycles: 97685864 heartbeat IPC: 1.28201 cumulative IPC: 1.28239 (Simulation time: 6 hr 18 min 16 sec) 
Heartbeat CPU 0 instructions: 149000001 cycles: 98462514 heartbeat IPC: 1.28758 cumulative IPC: 1.28244 (Simulation time: 6 hr 20 min 15 sec) 
Heartbeat CPU 0 instructions: 150000000 cycles: 99245998 heartbeat IPC: 1.27635 cumulative IPC: 1.28238 (Simulation time: 6 hr 22 min 10 sec) 
Finished CPU 0 instructions: 100000003 cycles: 77980019 cummulative IPC: 1.28238 (Simulation time: 6 hr 22 min 10 sec) 

ChampSim completed all CPUs

Region of Interest Statistics

CPU 0 cummulative IPC: 1.28238 instructions: 100000003 cycles: 77980019
LLC TOTAL     ACCESS:     381303  HIT:      18199  MISS:     363104
LLC LOAD      ACCESS:      29498  HIT:        267  MISS:      29231
LLC RFO       ACCESS:          0  HIT:          0  MISS:          0
LLC PREFETCH  ACCESS:     288047  HIT:       3359  MISS:     284688
LLC WRITEBACK ACCESS:      63758  HIT:      14573  MISS:      49185
