
*** ChampSim Multicore Out-of-Order Simulator ***

Warmup Instructions: 50000000
Simulation Instructions: 100000000
Configuration: 2
Number of CPUs: 1
LLC sets: 2048
LLC ways: 16
Off-chip DRAM Channels: 1 Width: 64-bit Data Rate: 1600 MT/s

CPU 0 runs /datasets/cs240c-wi22-a00-public/data/Assignment2-gz/milc_409B.trace.gz
CPU 0 L1D next line prefetcher
CPU 0 L2C IP-based stride prefetcher
Heartbeat CPU 0 instructions: 1000002 cycles: 407040 heartbeat IPC: 2.45677 cumulative IPC: 2.45677 (Simulation time: 0 hr 2 min 22 sec) 
Heartbeat CPU 0 instructions: 2000002 cycles: 889867 heartbeat IPC: 2.07114 cumulative IPC: 2.24753 (Simulation time: 0 hr 5 min 4 sec) 
Heartbeat CPU 0 instructions: 3000003 cycles: 1672034 heartbeat IPC: 1.2785 cumulative IPC: 1.79422 (Simulation time: 0 hr 9 min 14 sec) 
Heartbeat CPU 0 instructions: 4000000 cycles: 2454290 heartbeat IPC: 1.27835 cumulative IPC: 1.6298 (Simulation time: 0 hr 13 min 36 sec) 
Heartbeat CPU 0 instructions: 5000000 cycles: 3135411 heartbeat IPC: 1.46817 cumulative IPC: 1.59469 (Simulation time: 0 hr 16 min 50 sec) 
Heartbeat CPU 0 instructions: 6000003 cycles: 3679803 heartbeat IPC: 1.83692 cumulative IPC: 1.63052 (Simulation time: 0 hr 19 min 23 sec) 
Heartbeat CPU 0 instructions: 7000002 cycles: 4224109 heartbeat IPC: 1.8372 cumulative IPC: 1.65715 (Simulation time: 0 hr 22 min 12 sec) 
Heartbeat CPU 0 instructions: 8000000 cycles: 4768517 heartbeat IPC: 1.83685 cumulative IPC: 1.67767 (Simulation time: 0 hr 24 min 57 sec) 
Heartbeat CPU 0 instructions: 9000003 cycles: 5312843 heartbeat IPC: 1.83714 cumulative IPC: 1.69401 (Simulation time: 0 hr 28 min 4 sec) 
Heartbeat CPU 0 instructions: 10000000 cycles: 5857231 heartbeat IPC: 1.83692 cumulative IPC: 1.70729 (Simulation time: 0 hr 30 min 52 sec) 
Heartbeat CPU 0 instructions: 11000002 cycles: 6401581 heartbeat IPC: 1.83706 cumulative IPC: 1.71833 (Simulation time: 0 hr 33 min 50 sec) 
Heartbeat CPU 0 instructions: 12000000 cycles: 6945916 heartbeat IPC: 1.8371 cumulative IPC: 1.72763 (Simulation time: 0 hr 37 min 6 sec) 
Heartbeat CPU 0 instructions: 13000000 cycles: 7490304 heartbeat IPC: 1.83693 cumulative IPC: 1.73558 (Simulation time: 0 hr 39 min 23 sec) 
Heartbeat CPU 0 instructions: 14000002 cycles: 8034669 heartbeat IPC: 1.83701 cumulative IPC: 1.74245 (Simulation time: 0 hr 41 min 56 sec) 
Heartbeat CPU 0 instructions: 15000001 cycles: 8578996 heartbeat IPC: 1.83713 cumulative IPC: 1.74846 (Simulation time: 0 hr 44 min 24 sec) 
Heartbeat CPU 0 instructions: 16000000 cycles: 9123370 heartbeat IPC: 1.83697 cumulative IPC: 1.75374 (Simulation time: 0 hr 47 min 6 sec) 
Heartbeat CPU 0 instructions: 17000002 cycles: 9667736 heartbeat IPC: 1.837 cumulative IPC: 1.75843 (Simulation time: 0 hr 49 min 49 sec) 
Heartbeat CPU 0 instructions: 18000000 cycles: 10212106 heartbeat IPC: 1.83698 cumulative IPC: 1.76261 (Simulation time: 0 hr 52 min 46 sec) 
Heartbeat CPU 0 instructions: 19000003 cycles: 10756426 heartbeat IPC: 1.83716 cumulative IPC: 1.76639 (Simulation time: 0 hr 55 min 21 sec) 
Heartbeat CPU 0 instructions: 20000000 cycles: 11300830 heartbeat IPC: 1.83687 cumulative IPC: 1.76978 (Simulation time: 0 hr 57 min 46 sec) 
Heartbeat CPU 0 instructions: 21000001 cycles: 11845160 heartbeat IPC: 1.83712 cumulative IPC: 1.77288 (Simulation time: 1 hr 0 min 23 sec) 
Heartbeat CPU 0 instructions: 22000003 cycles: 12389527 heartbeat IPC: 1.837 cumulative IPC: 1.77569 (Simulation time: 1 hr 3 min 9 sec) 
Heartbeat CPU 0 instructions: 23000002 cycles: 12933912 heartbeat IPC: 1.83693 cumulative IPC: 1.77827 (Simulation time: 1 hr 6 min 1 sec) 
Heartbeat CPU 0 instructions: 24000000 cycles: 13478219 heartbeat IPC: 1.83719 cumulative IPC: 1.78065 (Simulation time: 1 hr 8 min 42 sec) 
Heartbeat CPU 0 instructions: 25000000 cycles: 14022615 heartbeat IPC: 1.8369 cumulative IPC: 1.78283 (Simulation time: 1 hr 11 min 23 sec) 
Heartbeat CPU 0 instructions: 26000000 cycles: 14566989 heartbeat IPC: 1.83697 cumulative IPC: 1.78486 (Simulation time: 1 hr 14 min 40 sec) 
Heartbeat CPU 0 instructions: 27000002 cycles: 15111311 heartbeat IPC: 1.83715 cumulative IPC: 1.78674 (Simulation time: 1 hr 18 min 3 sec) 
Heartbeat CPU 0 instructions: 28000000 cycles: 15655446 heartbeat IPC: 1.83778 cumulative IPC: 1.78851 (Simulation time: 1 hr 20 min 44 sec) 
Heartbeat CPU 0 instructions: 29000000 cycles: 16196636 heartbeat IPC: 1.84778 cumulative IPC: 1.7905 (Simulation time: 1 hr 23 min 24 sec) 
Heartbeat CPU 0 instructions: 30000000 cycles: 16737801 heartbeat IPC: 1.84787 cumulative IPC: 1.79235 (Simulation time: 1 hr 26 min 6 sec) 
Heartbeat CPU 0 instructions: 31000003 cycles: 17278972 heartbeat IPC: 1.84785 cumulative IPC: 1.79409 (Simulation time: 1 hr 28 min 46 sec) 
Heartbeat CPU 0 instructions: 32000000 cycles: 17820132 heartbeat IPC: 1.84788 cumulative IPC: 1.79572 (Simulation time: 1 hr 31 min 13 sec) 
Heartbeat CPU 0 instructions: 33000000 cycles: 18361310 heartbeat IPC: 1.84782 cumulative IPC: 1.79726 (Simulation time: 1 hr 33 min 43 sec) 
Heartbeat CPU 0 instructions: 34000000 cycles: 18902452 heartbeat IPC: 1.84794 cumulative IPC: 1.79871 (Simulation time: 1 hr 36 min 13 sec) 
Heartbeat CPU 0 instructions: 35000000 cycles: 19443595 heartbeat IPC: 1.84794 cumulative IPC: 1.80008 (Simulation time: 1 hr 38 min 37 sec) 
Heartbeat CPU 0 instructions: 36000000 cycles: 19984729 heartbeat IPC: 1.84797 cumulative IPC: 1.80138 (Simulation time: 1 hr 41 min 12 sec) 
Heartbeat CPU 0 instructions: 37000000 cycles: 20525941 heartbeat IPC: 1.8477 cumulative IPC: 1.8026 (Simulation time: 1 hr 43 min 48 sec) 
Heartbeat CPU 0 instructions: 38000001 cycles: 21067088 heartbeat IPC: 1.84793 cumulative IPC: 1.80376 (Simulation time: 1 hr 46 min 4 sec) 
Heartbeat CPU 0 instructions: 39000001 cycles: 21608244 heartbeat IPC: 1.8479 cumulative IPC: 1.80487 (Simulation time: 1 hr 48 min 27 sec) 
Heartbeat CPU 0 instructions: 40000000 cycles: 22149432 heartbeat IPC: 1.84778 cumulative IPC: 1.80592 (Simulation time: 1 hr 51 min 0 sec) 
Heartbeat CPU 0 instructions: 41000002 cycles: 22690597 heartbeat IPC: 1.84787 cumulative IPC: 1.80692 (Simulation time: 1 hr 53 min 40 sec) 
Heartbeat CPU 0 instructions: 42000001 cycles: 23231758 heartbeat IPC: 1.84788 cumulative IPC: 1.80787 (Simulation time: 1 hr 56 min 4 sec) 
Heartbeat CPU 0 instructions: 43000000 cycles: 23772901 heartbeat IPC: 1.84794 cumulative IPC: 1.80878 (Simulation time: 1 hr 58 min 40 sec) 
Heartbeat CPU 0 instructions: 44000000 cycles: 24314027 heartbeat IPC: 1.848 cumulative IPC: 1.80965 (Simulation time: 2 hr 1 min 19 sec) 
Heartbeat CPU 0 instructions: 45000001 cycles: 24855216 heartbeat IPC: 1.84779 cumulative IPC: 1.81049 (Simulation time: 2 hr 3 min 49 sec) 
Heartbeat CPU 0 instructions: 46000000 cycles: 25396379 heartbeat IPC: 1.84787 cumulative IPC: 1.81128 (Simulation time: 2 hr 6 min 4 sec) 
Heartbeat CPU 0 instructions: 47000002 cycles: 25937546 heartbeat IPC: 1.84786 cumulative IPC: 1.81205 (Simulation time: 2 hr 8 min 31 sec) 
Heartbeat CPU 0 instructions: 48000000 cycles: 26478710 heartbeat IPC: 1.84786 cumulative IPC: 1.81278 (Simulation time: 2 hr 10 min 49 sec) 
Heartbeat CPU 0 instructions: 49000002 cycles: 27019889 heartbeat IPC: 1.84782 cumulative IPC: 1.81348 (Simulation time: 2 hr 13 min 21 sec) 
Heartbeat CPU 0 instructions: 50000001 cycles: 27561032 heartbeat IPC: 1.84794 cumulative IPC: 1.81416 (Simulation time: 2 hr 16 min 8 sec) 

Warmup complete CPU 0 instructions: 50000001 cycles: 27561032 (Simulation time: 2 hr 16 min 8 sec) 

Heartbeat CPU 0 instructions: 51000002 cycles: 29239651 heartbeat IPC: 0.595728 cumulative IPC: 0.595728 (Simulation time: 2 hr 18 min 42 sec) 
Heartbeat CPU 0 instructions: 52000000 cycles: 31061933 heartbeat IPC: 0.548761 cumulative IPC: 0.571281 (Simulation time: 2 hr 21 min 32 sec) 
Heartbeat CPU 0 instructions: 53000001 cycles: 33076566 heartbeat IPC: 0.496369 cumulative IPC: 0.543918 (Simulation time: 2 hr 24 min 28 sec) 
Heartbeat CPU 0 instructions: 54000001 cycles: 35287936 heartbeat IPC: 0.452208 cumulative IPC: 0.517672 (Simulation time: 2 hr 28 min 0 sec) 
Heartbeat CPU 0 instructions: 55000002 cycles: 37566321 heartbeat IPC: 0.438908 cumulative IPC: 0.499736 (Simulation time: 2 hr 31 min 22 sec) 
Heartbeat CPU 0 instructions: 56000000 cycles: 39845858 heartbeat IPC: 0.438685 cumulative IPC: 0.488407 (Simulation time: 2 hr 34 min 50 sec) 
Heartbeat CPU 0 instructions: 57000000 cycles: 42133994 heartbeat IPC: 0.437037 cumulative IPC: 0.480342 (Simulation time: 2 hr 37 min 50 sec) 
Heartbeat CPU 0 instructions: 58000002 cycles: 44370824 heartbeat IPC: 0.447062 cumulative IPC: 0.475913 (Simulation time: 2 hr 40 min 56 sec) 
Heartbeat CPU 0 instructions: 59000001 cycles: 46180674 heartbeat IPC: 0.552531 cumulative IPC: 0.483361 (Simulation time: 2 hr 43 min 18 sec) 
Heartbeat CPU 0 instructions: 60000000 cycles: 47880037 heartbeat IPC: 0.588455 cumulative IPC: 0.49215 (Simulation time: 2 hr 45 min 55 sec) 
Heartbeat CPU 0 instructions: 61000000 cycles: 49578087 heartbeat IPC: 0.588911 cumulative IPC: 0.499613 (Simulation time: 2 hr 48 min 39 sec) 
Heartbeat CPU 0 instructions: 62000000 cycles: 51270807 heartbeat IPC: 0.590765 cumulative IPC: 0.50612 (Simulation time: 2 hr 51 min 14 sec) 
Heartbeat CPU 0 instructions: 63000003 cycles: 52964653 heartbeat IPC: 0.590374 cumulative IPC: 0.511738 (Simulation time: 2 hr 53 min 45 sec) 
Heartbeat CPU 0 instructions: 64000000 cycles: 54658835 heartbeat IPC: 0.590254 cumulative IPC: 0.516647 (Simulation time: 2 hr 55 min 59 sec) 
Heartbeat CPU 0 instructions: 65000002 cycles: 56360358 heartbeat IPC: 0.58771 cumulative IPC: 0.520846 (Simulation time: 2 hr 59 min 30 sec) 
Heartbeat CPU 0 instructions: 66000002 cycles: 58053978 heartbeat IPC: 0.590451 cumulative IPC: 0.524712 (Simulation time: 3 hr 2 min 48 sec) 
Heartbeat CPU 0 instructions: 67000001 cycles: 59745499 heartbeat IPC: 0.591183 cumulative IPC: 0.528205 (Simulation time: 3 hr 5 min 33 sec) 
Heartbeat CPU 0 instructions: 68000000 cycles: 61436335 heartbeat IPC: 0.591423 cumulative IPC: 0.531361 (Simulation time: 3 hr 8 min 35 sec) 
Heartbeat CPU 0 instructions: 69000000 cycles: 63131073 heartbeat IPC: 0.590062 cumulative IPC: 0.534157 (Simulation time: 3 hr 11 min 58 sec) 
Heartbeat CPU 0 instructions: 70000000 cycles: 64826631 heartbeat IPC: 0.589776 cumulative IPC: 0.536688 (Simulation time: 3 hr 15 min 18 sec) 
Heartbeat CPU 0 instructions: 71000002 cycles: 66514826 heartbeat IPC: 0.59235 cumulative IPC: 0.5391 (Simulation time: 3 hr 18 min 13 sec) 
Heartbeat CPU 0 instructions: 72000000 cycles: 68207781 heartbeat IPC: 0.590682 cumulative IPC: 0.541249 (Simulation time: 3 hr 20 min 32 sec) 
Heartbeat CPU 0 instructions: 73000003 cycles: 69899570 heartbeat IPC: 0.591092 cumulative IPC: 0.54324 (Simulation time: 3 hr 23 min 14 sec) 
Heartbeat CPU 0 instructions: 74000002 cycles: 71588467 heartbeat IPC: 0.592102 cumulative IPC: 0.545115 (Simulation time: 3 hr 27 min 24 sec) 
Heartbeat CPU 0 instructions: 75000002 cycles: 73281084 heartbeat IPC: 0.590801 cumulative IPC: 0.546806 (Simulation time: 3 hr 29 min 53 sec) 
Heartbeat CPU 0 instructions: 76000000 cycles: 74970749 heartbeat IPC: 0.591832 cumulative IPC: 0.548411 (Simulation time: 3 hr 33 min 22 sec) 
Heartbeat CPU 0 instructions: 77000003 cycles: 76661028 heartbeat IPC: 0.59162 cumulative IPC: 0.549898 (Simulation time: 3 hr 36 min 1 sec) 
Heartbeat CPU 0 instructions: 78000000 cycles: 78351459 heartbeat IPC: 0.591563 cumulative IPC: 0.551285 (Simulation time: 3 hr 40 min 6 sec) 
Heartbeat CPU 0 instructions: 79000000 cycles: 80042908 heartbeat IPC: 0.591209 cumulative IPC: 0.552572 (Simulation time: 3 hr 42 min 48 sec) 
Heartbeat CPU 0 instructions: 80000000 cycles: 81727997 heartbeat IPC: 0.59344 cumulative IPC: 0.553843 (Simulation time: 3 hr 46 min 25 sec) 
Heartbeat CPU 0 instructions: 81000000 cycles: 83422224 heartbeat IPC: 0.59024 cumulative IPC: 0.554947 (Simulation time: 3 hr 49 min 6 sec) 
Heartbeat CPU 0 instructions: 82000002 cycles: 85106634 heartbeat IPC: 0.593681 cumulative IPC: 0.556081 (Simulation time: 3 hr 52 min 2 sec) 
Heartbeat CPU 0 instructions: 83000003 cycles: 86791109 heartbeat IPC: 0.593657 cumulative IPC: 0.557149 (Simulation time: 3 hr 54 min 58 sec) 
Heartbeat CPU 0 instructions: 84000000 cycles: 88474816 heartbeat IPC: 0.593926 cumulative IPC: 0.558166 (Simulation time: 3 hr 57 min 46 sec) 
Heartbeat CPU 0 instructions: 85000001 cycles: 90163226 heartbeat IPC: 0.592274 cumulative IPC: 0.559086 (Simulation time: 4 hr 0 min 41 sec) 
Heartbeat CPU 0 instructions: 86000002 cycles: 91849273 heartbeat IPC: 0.593104 cumulative IPC: 0.559978 (Simulation time: 4 hr 3 min 48 sec) 
Heartbeat CPU 0 instructions: 87000003 cycles: 93537046 heartbeat IPC: 0.592497 cumulative IPC: 0.56081 (Simulation time: 4 hr 7 min 3 sec) 
Heartbeat CPU 0 instructions: 88000000 cycles: 95221870 heartbeat IPC: 0.593532 cumulative IPC: 0.561625 (Simulation time: 4 hr 10 min 11 sec) 
Heartbeat CPU 0 instructions: 89000001 cycles: 96908009 heartbeat IPC: 0.593072 cumulative IPC: 0.562389 (Simulation time: 4 hr 12 min 50 sec) 
Heartbeat CPU 0 instructions: 90000002 cycles: 98595904 heartbeat IPC: 0.592454 cumulative IPC: 0.563104 (Simulation time: 4 hr 15 min 30 sec) 
Heartbeat CPU 0 instructions: 91000000 cycles: 100282485 heartbeat IPC: 0.592914 cumulative IPC: 0.563795 (Simulation time: 4 hr 18 min 38 sec) 
Heartbeat CPU 0 instructions: 92000000 cycles: 101967400 heartbeat IPC: 0.593502 cumulative IPC: 0.564468 (Simulation time: 4 hr 21 min 54 sec) 
Heartbeat CPU 0 instructions: 93000003 cycles: 103652933 heartbeat IPC: 0.593286 cumulative IPC: 0.565106 (Simulation time: 4 hr 24 min 43 sec) 
Heartbeat CPU 0 instructions: 94000002 cycles: 105335267 heartbeat IPC: 0.594412 cumulative IPC: 0.56574 (Simulation time: 4 hr 27 min 18 sec) 
Heartbeat CPU 0 instructions: 95000003 cycles: 107015640 heartbeat IPC: 0.595107 cumulative IPC: 0.566361 (Simulation time: 4 hr 29 min 44 sec) 
Heartbeat CPU 0 instructions: 96000000 cycles: 108698542 heartbeat IPC: 0.59421 cumulative IPC: 0.566939 (Simulation time: 4 hr 32 min 19 sec) 
Heartbeat CPU 0 instructions: 97000001 cycles: 110383158 heartbeat IPC: 0.593608 cumulative IPC: 0.567481 (Simulation time: 4 hr 35 min 24 sec) 
Heartbeat CPU 0 instructions: 98000002 cycles: 112068138 heartbeat IPC: 0.593479 cumulative IPC: 0.568 (Simulation time: 4 hr 37 min 58 sec) 
Heartbeat CPU 0 instructions: 99000003 cycles: 113755235 heartbeat IPC: 0.592735 cumulative IPC: 0.568484 (Simulation time: 4 hr 40 min 49 sec) 
Heartbeat CPU 0 instructions: 100000000 cycles: 115436176 heartbeat IPC: 0.594903 cumulative IPC: 0.568989 (Simulation time: 4 hr 43 min 21 sec) 
Heartbeat CPU 0 instructions: 101000001 cycles: 117115441 heartbeat IPC: 0.595499 cumulative IPC: 0.569486 (Simulation time: 4 hr 45 min 41 sec) 
Heartbeat CPU 0 instructions: 102000002 cycles: 118798013 heartbeat IPC: 0.594329 cumulative IPC: 0.569944 (Simulation time: 4 hr 48 min 14 sec) 
Heartbeat CPU 0 instructions: 103000000 cycles: 120483701 heartbeat IPC: 0.593228 cumulative IPC: 0.570367 (Simulation time: 4 hr 51 min 22 sec) 
Heartbeat CPU 0 instructions: 104000000 cycles: 122163427 heartbeat IPC: 0.595335 cumulative IPC: 0.57081 (Simulation time: 4 hr 54 min 29 sec) 
Heartbeat CPU 0 instructions: 105000003 cycles: 123982748 heartbeat IPC: 0.549657 cumulative IPC: 0.570411 (Simulation time: 4 hr 57 min 51 sec) 
Heartbeat CPU 0 instructions: 106000003 cycles: 128220680 heartbeat IPC: 0.235964 cumulative IPC: 0.55633 (Simulation time: 5 hr 4 min 34 sec) 
Heartbeat CPU 0 instructions: 107000000 cycles: 130026412 heartbeat IPC: 0.55379 cumulative IPC: 0.556285 (Simulation time: 5 hr 7 min 38 sec) 
Heartbeat CPU 0 instructions: 108000000 cycles: 131818915 heartbeat IPC: 0.557879 cumulative IPC: 0.556313 (Simulation time: 5 hr 10 min 21 sec) 
Heartbeat CPU 0 instructions: 109000001 cycles: 133619038 heartbeat IPC: 0.555518 cumulative IPC: 0.556299 (Simulation time: 5 hr 12 min 53 sec) 
Heartbeat CPU 0 instructions: 110000001 cycles: 135407598 heartbeat IPC: 0.559109 cumulative IPC: 0.556346 (Simulation time: 5 hr 15 min 30 sec) 
Heartbeat CPU 0 instructions: 111000000 cycles: 137192824 heartbeat IPC: 0.560153 cumulative IPC: 0.556408 (Simulation time: 5 hr 17 min 48 sec) 
Heartbeat CPU 0 instructions: 112000000 cycles: 138981032 heartbeat IPC: 0.559219 cumulative IPC: 0.556453 (Simulation time: 5 hr 20 min 31 sec) 
Heartbeat CPU 0 instructions: 113000003 cycles: 140766138 heartbeat IPC: 0.560193 cumulative IPC: 0.556512 (Simulation time: 5 hr 23 min 0 sec) 
Heartbeat CPU 0 instructions: 114000003 cycles: 142549550 heartbeat IPC: 0.560723 cumulative IPC: 0.556577 (Simulation time: 5 hr 25 min 40 sec) 
Heartbeat CPU 0 instructions: 115000001 cycles: 144332520 heartbeat IPC: 0.560861 cumulative IPC: 0.556643 (Simulation time: 5 hr 28 min 40 sec) 
Heartbeat CPU 0 instructions: 116000000 cycles: 146117325 heartbeat IPC: 0.560285 cumulative IPC: 0.556698 (Simulation time: 5 hr 31 min 43 sec) 
Heartbeat CPU 0 instructions: 117000001 cycles: 147900896 heartbeat IPC: 0.560673 cumulative IPC: 0.556756 (Simulation time: 5 hr 34 min 2 sec) 
Heartbeat CPU 0 instructions: 118000003 cycles: 149686787 heartbeat IPC: 0.559946 cumulative IPC: 0.556803 (Simulation time: 5 hr 36 min 54 sec) 
Heartbeat CPU 0 instructions: 119000001 cycles: 151466691 heartbeat IPC: 0.561827 cumulative IPC: 0.556875 (Simulation time: 5 hr 38 min 58 sec) 
Heartbeat CPU 0 instructions: 120000000 cycles: 153248990 heartbeat IPC: 0.561073 cumulative IPC: 0.556935 (Simulation time: 5 hr 41 min 28 sec) 
Heartbeat CPU 0 instructions: 121000003 cycles: 155030257 heartbeat IPC: 0.5614 cumulative IPC: 0.556997 (Simulation time: 5 hr 43 min 42 sec) 
Heartbeat CPU 0 instructions: 122000001 cycles: 156816192 heartbeat IPC: 0.55993 cumulative IPC: 0.557038 (Simulation time: 5 hr 46 min 0 sec) 
Heartbeat CPU 0 instructions: 123000003 cycles: 158601851 heartbeat IPC: 0.560018 cumulative IPC: 0.557078 (Simulation time: 5 hr 48 min 42 sec) 
Heartbeat CPU 0 instructions: 124000000 cycles: 160386703 heartbeat IPC: 0.560269 cumulative IPC: 0.557121 (Simulation time: 5 hr 51 min 16 sec) 
Heartbeat CPU 0 instructions: 125000003 cycles: 162170146 heartbeat IPC: 0.560715 cumulative IPC: 0.557169 (Simulation time: 5 hr 53 min 19 sec) 
Heartbeat CPU 0 instructions: 126000000 cycles: 163951947 heartbeat IPC: 0.561228 cumulative IPC: 0.557222 (Simulation time: 5 hr 55 min 35 sec) 
Heartbeat CPU 0 instructions: 127000001 cycles: 165739872 heartbeat IPC: 0.559308 cumulative IPC: 0.557249 (Simulation time: 5 hr 58 min 18 sec) 
Heartbeat CPU 0 instructions: 128000000 cycles: 167523208 heartbeat IPC: 0.560746 cumulative IPC: 0.557293 (Simulation time: 6 hr 0 min 34 sec) 
Heartbeat CPU 0 instructions: 129000001 cycles: 169309149 heartbeat IPC: 0.559929 cumulative IPC: 0.557327 (Simulation time: 6 hr 2 min 42 sec) 
Heartbeat CPU 0 instructions: 130000000 cycles: 171096119 heartbeat IPC: 0.559606 cumulative IPC: 0.557355 (Simulation time: 6 hr 4 min 51 sec) 
Heartbeat CPU 0 instructions: 131000001 cycles: 172885987 heartbeat IPC: 0.558701 cumulative IPC: 0.557372 (Simulation time: 6 hr 7 min 4 sec) 
Heartbeat CPU 0 instructions: 132000000 cycles: 174672709 heartbeat IPC: 0.559684 cumulative IPC: 0.5574 (Simulation time: 6 hr 9 min 39 sec) 
Heartbeat CPU 0 instructions: 133000003 cycles: 176462157 heartbeat IPC: 0.558833 cumulative IPC: 0.557417 (Simulation time: 6 hr 11 min 55 sec) 
Heartbeat CPU 0 instructions: 134000001 cycles: 178246513 heartbeat IPC: 0.560425 cumulative IPC: 0.557452 (Simulation time: 6 hr 14 min 11 sec) 
Heartbeat CPU 0 instructions: 135000003 cycles: 180035289 heartbeat IPC: 0.559043 cumulative IPC: 0.557471 (Simulation time: 6 hr 16 min 24 sec) 
Heartbeat CPU 0 instructions: 136000000 cycles: 181819158 heartbeat IPC: 0.560578 cumulative IPC: 0.557507 (Simulation time: 6 hr 18 min 39 sec) 
Heartbeat CPU 0 instructions: 137000001 cycles: 183055618 heartbeat IPC: 0.808761 cumulative IPC: 0.559505 (Simulation time: 6 hr 21 min 6 sec) 
Heartbeat CPU 0 instructions: 138000000 cycles: 184764557 heartbeat IPC: 0.585158 cumulative IPC: 0.559784 (Simulation time: 6 hr 24 min 4 sec) 
Heartbeat CPU 0 instructions: 139000002 cycles: 187983759 heartbeat IPC: 0.310637 cumulative IPC: 0.554784 (Simulation time: 6 hr 28 min 33 sec) 
Heartbeat CPU 0 instructions: 140000000 cycles: 191230127 heartbeat IPC: 0.308036 cumulative IPC: 0.54989 (Simulation time: 6 hr 32 min 40 sec) 
Heartbeat CPU 0 instructions: 141000003 cycles: 195379811 heartbeat IPC: 0.240983 cumulative IPC: 0.542252 (Simulation time: 6 hr 37 min 34 sec) 
Heartbeat CPU 0 instructions: 142000003 cycles: 198242084 heartbeat IPC: 0.349373 cumulative IPC: 0.539017 (Simulation time: 6 hr 40 min 21 sec) 
Heartbeat CPU 0 instructions: 143000001 cycles: 200080592 heartbeat IPC: 0.543918 cumulative IPC: 0.539069 (Simulation time: 6 hr 41 min 58 sec) 
Heartbeat CPU 0 instructions: 144000000 cycles: 201916634 heartbeat IPC: 0.544649 cumulative IPC: 0.539128 (Simulation time: 6 hr 43 min 28 sec) 
Heartbeat CPU 0 instructions: 145000001 cycles: 203746127 heartbeat IPC: 0.5466 cumulative IPC: 0.539206 (Simulation time: 6 hr 44 min 53 sec) 
Heartbeat CPU 0 instructions: 146000003 cycles: 205576613 heartbeat IPC: 0.546304 cumulative IPC: 0.539279 (Simulation time: 6 hr 46 min 17 sec) 
Heartbeat CPU 0 instructions: 147000003 cycles: 207400840 heartbeat IPC: 0.548177 cumulative IPC: 0.539369 (Simulation time: 6 hr 47 min 43 sec) 
Heartbeat CPU 0 instructions: 148000000 cycles: 209230627 heartbeat IPC: 0.54651 cumulative IPC: 0.539441 (Simulation time: 6 hr 49 min 8 sec) 
Heartbeat CPU 0 instructions: 149000003 cycles: 211057000 heartbeat IPC: 0.547535 cumulative IPC: 0.539521 (Simulation time: 6 hr 50 min 36 sec) 
Heartbeat CPU 0 instructions: 150000003 cycles: 212884125 heartbeat IPC: 0.547308 cumulative IPC: 0.539598 (Simulation time: 6 hr 51 min 57 sec) 
Finished CPU 0 instructions: 100000002 cycles: 185323093 cummulative IPC: 0.539598 (Simulation time: 6 hr 51 min 57 sec) 

ChampSim completed all CPUs

Region of Interest Statistics

CPU 0 cummulative IPC: 0.539598 instructions: 100000002 cycles: 185323093
LLC TOTAL     ACCESS:    3966228  HIT:     222139  MISS:    3744089
LLC LOAD      ACCESS:    1062159  HIT:       4844  MISS:    1057315
LLC RFO       ACCESS:     534380  HIT:       6183  MISS:     528197
LLC PREFETCH  ACCESS:    1386948  HIT:      20118  MISS:    1366830
LLC WRITEBACK ACCESS:     982741  HIT:     190994  MISS:     791747
