
*** ChampSim Multicore Out-of-Order Simulator ***

Warmup Instructions: 50000000
Simulation Instructions: 100000000
Configuration: 2
Number of CPUs: 1
LLC sets: 2048
LLC ways: 16
Off-chip DRAM Channels: 1 Width: 64-bit Data Rate: 1600 MT/s

CPU 0 runs /datasets/cs240c-wi22-a00-public/data/Assignment2-gz/leslie3d_1186B.trace.gz
CPU 0 L1D next line prefetcher
CPU 0 L2C IP-based stride prefetcher
Heartbeat CPU 0 instructions: 1000002 cycles: 564510 heartbeat IPC: 1.77145 cumulative IPC: 1.77145 (Simulation time: 0 hr 2 min 50 sec) 
Heartbeat CPU 0 instructions: 2000000 cycles: 1215803 heartbeat IPC: 1.5354 cumulative IPC: 1.645 (Simulation time: 0 hr 6 min 11 sec) 
Heartbeat CPU 0 instructions: 3000000 cycles: 1867520 heartbeat IPC: 1.53441 cumulative IPC: 1.60641 (Simulation time: 0 hr 9 min 9 sec) 
Heartbeat CPU 0 instructions: 4000000 cycles: 2473052 heartbeat IPC: 1.65144 cumulative IPC: 1.61743 (Simulation time: 0 hr 12 min 37 sec) 
Heartbeat CPU 0 instructions: 5000000 cycles: 3083368 heartbeat IPC: 1.6385 cumulative IPC: 1.6216 (Simulation time: 0 hr 15 min 50 sec) 
Heartbeat CPU 0 instructions: 6000000 cycles: 3735074 heartbeat IPC: 1.53443 cumulative IPC: 1.60639 (Simulation time: 0 hr 18 min 49 sec) 
Heartbeat CPU 0 instructions: 7000001 cycles: 4386316 heartbeat IPC: 1.53553 cumulative IPC: 1.59587 (Simulation time: 0 hr 21 min 48 sec) 
Heartbeat CPU 0 instructions: 8000000 cycles: 4950902 heartbeat IPC: 1.77121 cumulative IPC: 1.61587 (Simulation time: 0 hr 24 min 42 sec) 
Heartbeat CPU 0 instructions: 9000003 cycles: 5602182 heartbeat IPC: 1.53544 cumulative IPC: 1.60652 (Simulation time: 0 hr 27 min 51 sec) 
Heartbeat CPU 0 instructions: 10000001 cycles: 6253360 heartbeat IPC: 1.53568 cumulative IPC: 1.59914 (Simulation time: 0 hr 31 min 17 sec) 
Heartbeat CPU 0 instructions: 11000000 cycles: 6820142 heartbeat IPC: 1.76435 cumulative IPC: 1.61287 (Simulation time: 0 hr 34 min 4 sec) 
Heartbeat CPU 0 instructions: 12000000 cycles: 7469192 heartbeat IPC: 1.54071 cumulative IPC: 1.6066 (Simulation time: 0 hr 36 min 56 sec) 
Heartbeat CPU 0 instructions: 13000002 cycles: 8120676 heartbeat IPC: 1.53496 cumulative IPC: 1.60085 (Simulation time: 0 hr 39 min 34 sec) 
Heartbeat CPU 0 instructions: 14000000 cycles: 8755068 heartbeat IPC: 1.57631 cumulative IPC: 1.59907 (Simulation time: 0 hr 42 min 22 sec) 
Heartbeat CPU 0 instructions: 15000000 cycles: 9336118 heartbeat IPC: 1.72102 cumulative IPC: 1.60666 (Simulation time: 0 hr 45 min 24 sec) 
Heartbeat CPU 0 instructions: 16000000 cycles: 9987683 heartbeat IPC: 1.53477 cumulative IPC: 1.60197 (Simulation time: 0 hr 48 min 20 sec) 
Heartbeat CPU 0 instructions: 17000000 cycles: 10638741 heartbeat IPC: 1.53596 cumulative IPC: 1.59793 (Simulation time: 0 hr 51 min 15 sec) 
Heartbeat CPU 0 instructions: 18000003 cycles: 11203222 heartbeat IPC: 1.77154 cumulative IPC: 1.60668 (Simulation time: 0 hr 53 min 59 sec) 
Heartbeat CPU 0 instructions: 19000003 cycles: 11854514 heartbeat IPC: 1.53541 cumulative IPC: 1.60277 (Simulation time: 0 hr 56 min 51 sec) 
Heartbeat CPU 0 instructions: 20000000 cycles: 12505667 heartbeat IPC: 1.53573 cumulative IPC: 1.59927 (Simulation time: 0 hr 59 min 48 sec) 
Heartbeat CPU 0 instructions: 21000001 cycles: 13101302 heartbeat IPC: 1.67888 cumulative IPC: 1.60289 (Simulation time: 1 hr 3 min 6 sec) 
Heartbeat CPU 0 instructions: 22000003 cycles: 13721261 heartbeat IPC: 1.61301 cumulative IPC: 1.60335 (Simulation time: 1 hr 5 min 52 sec) 
Heartbeat CPU 0 instructions: 23000001 cycles: 14372376 heartbeat IPC: 1.53582 cumulative IPC: 1.60029 (Simulation time: 1 hr 8 min 38 sec) 
Heartbeat CPU 0 instructions: 24000000 cycles: 15023956 heartbeat IPC: 1.53473 cumulative IPC: 1.59745 (Simulation time: 1 hr 11 min 14 sec) 
Heartbeat CPU 0 instructions: 25000000 cycles: 15587989 heartbeat IPC: 1.77295 cumulative IPC: 1.6038 (Simulation time: 1 hr 13 min 55 sec) 
Heartbeat CPU 0 instructions: 26000003 cycles: 16239930 heartbeat IPC: 1.53389 cumulative IPC: 1.60099 (Simulation time: 1 hr 17 min 6 sec) 
Heartbeat CPU 0 instructions: 27000000 cycles: 16891540 heartbeat IPC: 1.53466 cumulative IPC: 1.59843 (Simulation time: 1 hr 19 min 58 sec) 
Heartbeat CPU 0 instructions: 28000000 cycles: 17455660 heartbeat IPC: 1.77267 cumulative IPC: 1.60406 (Simulation time: 1 hr 22 min 46 sec) 
Heartbeat CPU 0 instructions: 29000002 cycles: 18107096 heartbeat IPC: 1.53507 cumulative IPC: 1.60158 (Simulation time: 1 hr 25 min 39 sec) 
Heartbeat CPU 0 instructions: 30000002 cycles: 18758427 heartbeat IPC: 1.53532 cumulative IPC: 1.59928 (Simulation time: 1 hr 28 min 29 sec) 
Heartbeat CPU 0 instructions: 31000002 cycles: 19382465 heartbeat IPC: 1.60247 cumulative IPC: 1.59938 (Simulation time: 1 hr 31 min 41 sec) 
Heartbeat CPU 0 instructions: 32000000 cycles: 19973941 heartbeat IPC: 1.69068 cumulative IPC: 1.60209 (Simulation time: 1 hr 34 min 27 sec) 
Heartbeat CPU 0 instructions: 33000000 cycles: 20625495 heartbeat IPC: 1.53479 cumulative IPC: 1.59996 (Simulation time: 1 hr 37 min 4 sec) 
Heartbeat CPU 0 instructions: 34000000 cycles: 21277512 heartbeat IPC: 1.5337 cumulative IPC: 1.59793 (Simulation time: 1 hr 39 min 38 sec) 
Heartbeat CPU 0 instructions: 35000000 cycles: 21841750 heartbeat IPC: 1.7723 cumulative IPC: 1.60244 (Simulation time: 1 hr 42 min 29 sec) 
Heartbeat CPU 0 instructions: 36000000 cycles: 22493302 heartbeat IPC: 1.5348 cumulative IPC: 1.60048 (Simulation time: 1 hr 45 min 7 sec) 
Heartbeat CPU 0 instructions: 37000003 cycles: 23144990 heartbeat IPC: 1.53448 cumulative IPC: 1.59862 (Simulation time: 1 hr 47 min 52 sec) 
Heartbeat CPU 0 instructions: 38000002 cycles: 23730660 heartbeat IPC: 1.70744 cumulative IPC: 1.6013 (Simulation time: 1 hr 50 min 34 sec) 
Heartbeat CPU 0 instructions: 39000000 cycles: 24360863 heartbeat IPC: 1.58679 cumulative IPC: 1.60093 (Simulation time: 1 hr 52 min 46 sec) 
Heartbeat CPU 0 instructions: 40000000 cycles: 25012660 heartbeat IPC: 1.53422 cumulative IPC: 1.59919 (Simulation time: 1 hr 55 min 20 sec) 
Heartbeat CPU 0 instructions: 41000000 cycles: 25663632 heartbeat IPC: 1.53616 cumulative IPC: 1.59759 (Simulation time: 1 hr 57 min 36 sec) 
Heartbeat CPU 0 instructions: 42000000 cycles: 26228436 heartbeat IPC: 1.77053 cumulative IPC: 1.60132 (Simulation time: 2 hr 0 min 29 sec) 
Heartbeat CPU 0 instructions: 43000002 cycles: 26879525 heartbeat IPC: 1.53589 cumulative IPC: 1.59973 (Simulation time: 2 hr 3 min 32 sec) 
Heartbeat CPU 0 instructions: 44000000 cycles: 27531038 heartbeat IPC: 1.53489 cumulative IPC: 1.5982 (Simulation time: 2 hr 6 min 24 sec) 
Heartbeat CPU 0 instructions: 45000001 cycles: 28090150 heartbeat IPC: 1.78855 cumulative IPC: 1.60199 (Simulation time: 2 hr 9 min 0 sec) 
Heartbeat CPU 0 instructions: 46000001 cycles: 28590921 heartbeat IPC: 1.99692 cumulative IPC: 1.6089 (Simulation time: 2 hr 11 min 54 sec) 
Heartbeat CPU 0 instructions: 47000001 cycles: 29091646 heartbeat IPC: 1.9971 cumulative IPC: 1.61558 (Simulation time: 2 hr 15 min 22 sec) 
Heartbeat CPU 0 instructions: 48000000 cycles: 29592540 heartbeat IPC: 1.99643 cumulative IPC: 1.62203 (Simulation time: 2 hr 18 min 22 sec) 
Heartbeat CPU 0 instructions: 49000002 cycles: 30092944 heartbeat IPC: 1.99839 cumulative IPC: 1.62829 (Simulation time: 2 hr 21 min 5 sec) 
Heartbeat CPU 0 instructions: 50000001 cycles: 30593917 heartbeat IPC: 1.99611 cumulative IPC: 1.63431 (Simulation time: 2 hr 23 min 43 sec) 

Warmup complete CPU 0 instructions: 50000001 cycles: 30593917 (Simulation time: 2 hr 23 min 43 sec) 

Heartbeat CPU 0 instructions: 51000002 cycles: 32588848 heartbeat IPC: 0.501271 cumulative IPC: 0.501271 (Simulation time: 2 hr 27 min 38 sec) 
Heartbeat CPU 0 instructions: 52000000 cycles: 34557476 heartbeat IPC: 0.507967 cumulative IPC: 0.504597 (Simulation time: 2 hr 31 min 0 sec) 
Heartbeat CPU 0 instructions: 53000003 cycles: 36548642 heartbeat IPC: 0.50222 cumulative IPC: 0.503802 (Simulation time: 2 hr 34 min 40 sec) 
Heartbeat CPU 0 instructions: 54000003 cycles: 38547784 heartbeat IPC: 0.500215 cumulative IPC: 0.5029 (Simulation time: 2 hr 37 min 48 sec) 
Heartbeat CPU 0 instructions: 55000001 cycles: 40663737 heartbeat IPC: 0.472599 cumulative IPC: 0.496533 (Simulation time: 2 hr 41 min 3 sec) 
Heartbeat CPU 0 instructions: 56000000 cycles: 42987232 heartbeat IPC: 0.430386 cumulative IPC: 0.484132 (Simulation time: 2 hr 44 min 21 sec) 
Heartbeat CPU 0 instructions: 57000001 cycles: 45307170 heartbeat IPC: 0.431046 cumulative IPC: 0.475762 (Simulation time: 2 hr 48 min 18 sec) 
Heartbeat CPU 0 instructions: 58000001 cycles: 47675134 heartbeat IPC: 0.422304 cumulative IPC: 0.468351 (Simulation time: 2 hr 52 min 29 sec) 
Heartbeat CPU 0 instructions: 59000003 cycles: 49968149 heartbeat IPC: 0.436108 cumulative IPC: 0.464535 (Simulation time: 2 hr 56 min 16 sec) 
Heartbeat CPU 0 instructions: 60000000 cycles: 52276589 heartbeat IPC: 0.433192 cumulative IPC: 0.461198 (Simulation time: 3 hr 0 min 21 sec) 
Heartbeat CPU 0 instructions: 61000003 cycles: 54567268 heartbeat IPC: 0.436553 cumulative IPC: 0.458843 (Simulation time: 3 hr 3 min 53 sec) 
Heartbeat CPU 0 instructions: 62000001 cycles: 56856354 heartbeat IPC: 0.436855 cumulative IPC: 0.456926 (Simulation time: 3 hr 7 min 23 sec) 
Heartbeat CPU 0 instructions: 63000000 cycles: 58806195 heartbeat IPC: 0.512862 cumulative IPC: 0.460792 (Simulation time: 3 hr 10 min 41 sec) 
Heartbeat CPU 0 instructions: 64000000 cycles: 60138914 heartbeat IPC: 0.750346 cumulative IPC: 0.473853 (Simulation time: 3 hr 15 min 10 sec) 
Heartbeat CPU 0 instructions: 65000000 cycles: 61501054 heartbeat IPC: 0.734139 cumulative IPC: 0.485325 (Simulation time: 3 hr 18 min 1 sec) 
Heartbeat CPU 0 instructions: 66000002 cycles: 62854266 heartbeat IPC: 0.738984 cumulative IPC: 0.495965 (Simulation time: 3 hr 20 min 39 sec) 
Heartbeat CPU 0 instructions: 67000000 cycles: 64193114 heartbeat IPC: 0.746909 cumulative IPC: 0.505964 (Simulation time: 3 hr 23 min 22 sec) 
Heartbeat CPU 0 instructions: 68000000 cycles: 65579448 heartbeat IPC: 0.721327 cumulative IPC: 0.514498 (Simulation time: 3 hr 26 min 19 sec) 
Heartbeat CPU 0 instructions: 69000000 cycles: 66905491 heartbeat IPC: 0.754123 cumulative IPC: 0.523249 (Simulation time: 3 hr 28 min 50 sec) 
Heartbeat CPU 0 instructions: 70000000 cycles: 68270913 heartbeat IPC: 0.732374 cumulative IPC: 0.530828 (Simulation time: 3 hr 32 min 55 sec) 
Heartbeat CPU 0 instructions: 71000000 cycles: 69586277 heartbeat IPC: 0.760246 cumulative IPC: 0.538567 (Simulation time: 3 hr 36 min 12 sec) 
Heartbeat CPU 0 instructions: 72000000 cycles: 70924140 heartbeat IPC: 0.747461 cumulative IPC: 0.545497 (Simulation time: 3 hr 39 min 15 sec) 
Heartbeat CPU 0 instructions: 73000000 cycles: 72268523 heartbeat IPC: 0.743836 cumulative IPC: 0.551895 (Simulation time: 3 hr 42 min 9 sec) 
Heartbeat CPU 0 instructions: 74000000 cycles: 73583954 heartbeat IPC: 0.760207 cumulative IPC: 0.558269 (Simulation time: 3 hr 46 min 19 sec) 
Heartbeat CPU 0 instructions: 75000003 cycles: 74948551 heartbeat IPC: 0.732819 cumulative IPC: 0.563639 (Simulation time: 3 hr 49 min 32 sec) 
Heartbeat CPU 0 instructions: 76000000 cycles: 76271056 heartbeat IPC: 0.756139 cumulative IPC: 0.569212 (Simulation time: 3 hr 53 min 57 sec) 
Heartbeat CPU 0 instructions: 77000000 cycles: 77633194 heartbeat IPC: 0.73414 cumulative IPC: 0.573988 (Simulation time: 3 hr 57 min 33 sec) 
Heartbeat CPU 0 instructions: 78000001 cycles: 78974853 heartbeat IPC: 0.745347 cumulative IPC: 0.57874 (Simulation time: 4 hr 0 min 40 sec) 
Heartbeat CPU 0 instructions: 79000002 cycles: 80324709 heartbeat IPC: 0.740821 cumulative IPC: 0.58314 (Simulation time: 4 hr 4 min 20 sec) 
Heartbeat CPU 0 instructions: 80000000 cycles: 81693060 heartbeat IPC: 0.730805 cumulative IPC: 0.587094 (Simulation time: 4 hr 7 min 57 sec) 
Heartbeat CPU 0 instructions: 81000000 cycles: 83028187 heartbeat IPC: 0.748992 cumulative IPC: 0.591216 (Simulation time: 4 hr 11 min 21 sec) 
Heartbeat CPU 0 instructions: 82000003 cycles: 84394504 heartbeat IPC: 0.731897 cumulative IPC: 0.594789 (Simulation time: 4 hr 14 min 21 sec) 
Heartbeat CPU 0 instructions: 83000001 cycles: 85737532 heartbeat IPC: 0.744585 cumulative IPC: 0.598437 (Simulation time: 4 hr 18 min 5 sec) 
Heartbeat CPU 0 instructions: 84000000 cycles: 87080321 heartbeat IPC: 0.744718 cumulative IPC: 0.601915 (Simulation time: 4 hr 21 min 24 sec) 
Heartbeat CPU 0 instructions: 85000001 cycles: 88407025 heartbeat IPC: 0.753748 cumulative IPC: 0.605399 (Simulation time: 4 hr 24 min 24 sec) 
Heartbeat CPU 0 instructions: 86000003 cycles: 89748958 heartbeat IPC: 0.745195 cumulative IPC: 0.60857 (Simulation time: 4 hr 27 min 30 sec) 
Heartbeat CPU 0 instructions: 87000001 cycles: 91089822 heartbeat IPC: 0.745786 cumulative IPC: 0.611612 (Simulation time: 4 hr 30 min 42 sec) 
Heartbeat CPU 0 instructions: 88000000 cycles: 92433334 heartbeat IPC: 0.744317 cumulative IPC: 0.614495 (Simulation time: 4 hr 33 min 39 sec) 
Heartbeat CPU 0 instructions: 89000001 cycles: 93787368 heartbeat IPC: 0.738535 cumulative IPC: 0.617153 (Simulation time: 4 hr 36 min 41 sec) 
Heartbeat CPU 0 instructions: 90000002 cycles: 95134816 heartbeat IPC: 0.742144 cumulative IPC: 0.619762 (Simulation time: 4 hr 39 min 25 sec) 
Heartbeat CPU 0 instructions: 91000000 cycles: 96489324 heartbeat IPC: 0.738274 cumulative IPC: 0.622198 (Simulation time: 4 hr 42 min 12 sec) 
Heartbeat CPU 0 instructions: 92000000 cycles: 97819690 heartbeat IPC: 0.751673 cumulative IPC: 0.62476 (Simulation time: 4 hr 45 min 15 sec) 
Heartbeat CPU 0 instructions: 93000002 cycles: 99190364 heartbeat IPC: 0.72957 cumulative IPC: 0.626855 (Simulation time: 4 hr 48 min 13 sec) 
Heartbeat CPU 0 instructions: 94000000 cycles: 100514811 heartbeat IPC: 0.755031 cumulative IPC: 0.629283 (Simulation time: 4 hr 50 min 45 sec) 
Heartbeat CPU 0 instructions: 95000003 cycles: 101844686 heartbeat IPC: 0.751953 cumulative IPC: 0.631572 (Simulation time: 4 hr 53 min 48 sec) 
Heartbeat CPU 0 instructions: 96000000 cycles: 103203317 heartbeat IPC: 0.736033 cumulative IPC: 0.633527 (Simulation time: 4 hr 56 min 23 sec) 
Heartbeat CPU 0 instructions: 97000001 cycles: 104535303 heartbeat IPC: 0.750759 cumulative IPC: 0.635639 (Simulation time: 4 hr 59 min 17 sec) 
Heartbeat CPU 0 instructions: 98000002 cycles: 105896858 heartbeat IPC: 0.734455 cumulative IPC: 0.637425 (Simulation time: 5 hr 2 min 44 sec) 
Heartbeat CPU 0 instructions: 99000000 cycles: 107224160 heartbeat IPC: 0.753407 cumulative IPC: 0.639434 (Simulation time: 5 hr 5 min 48 sec) 
Heartbeat CPU 0 instructions: 100000000 cycles: 108604431 heartbeat IPC: 0.724495 cumulative IPC: 0.640939 (Simulation time: 5 hr 9 min 14 sec) 
Heartbeat CPU 0 instructions: 101000000 cycles: 109954763 heartbeat IPC: 0.740559 cumulative IPC: 0.642634 (Simulation time: 5 hr 12 min 9 sec) 
Heartbeat CPU 0 instructions: 102000001 cycles: 111296880 heartbeat IPC: 0.745092 cumulative IPC: 0.644338 (Simulation time: 5 hr 14 min 57 sec) 
Heartbeat CPU 0 instructions: 103000002 cycles: 112663476 heartbeat IPC: 0.731746 cumulative IPC: 0.645794 (Simulation time: 5 hr 17 min 50 sec) 
Heartbeat CPU 0 instructions: 104000000 cycles: 113991028 heartbeat IPC: 0.753265 cumulative IPC: 0.647504 (Simulation time: 5 hr 20 min 48 sec) 
Heartbeat CPU 0 instructions: 105000001 cycles: 115370638 heartbeat IPC: 0.724843 cumulative IPC: 0.648763 (Simulation time: 5 hr 23 min 50 sec) 
Heartbeat CPU 0 instructions: 106000002 cycles: 116706456 heartbeat IPC: 0.748606 cumulative IPC: 0.650312 (Simulation time: 5 hr 26 min 20 sec) 
Heartbeat CPU 0 instructions: 107000000 cycles: 118061873 heartbeat IPC: 0.737779 cumulative IPC: 0.651667 (Simulation time: 5 hr 28 min 53 sec) 
Heartbeat CPU 0 instructions: 108000000 cycles: 119399109 heartbeat IPC: 0.747811 cumulative IPC: 0.653115 (Simulation time: 5 hr 31 min 25 sec) 
Heartbeat CPU 0 instructions: 109000003 cycles: 120731499 heartbeat IPC: 0.750533 cumulative IPC: 0.654555 (Simulation time: 5 hr 34 min 27 sec) 
Heartbeat CPU 0 instructions: 110000001 cycles: 122102843 heartbeat IPC: 0.72921 cumulative IPC: 0.655674 (Simulation time: 5 hr 37 min 58 sec) 
Heartbeat CPU 0 instructions: 111000001 cycles: 123414410 heartbeat IPC: 0.762447 cumulative IPC: 0.657182 (Simulation time: 5 hr 40 min 39 sec) 
Heartbeat CPU 0 instructions: 112000000 cycles: 124808448 heartbeat IPC: 0.71734 cumulative IPC: 0.658073 (Simulation time: 5 hr 43 min 22 sec) 
Heartbeat CPU 0 instructions: 113000000 cycles: 126436217 heartbeat IPC: 0.614338 cumulative IPC: 0.65733 (Simulation time: 5 hr 46 min 22 sec) 
Heartbeat CPU 0 instructions: 114000000 cycles: 128067087 heartbeat IPC: 0.61317 cumulative IPC: 0.656591 (Simulation time: 5 hr 49 min 9 sec) 
Heartbeat CPU 0 instructions: 115000000 cycles: 129700807 heartbeat IPC: 0.6121 cumulative IPC: 0.655858 (Simulation time: 5 hr 51 min 46 sec) 
Heartbeat CPU 0 instructions: 116000000 cycles: 131327036 heartbeat IPC: 0.61492 cumulative IPC: 0.655197 (Simulation time: 5 hr 54 min 41 sec) 
Heartbeat CPU 0 instructions: 117000002 cycles: 132957785 heartbeat IPC: 0.613216 cumulative IPC: 0.654528 (Simulation time: 5 hr 57 min 31 sec) 
Heartbeat CPU 0 instructions: 118000000 cycles: 134579344 heartbeat IPC: 0.616689 cumulative IPC: 0.653938 (Simulation time: 6 hr 1 min 0 sec) 
Heartbeat CPU 0 instructions: 119000003 cycles: 136205525 heartbeat IPC: 0.61494 cumulative IPC: 0.653337 (Simulation time: 6 hr 3 min 43 sec) 
Heartbeat CPU 0 instructions: 120000000 cycles: 137861444 heartbeat IPC: 0.603892 cumulative IPC: 0.652574 (Simulation time: 6 hr 6 min 29 sec) 
Heartbeat CPU 0 instructions: 121000002 cycles: 139498907 heartbeat IPC: 0.610702 cumulative IPC: 0.651944 (Simulation time: 6 hr 9 min 34 sec) 
Heartbeat CPU 0 instructions: 122000000 cycles: 141164743 heartbeat IPC: 0.600298 cumulative IPC: 0.651166 (Simulation time: 6 hr 12 min 42 sec) 
Heartbeat CPU 0 instructions: 123000002 cycles: 142791388 heartbeat IPC: 0.614763 cumulative IPC: 0.650639 (Simulation time: 6 hr 15 min 42 sec) 
Heartbeat CPU 0 instructions: 124000000 cycles: 144428688 heartbeat IPC: 0.61076 cumulative IPC: 0.650065 (Simulation time: 6 hr 18 min 36 sec) 
Heartbeat CPU 0 instructions: 125000003 cycles: 146071149 heartbeat IPC: 0.608844 cumulative IPC: 0.649479 (Simulation time: 6 hr 21 min 33 sec) 
Heartbeat CPU 0 instructions: 126000000 cycles: 147693845 heartbeat IPC: 0.616257 cumulative IPC: 0.649018 (Simulation time: 6 hr 24 min 22 sec) 
Heartbeat CPU 0 instructions: 127000001 cycles: 149375590 heartbeat IPC: 0.594621 cumulative IPC: 0.648248 (Simulation time: 6 hr 27 min 11 sec) 
Heartbeat CPU 0 instructions: 128000000 cycles: 151003411 heartbeat IPC: 0.614318 cumulative IPC: 0.647789 (Simulation time: 6 hr 29 min 51 sec) 
Heartbeat CPU 0 instructions: 129000001 cycles: 152629039 heartbeat IPC: 0.615147 cumulative IPC: 0.647355 (Simulation time: 6 hr 32 min 19 sec) 
Heartbeat CPU 0 instructions: 130000003 cycles: 154297358 heartbeat IPC: 0.599407 cumulative IPC: 0.646708 (Simulation time: 6 hr 34 min 49 sec) 
Heartbeat CPU 0 instructions: 131000001 cycles: 159444117 heartbeat IPC: 0.194297 cumulative IPC: 0.628637 (Simulation time: 6 hr 39 min 42 sec) 
Heartbeat CPU 0 instructions: 132000000 cycles: 162413108 heartbeat IPC: 0.336814 cumulative IPC: 0.622064 (Simulation time: 6 hr 43 min 27 sec) 
Heartbeat CPU 0 instructions: 133000002 cycles: 165020528 heartbeat IPC: 0.383522 cumulative IPC: 0.617437 (Simulation time: 6 hr 46 min 19 sec) 
Heartbeat CPU 0 instructions: 134000000 cycles: 166307727 heartbeat IPC: 0.776879 cumulative IPC: 0.61895 (Simulation time: 6 hr 47 min 36 sec) 
Heartbeat CPU 0 instructions: 135000001 cycles: 167590753 heartbeat IPC: 0.779408 cumulative IPC: 0.620452 (Simulation time: 6 hr 48 min 57 sec) 
Heartbeat CPU 0 instructions: 136000000 cycles: 169007667 heartbeat IPC: 0.705758 cumulative IPC: 0.621326 (Simulation time: 6 hr 50 min 30 sec) 
Heartbeat CPU 0 instructions: 137000001 cycles: 170495700 heartbeat IPC: 0.672029 cumulative IPC: 0.621865 (Simulation time: 6 hr 52 min 5 sec) 
Heartbeat CPU 0 instructions: 138000003 cycles: 172003155 heartbeat IPC: 0.663371 cumulative IPC: 0.622307 (Simulation time: 6 hr 53 min 35 sec) 
Heartbeat CPU 0 instructions: 139000001 cycles: 173477463 heartbeat IPC: 0.678283 cumulative IPC: 0.622885 (Simulation time: 6 hr 54 min 46 sec) 
Heartbeat CPU 0 instructions: 140000000 cycles: 174969748 heartbeat IPC: 0.670113 cumulative IPC: 0.623373 (Simulation time: 6 hr 55 min 58 sec) 
Heartbeat CPU 0 instructions: 141000003 cycles: 176466265 heartbeat IPC: 0.66822 cumulative IPC: 0.623833 (Simulation time: 6 hr 57 min 6 sec) 
Heartbeat CPU 0 instructions: 142000003 cycles: 177975146 heartbeat IPC: 0.662743 cumulative IPC: 0.624231 (Simulation time: 6 hr 58 min 10 sec) 
Heartbeat CPU 0 instructions: 143000000 cycles: 179461706 heartbeat IPC: 0.672692 cumulative IPC: 0.624715 (Simulation time: 6 hr 58 min 59 sec) 
Heartbeat CPU 0 instructions: 144000000 cycles: 180956129 heartbeat IPC: 0.669155 cumulative IPC: 0.625157 (Simulation time: 6 hr 59 min 44 sec) 
Heartbeat CPU 0 instructions: 145000001 cycles: 182476850 heartbeat IPC: 0.657583 cumulative IPC: 0.625482 (Simulation time: 7 hr 0 min 25 sec) 
Heartbeat CPU 0 instructions: 146000003 cycles: 183981413 heartbeat IPC: 0.664646 cumulative IPC: 0.625866 (Simulation time: 7 hr 1 min 5 sec) 
Heartbeat CPU 0 instructions: 147000001 cycles: 186049900 heartbeat IPC: 0.483444 cumulative IPC: 0.623971 (Simulation time: 7 hr 1 min 51 sec) 
Heartbeat CPU 0 instructions: 148000000 cycles: 188418685 heartbeat IPC: 0.422157 cumulative IPC: 0.620942 (Simulation time: 7 hr 2 min 40 sec) 
Heartbeat CPU 0 instructions: 149000003 cycles: 190806578 heartbeat IPC: 0.41878 cumulative IPC: 0.617929 (Simulation time: 7 hr 3 min 24 sec) 
Heartbeat CPU 0 instructions: 150000001 cycles: 193245981 heartbeat IPC: 0.409936 cumulative IPC: 0.614809 (Simulation time: 7 hr 4 min 3 sec) 
Finished CPU 0 instructions: 100000000 cycles: 162652064 cummulative IPC: 0.614809 (Simulation time: 7 hr 4 min 3 sec) 

ChampSim completed all CPUs

Region of Interest Statistics

CPU 0 cummulative IPC: 0.614809 instructions: 100000000 cycles: 162652064
LLC TOTAL     ACCESS:    4661936  HIT:     547133  MISS:    4114803
LLC LOAD      ACCESS:     474374  HIT:      52292  MISS:     422082
LLC RFO       ACCESS:     796436  HIT:      91556  MISS:     704880
LLC PREFETCH  ACCESS:    2246798  HIT:     188871  MISS:    2057927
LLC WRITEBACK ACCESS:    1144328  HIT:     214414  MISS:     929914
