
*** ChampSim Multicore Out-of-Order Simulator ***

Warmup Instructions: 50000000
Simulation Instructions: 100000000
Configuration: 2
Number of CPUs: 1
LLC sets: 2048
LLC ways: 16
Off-chip DRAM Channels: 1 Width: 64-bit Data Rate: 1600 MT/s

CPU 0 runs /datasets/cs240c-wi22-a00-public/data/Assignment2-gz/lbm_1004B.trace.gz
CPU 0 L1D next line prefetcher
CPU 0 L2C IP-based stride prefetcher
Heartbeat CPU 0 instructions: 1000002 cycles: 391414 heartbeat IPC: 2.55484 cumulative IPC: 2.55484 (Simulation time: 0 hr 2 min 21 sec) 
Heartbeat CPU 0 instructions: 2000001 cycles: 782838 heartbeat IPC: 2.55477 cumulative IPC: 2.55481 (Simulation time: 0 hr 4 min 54 sec) 
Heartbeat CPU 0 instructions: 3000001 cycles: 1174187 heartbeat IPC: 2.55526 cumulative IPC: 2.55496 (Simulation time: 0 hr 7 min 8 sec) 
Heartbeat CPU 0 instructions: 4000000 cycles: 1570379 heartbeat IPC: 2.52403 cumulative IPC: 2.54716 (Simulation time: 0 hr 9 min 38 sec) 
Heartbeat CPU 0 instructions: 5000002 cycles: 1961798 heartbeat IPC: 2.55481 cumulative IPC: 2.54868 (Simulation time: 0 hr 12 min 8 sec) 
Heartbeat CPU 0 instructions: 6000002 cycles: 2353163 heartbeat IPC: 2.55516 cumulative IPC: 2.54976 (Simulation time: 0 hr 14 min 33 sec) 
Heartbeat CPU 0 instructions: 7000003 cycles: 2749272 heartbeat IPC: 2.52456 cumulative IPC: 2.54613 (Simulation time: 0 hr 16 min 33 sec) 
Heartbeat CPU 0 instructions: 8000000 cycles: 3140633 heartbeat IPC: 2.55518 cumulative IPC: 2.54726 (Simulation time: 0 hr 19 min 5 sec) 
Heartbeat CPU 0 instructions: 9000003 cycles: 3532077 heartbeat IPC: 2.55465 cumulative IPC: 2.54808 (Simulation time: 0 hr 21 min 20 sec) 
Heartbeat CPU 0 instructions: 10000000 cycles: 3923451 heartbeat IPC: 2.55509 cumulative IPC: 2.54878 (Simulation time: 0 hr 23 min 28 sec) 
Heartbeat CPU 0 instructions: 11000000 cycles: 4319686 heartbeat IPC: 2.52375 cumulative IPC: 2.54648 (Simulation time: 0 hr 25 min 47 sec) 
Heartbeat CPU 0 instructions: 12000000 cycles: 4711015 heartbeat IPC: 2.55539 cumulative IPC: 2.54722 (Simulation time: 0 hr 28 min 34 sec) 
Heartbeat CPU 0 instructions: 13000002 cycles: 5102443 heartbeat IPC: 2.55475 cumulative IPC: 2.5478 (Simulation time: 0 hr 31 min 14 sec) 
Heartbeat CPU 0 instructions: 14000003 cycles: 5498614 heartbeat IPC: 2.52417 cumulative IPC: 2.5461 (Simulation time: 0 hr 34 min 16 sec) 
Heartbeat CPU 0 instructions: 15000003 cycles: 5890044 heartbeat IPC: 2.55474 cumulative IPC: 2.54667 (Simulation time: 0 hr 36 min 45 sec) 
Heartbeat CPU 0 instructions: 16000000 cycles: 6281444 heartbeat IPC: 2.55492 cumulative IPC: 2.54718 (Simulation time: 0 hr 39 min 0 sec) 
Heartbeat CPU 0 instructions: 17000000 cycles: 6677609 heartbeat IPC: 2.5242 cumulative IPC: 2.54582 (Simulation time: 0 hr 41 min 32 sec) 
Heartbeat CPU 0 instructions: 18000000 cycles: 7068993 heartbeat IPC: 2.55504 cumulative IPC: 2.54633 (Simulation time: 0 hr 44 min 6 sec) 
Heartbeat CPU 0 instructions: 19000003 cycles: 7460353 heartbeat IPC: 2.5552 cumulative IPC: 2.5468 (Simulation time: 0 hr 46 min 58 sec) 
Heartbeat CPU 0 instructions: 20000000 cycles: 7851764 heartbeat IPC: 2.55485 cumulative IPC: 2.5472 (Simulation time: 0 hr 49 min 49 sec) 
Heartbeat CPU 0 instructions: 21000003 cycles: 8247936 heartbeat IPC: 2.52416 cumulative IPC: 2.54609 (Simulation time: 0 hr 52 min 26 sec) 
Heartbeat CPU 0 instructions: 22000002 cycles: 8639399 heartbeat IPC: 2.55452 cumulative IPC: 2.54647 (Simulation time: 0 hr 55 min 7 sec) 
Heartbeat CPU 0 instructions: 23000001 cycles: 9030741 heartbeat IPC: 2.55531 cumulative IPC: 2.54686 (Simulation time: 0 hr 58 min 9 sec) 
Heartbeat CPU 0 instructions: 24000000 cycles: 9426958 heartbeat IPC: 2.52387 cumulative IPC: 2.54589 (Simulation time: 1 hr 0 min 36 sec) 
Heartbeat CPU 0 instructions: 25000003 cycles: 9818363 heartbeat IPC: 2.55491 cumulative IPC: 2.54625 (Simulation time: 1 hr 3 min 7 sec) 
Heartbeat CPU 0 instructions: 26000002 cycles: 10209753 heartbeat IPC: 2.55499 cumulative IPC: 2.54658 (Simulation time: 1 hr 5 min 43 sec) 
Heartbeat CPU 0 instructions: 27000001 cycles: 10601119 heartbeat IPC: 2.55515 cumulative IPC: 2.5469 (Simulation time: 1 hr 8 min 14 sec) 
Heartbeat CPU 0 instructions: 28000000 cycles: 10997303 heartbeat IPC: 2.52408 cumulative IPC: 2.54608 (Simulation time: 1 hr 10 min 29 sec) 
Heartbeat CPU 0 instructions: 29000002 cycles: 11388702 heartbeat IPC: 2.55494 cumulative IPC: 2.54638 (Simulation time: 1 hr 13 min 5 sec) 
Heartbeat CPU 0 instructions: 30000003 cycles: 11780093 heartbeat IPC: 2.55499 cumulative IPC: 2.54667 (Simulation time: 1 hr 15 min 35 sec) 
Heartbeat CPU 0 instructions: 31000003 cycles: 12176317 heartbeat IPC: 2.52382 cumulative IPC: 2.54593 (Simulation time: 1 hr 18 min 10 sec) 
Heartbeat CPU 0 instructions: 32000000 cycles: 12567699 heartbeat IPC: 2.55504 cumulative IPC: 2.54621 (Simulation time: 1 hr 20 min 26 sec) 
Heartbeat CPU 0 instructions: 33000003 cycles: 12959136 heartbeat IPC: 2.5547 cumulative IPC: 2.54647 (Simulation time: 1 hr 22 min 48 sec) 
Heartbeat CPU 0 instructions: 34000002 cycles: 13355250 heartbeat IPC: 2.52452 cumulative IPC: 2.54582 (Simulation time: 1 hr 24 min 58 sec) 
Heartbeat CPU 0 instructions: 35000003 cycles: 13746669 heartbeat IPC: 2.55481 cumulative IPC: 2.54607 (Simulation time: 1 hr 27 min 20 sec) 
Heartbeat CPU 0 instructions: 36000000 cycles: 14138073 heartbeat IPC: 2.5549 cumulative IPC: 2.54632 (Simulation time: 1 hr 29 min 43 sec) 
Heartbeat CPU 0 instructions: 37000002 cycles: 14529481 heartbeat IPC: 2.55488 cumulative IPC: 2.54655 (Simulation time: 1 hr 32 min 27 sec) 
Heartbeat CPU 0 instructions: 38000000 cycles: 14925676 heartbeat IPC: 2.524 cumulative IPC: 2.54595 (Simulation time: 1 hr 34 min 54 sec) 
Heartbeat CPU 0 instructions: 39000003 cycles: 15316997 heartbeat IPC: 2.55545 cumulative IPC: 2.54619 (Simulation time: 1 hr 37 min 9 sec) 
Heartbeat CPU 0 instructions: 40000000 cycles: 15708393 heartbeat IPC: 2.55495 cumulative IPC: 2.54641 (Simulation time: 1 hr 39 min 29 sec) 
Heartbeat CPU 0 instructions: 41000002 cycles: 16104598 heartbeat IPC: 2.52395 cumulative IPC: 2.54586 (Simulation time: 1 hr 42 min 31 sec) 
Heartbeat CPU 0 instructions: 42000003 cycles: 16496034 heartbeat IPC: 2.5547 cumulative IPC: 2.54607 (Simulation time: 1 hr 44 min 59 sec) 
Heartbeat CPU 0 instructions: 43000000 cycles: 16887412 heartbeat IPC: 2.55507 cumulative IPC: 2.54628 (Simulation time: 1 hr 47 min 28 sec) 
Heartbeat CPU 0 instructions: 44000000 cycles: 17283584 heartbeat IPC: 2.52416 cumulative IPC: 2.54577 (Simulation time: 1 hr 49 min 54 sec) 
Heartbeat CPU 0 instructions: 45000003 cycles: 17674982 heartbeat IPC: 2.55495 cumulative IPC: 2.54597 (Simulation time: 1 hr 52 min 6 sec) 
Heartbeat CPU 0 instructions: 46000003 cycles: 18066336 heartbeat IPC: 2.55523 cumulative IPC: 2.54617 (Simulation time: 1 hr 54 min 21 sec) 
Heartbeat CPU 0 instructions: 47000002 cycles: 18457733 heartbeat IPC: 2.55495 cumulative IPC: 2.54636 (Simulation time: 1 hr 56 min 28 sec) 
Heartbeat CPU 0 instructions: 48000000 cycles: 18853906 heartbeat IPC: 2.52414 cumulative IPC: 2.54589 (Simulation time: 1 hr 58 min 47 sec) 
Heartbeat CPU 0 instructions: 49000000 cycles: 19245330 heartbeat IPC: 2.55477 cumulative IPC: 2.54607 (Simulation time: 2 hr 0 min 54 sec) 
Heartbeat CPU 0 instructions: 50000003 cycles: 19636663 heartbeat IPC: 2.55538 cumulative IPC: 2.54626 (Simulation time: 2 hr 3 min 10 sec) 

Warmup complete CPU 0 instructions: 50000003 cycles: 19636663 (Simulation time: 2 hr 3 min 10 sec) 

Heartbeat CPU 0 instructions: 51000001 cycles: 21146399 heartbeat IPC: 0.662366 cumulative IPC: 0.662366 (Simulation time: 2 hr 5 min 59 sec) 
Heartbeat CPU 0 instructions: 52000000 cycles: 22591982 heartbeat IPC: 0.691762 cumulative IPC: 0.676745 (Simulation time: 2 hr 8 min 54 sec) 
Heartbeat CPU 0 instructions: 53000002 cycles: 24054479 heartbeat IPC: 0.683763 cumulative IPC: 0.679068 (Simulation time: 2 hr 11 min 32 sec) 
Heartbeat CPU 0 instructions: 54000002 cycles: 25543019 heartbeat IPC: 0.671799 cumulative IPC: 0.677236 (Simulation time: 2 hr 14 min 30 sec) 
Heartbeat CPU 0 instructions: 55000001 cycles: 27064538 heartbeat IPC: 0.657237 cumulative IPC: 0.67314 (Simulation time: 2 hr 17 min 17 sec) 
Heartbeat CPU 0 instructions: 56000000 cycles: 28529781 heartbeat IPC: 0.68248 cumulative IPC: 0.674679 (Simulation time: 2 hr 19 min 52 sec) 
Heartbeat CPU 0 instructions: 57000003 cycles: 29979659 heartbeat IPC: 0.689715 cumulative IPC: 0.676786 (Simulation time: 2 hr 22 min 40 sec) 
Heartbeat CPU 0 instructions: 58000003 cycles: 31498089 heartbeat IPC: 0.658575 cumulative IPC: 0.674455 (Simulation time: 2 hr 25 min 24 sec) 
Heartbeat CPU 0 instructions: 59000002 cycles: 32988598 heartbeat IPC: 0.670911 cumulative IPC: 0.67406 (Simulation time: 2 hr 27 min 43 sec) 
Heartbeat CPU 0 instructions: 60000000 cycles: 34435900 heartbeat IPC: 0.690939 cumulative IPC: 0.67571 (Simulation time: 2 hr 30 min 48 sec) 
Heartbeat CPU 0 instructions: 61000003 cycles: 35947619 heartbeat IPC: 0.661501 cumulative IPC: 0.674393 (Simulation time: 2 hr 33 min 30 sec) 
Heartbeat CPU 0 instructions: 62000001 cycles: 37385214 heartbeat IPC: 0.695605 cumulative IPC: 0.676111 (Simulation time: 2 hr 36 min 13 sec) 
Heartbeat CPU 0 instructions: 63000001 cycles: 38841527 heartbeat IPC: 0.686666 cumulative IPC: 0.676912 (Simulation time: 2 hr 39 min 8 sec) 
Heartbeat CPU 0 instructions: 64000000 cycles: 40298907 heartbeat IPC: 0.686162 cumulative IPC: 0.677564 (Simulation time: 2 hr 41 min 48 sec) 
Heartbeat CPU 0 instructions: 65000000 cycles: 41824707 heartbeat IPC: 0.655394 cumulative IPC: 0.67604 (Simulation time: 2 hr 45 min 10 sec) 
Heartbeat CPU 0 instructions: 66000000 cycles: 43279085 heartbeat IPC: 0.687579 cumulative IPC: 0.676749 (Simulation time: 2 hr 48 min 41 sec) 
Heartbeat CPU 0 instructions: 67000000 cycles: 44741862 heartbeat IPC: 0.683631 cumulative IPC: 0.67715 (Simulation time: 2 hr 51 min 47 sec) 
Heartbeat CPU 0 instructions: 68000000 cycles: 46249101 heartbeat IPC: 0.663465 cumulative IPC: 0.676375 (Simulation time: 2 hr 54 min 13 sec) 
Heartbeat CPU 0 instructions: 69000000 cycles: 47701333 heartbeat IPC: 0.688595 cumulative IPC: 0.677008 (Simulation time: 2 hr 56 min 35 sec) 
Heartbeat CPU 0 instructions: 70000000 cycles: 49142960 heartbeat IPC: 0.693661 cumulative IPC: 0.677821 (Simulation time: 2 hr 59 min 27 sec) 
Heartbeat CPU 0 instructions: 71000002 cycles: 50653383 heartbeat IPC: 0.662068 cumulative IPC: 0.677054 (Simulation time: 3 hr 2 min 44 sec) 
Heartbeat CPU 0 instructions: 72000000 cycles: 52969903 heartbeat IPC: 0.431681 cumulative IPC: 0.660002 (Simulation time: 3 hr 7 min 36 sec) 
Heartbeat CPU 0 instructions: 73000001 cycles: 56215979 heartbeat IPC: 0.308065 cumulative IPC: 0.628771 (Simulation time: 3 hr 12 min 49 sec) 
Heartbeat CPU 0 instructions: 74000002 cycles: 62686139 heartbeat IPC: 0.154556 cumulative IPC: 0.557498 (Simulation time: 3 hr 22 min 2 sec) 
Heartbeat CPU 0 instructions: 75000003 cycles: 65013626 heartbeat IPC: 0.429648 cumulative IPC: 0.55094 (Simulation time: 3 hr 25 min 21 sec) 
Heartbeat CPU 0 instructions: 76000000 cycles: 67042395 heartbeat IPC: 0.492908 cumulative IPC: 0.548457 (Simulation time: 3 hr 29 min 13 sec) 
Heartbeat CPU 0 instructions: 77000000 cycles: 68511167 heartbeat IPC: 0.680841 cumulative IPC: 0.552435 (Simulation time: 3 hr 32 min 7 sec) 
Heartbeat CPU 0 instructions: 78000002 cycles: 69955279 heartbeat IPC: 0.692468 cumulative IPC: 0.556454 (Simulation time: 3 hr 35 min 10 sec) 
Heartbeat CPU 0 instructions: 79000002 cycles: 71445552 heartbeat IPC: 0.671018 cumulative IPC: 0.559749 (Simulation time: 3 hr 38 min 20 sec) 
Heartbeat CPU 0 instructions: 80000000 cycles: 72922229 heartbeat IPC: 0.677195 cumulative IPC: 0.563004 (Simulation time: 3 hr 41 min 38 sec) 
Heartbeat CPU 0 instructions: 81000001 cycles: 74386263 heartbeat IPC: 0.683045 cumulative IPC: 0.566214 (Simulation time: 3 hr 44 min 56 sec) 
Heartbeat CPU 0 instructions: 82000002 cycles: 75841740 heartbeat IPC: 0.687061 cumulative IPC: 0.569344 (Simulation time: 3 hr 48 min 4 sec) 
Heartbeat CPU 0 instructions: 83000003 cycles: 77347854 heartbeat IPC: 0.663961 cumulative IPC: 0.571813 (Simulation time: 3 hr 51 min 36 sec) 
Heartbeat CPU 0 instructions: 84000000 cycles: 78810005 heartbeat IPC: 0.683922 cumulative IPC: 0.574583 (Simulation time: 3 hr 54 min 14 sec) 
Heartbeat CPU 0 instructions: 85000000 cycles: 80277799 heartbeat IPC: 0.681295 cumulative IPC: 0.577166 (Simulation time: 3 hr 57 min 58 sec) 
Heartbeat CPU 0 instructions: 86000000 cycles: 81803746 heartbeat IPC: 0.655331 cumulative IPC: 0.579085 (Simulation time: 4 hr 1 min 6 sec) 
Heartbeat CPU 0 instructions: 87000002 cycles: 83251608 heartbeat IPC: 0.690675 cumulative IPC: 0.581624 (Simulation time: 4 hr 4 min 48 sec) 
Heartbeat CPU 0 instructions: 88000000 cycles: 84696048 heartbeat IPC: 0.692308 cumulative IPC: 0.584082 (Simulation time: 4 hr 8 min 18 sec) 
Heartbeat CPU 0 instructions: 89000003 cycles: 86157677 heartbeat IPC: 0.68417 cumulative IPC: 0.586281 (Simulation time: 4 hr 11 min 5 sec) 
Heartbeat CPU 0 instructions: 90000002 cycles: 87652208 heartbeat IPC: 0.669106 cumulative IPC: 0.588101 (Simulation time: 4 hr 14 min 44 sec) 
Heartbeat CPU 0 instructions: 91000001 cycles: 89116734 heartbeat IPC: 0.682814 cumulative IPC: 0.590097 (Simulation time: 4 hr 17 min 28 sec) 
Heartbeat CPU 0 instructions: 92000000 cycles: 90576031 heartbeat IPC: 0.685261 cumulative IPC: 0.592055 (Simulation time: 4 hr 20 min 26 sec) 
Heartbeat CPU 0 instructions: 93000003 cycles: 92087584 heartbeat IPC: 0.661573 cumulative IPC: 0.593505 (Simulation time: 4 hr 23 min 15 sec) 
Heartbeat CPU 0 instructions: 94000003 cycles: 93553390 heartbeat IPC: 0.682218 cumulative IPC: 0.595264 (Simulation time: 4 hr 26 min 0 sec) 
Heartbeat CPU 0 instructions: 95000000 cycles: 95007169 heartbeat IPC: 0.68786 cumulative IPC: 0.59705 (Simulation time: 4 hr 28 min 36 sec) 
Heartbeat CPU 0 instructions: 96000000 cycles: 96542921 heartbeat IPC: 0.651147 cumulative IPC: 0.598131 (Simulation time: 4 hr 31 min 37 sec) 
Heartbeat CPU 0 instructions: 97000002 cycles: 98013340 heartbeat IPC: 0.68008 cumulative IPC: 0.599668 (Simulation time: 4 hr 34 min 8 sec) 
Heartbeat CPU 0 instructions: 98000001 cycles: 99469193 heartbeat IPC: 0.686882 cumulative IPC: 0.601259 (Simulation time: 4 hr 37 min 31 sec) 
Heartbeat CPU 0 instructions: 99000000 cycles: 100925590 heartbeat IPC: 0.686625 cumulative IPC: 0.602788 (Simulation time: 4 hr 40 min 13 sec) 
Heartbeat CPU 0 instructions: 100000000 cycles: 102438384 heartbeat IPC: 0.661029 cumulative IPC: 0.603852 (Simulation time: 4 hr 43 min 2 sec) 
Heartbeat CPU 0 instructions: 101000000 cycles: 103892141 heartbeat IPC: 0.687873 cumulative IPC: 0.605302 (Simulation time: 4 hr 46 min 8 sec) 
Heartbeat CPU 0 instructions: 102000000 cycles: 105350430 heartbeat IPC: 0.685735 cumulative IPC: 0.60667 (Simulation time: 4 hr 49 min 3 sec) 
Heartbeat CPU 0 instructions: 103000001 cycles: 106876079 heartbeat IPC: 0.655459 cumulative IPC: 0.607524 (Simulation time: 4 hr 52 min 1 sec) 
Heartbeat CPU 0 instructions: 104000000 cycles: 108340643 heartbeat IPC: 0.682796 cumulative IPC: 0.608766 (Simulation time: 4 hr 54 min 56 sec) 
Heartbeat CPU 0 instructions: 105000001 cycles: 109791949 heartbeat IPC: 0.689035 cumulative IPC: 0.610058 (Simulation time: 4 hr 57 min 49 sec) 
Heartbeat CPU 0 instructions: 106000000 cycles: 111227583 heartbeat IPC: 0.696556 cumulative IPC: 0.611414 (Simulation time: 5 hr 0 min 51 sec) 
Heartbeat CPU 0 instructions: 107000000 cycles: 112780658 heartbeat IPC: 0.643884 cumulative IPC: 0.611956 (Simulation time: 5 hr 4 min 30 sec) 
Heartbeat CPU 0 instructions: 108000000 cycles: 114272864 heartbeat IPC: 0.670149 cumulative IPC: 0.612873 (Simulation time: 5 hr 7 min 0 sec) 
Heartbeat CPU 0 instructions: 109000003 cycles: 115732432 heartbeat IPC: 0.685136 cumulative IPC: 0.613971 (Simulation time: 5 hr 9 min 58 sec) 
Heartbeat CPU 0 instructions: 110000001 cycles: 117240572 heartbeat IPC: 0.663067 cumulative IPC: 0.614729 (Simulation time: 5 hr 13 min 20 sec) 
Heartbeat CPU 0 instructions: 111000003 cycles: 118804188 heartbeat IPC: 0.639544 cumulative IPC: 0.615121 (Simulation time: 5 hr 16 min 2 sec) 
Heartbeat CPU 0 instructions: 112000000 cycles: 120277857 heartbeat IPC: 0.678576 cumulative IPC: 0.61605 (Simulation time: 5 hr 18 min 36 sec) 
Heartbeat CPU 0 instructions: 113000001 cycles: 121782143 heartbeat IPC: 0.664768 cumulative IPC: 0.616767 (Simulation time: 5 hr 21 min 10 sec) 
Heartbeat CPU 0 instructions: 114000001 cycles: 123347278 heartbeat IPC: 0.638923 cumulative IPC: 0.617102 (Simulation time: 5 hr 23 min 56 sec) 
Heartbeat CPU 0 instructions: 115000000 cycles: 124818935 heartbeat IPC: 0.679505 cumulative IPC: 0.617975 (Simulation time: 5 hr 27 min 16 sec) 
Heartbeat CPU 0 instructions: 116000000 cycles: 126336650 heartbeat IPC: 0.658885 cumulative IPC: 0.618557 (Simulation time: 5 hr 30 min 40 sec) 
Heartbeat CPU 0 instructions: 117000000 cycles: 127929338 heartbeat IPC: 0.627869 cumulative IPC: 0.618694 (Simulation time: 5 hr 33 min 32 sec) 
Heartbeat CPU 0 instructions: 118000002 cycles: 129414638 heartbeat IPC: 0.673266 cumulative IPC: 0.619432 (Simulation time: 5 hr 36 min 0 sec) 
Heartbeat CPU 0 instructions: 119000002 cycles: 130864538 heartbeat IPC: 0.689703 cumulative IPC: 0.620348 (Simulation time: 5 hr 39 min 9 sec) 
Heartbeat CPU 0 instructions: 120000000 cycles: 132478875 heartbeat IPC: 0.619448 cumulative IPC: 0.620335 (Simulation time: 5 hr 42 min 50 sec) 
Heartbeat CPU 0 instructions: 121000002 cycles: 134031286 heartbeat IPC: 0.644161 cumulative IPC: 0.620659 (Simulation time: 5 hr 45 min 56 sec) 
Heartbeat CPU 0 instructions: 122000002 cycles: 135494518 heartbeat IPC: 0.683419 cumulative IPC: 0.621451 (Simulation time: 5 hr 48 min 39 sec) 
Heartbeat CPU 0 instructions: 123000002 cycles: 137039094 heartbeat IPC: 0.647427 cumulative IPC: 0.621793 (Simulation time: 5 hr 51 min 28 sec) 
Heartbeat CPU 0 instructions: 124000000 cycles: 138682516 heartbeat IPC: 0.608485 cumulative IPC: 0.621609 (Simulation time: 5 hr 54 min 28 sec) 
Heartbeat CPU 0 instructions: 125000000 cycles: 140143959 heartbeat IPC: 0.684255 cumulative IPC: 0.622369 (Simulation time: 5 hr 57 min 31 sec) 
Heartbeat CPU 0 instructions: 126000002 cycles: 141669577 heartbeat IPC: 0.655473 cumulative IPC: 0.622783 (Simulation time: 6 hr 0 min 45 sec) 
Heartbeat CPU 0 instructions: 127000000 cycles: 143356825 heartbeat IPC: 0.59268 cumulative IPC: 0.622372 (Simulation time: 6 hr 4 min 0 sec) 
Heartbeat CPU 0 instructions: 128000000 cycles: 144813763 heartbeat IPC: 0.686371 cumulative IPC: 0.623117 (Simulation time: 6 hr 7 min 6 sec) 
Heartbeat CPU 0 instructions: 129000000 cycles: 146327737 heartbeat IPC: 0.660513 cumulative IPC: 0.623564 (Simulation time: 6 hr 10 min 0 sec) 
Heartbeat CPU 0 instructions: 130000000 cycles: 148054532 heartbeat IPC: 0.579108 cumulative IPC: 0.622966 (Simulation time: 6 hr 13 min 19 sec) 
Heartbeat CPU 0 instructions: 131000000 cycles: 149528339 heartbeat IPC: 0.678515 cumulative IPC: 0.623596 (Simulation time: 6 hr 15 min 49 sec) 
Heartbeat CPU 0 instructions: 132000000 cycles: 151034841 heartbeat IPC: 0.663789 cumulative IPC: 0.624057 (Simulation time: 6 hr 18 min 26 sec) 
Heartbeat CPU 0 instructions: 133000001 cycles: 152813347 heartbeat IPC: 0.56227 cumulative IPC: 0.623232 (Simulation time: 6 hr 21 min 17 sec) 
Heartbeat CPU 0 instructions: 134000000 cycles: 154259659 heartbeat IPC: 0.691413 cumulative IPC: 0.623965 (Simulation time: 6 hr 23 min 32 sec) 
Heartbeat CPU 0 instructions: 135000003 cycles: 155788636 heartbeat IPC: 0.654034 cumulative IPC: 0.624302 (Simulation time: 6 hr 25 min 52 sec) 
Heartbeat CPU 0 instructions: 136000000 cycles: 157560710 heartbeat IPC: 0.564309 cumulative IPC: 0.623532 (Simulation time: 6 hr 28 min 34 sec) 
Heartbeat CPU 0 instructions: 137000000 cycles: 159032630 heartbeat IPC: 0.679385 cumulative IPC: 0.624121 (Simulation time: 6 hr 30 min 49 sec) 
Heartbeat CPU 0 instructions: 138000003 cycles: 160530044 heartbeat IPC: 0.66782 cumulative IPC: 0.624586 (Simulation time: 6 hr 33 min 8 sec) 
Heartbeat CPU 0 instructions: 139000000 cycles: 162296864 heartbeat IPC: 0.565987 cumulative IPC: 0.62386 (Simulation time: 6 hr 35 min 38 sec) 
Heartbeat CPU 0 instructions: 140000000 cycles: 163783437 heartbeat IPC: 0.672688 cumulative IPC: 0.624364 (Simulation time: 6 hr 37 min 46 sec) 
Heartbeat CPU 0 instructions: 141000001 cycles: 165310728 heartbeat IPC: 0.654755 cumulative IPC: 0.624682 (Simulation time: 6 hr 39 min 45 sec) 
Heartbeat CPU 0 instructions: 142000003 cycles: 167097072 heartbeat IPC: 0.559804 cumulative IPC: 0.623896 (Simulation time: 6 hr 41 min 44 sec) 
Heartbeat CPU 0 instructions: 143000000 cycles: 168590960 heartbeat IPC: 0.669392 cumulative IPC: 0.624353 (Simulation time: 6 hr 43 min 23 sec) 
Heartbeat CPU 0 instructions: 144000000 cycles: 170129219 heartbeat IPC: 0.650086 cumulative IPC: 0.624616 (Simulation time: 6 hr 44 min 57 sec) 
Heartbeat CPU 0 instructions: 145000000 cycles: 171945609 heartbeat IPC: 0.550543 cumulative IPC: 0.623732 (Simulation time: 6 hr 46 min 47 sec) 
Heartbeat CPU 0 instructions: 146000003 cycles: 173417229 heartbeat IPC: 0.679525 cumulative IPC: 0.624266 (Simulation time: 6 hr 48 min 17 sec) 
Heartbeat CPU 0 instructions: 147000000 cycles: 174919569 heartbeat IPC: 0.665626 cumulative IPC: 0.624666 (Simulation time: 6 hr 49 min 47 sec) 
Heartbeat CPU 0 instructions: 148000000 cycles: 176744556 heartbeat IPC: 0.547949 cumulative IPC: 0.623775 (Simulation time: 6 hr 51 min 26 sec) 
Heartbeat CPU 0 instructions: 149000001 cycles: 178224047 heartbeat IPC: 0.675909 cumulative IPC: 0.624261 (Simulation time: 6 hr 52 min 52 sec) 
Heartbeat CPU 0 instructions: 150000000 cycles: 179738073 heartbeat IPC: 0.66049 cumulative IPC: 0.624604 (Simulation time: 6 hr 54 min 8 sec) 
Finished CPU 0 instructions: 100000003 cycles: 160101450 cummulative IPC: 0.624604 (Simulation time: 6 hr 54 min 8 sec) 

ChampSim completed all CPUs

Region of Interest Statistics

CPU 0 cummulative IPC: 0.624604 instructions: 100000003 cycles: 160101450
LLC TOTAL     ACCESS:    5988539  HIT:     458713  MISS:    5529826
LLC LOAD      ACCESS:     440428  HIT:       4658  MISS:     435770
LLC RFO       ACCESS:    2551833  HIT:     186211  MISS:    2365622
LLC PREFETCH  ACCESS:     444146  HIT:       5919  MISS:     438227
LLC WRITEBACK ACCESS:    2552132  HIT:     261925  MISS:    2290207
