
*** ChampSim Multicore Out-of-Order Simulator ***

Warmup Instructions: 50000000
Simulation Instructions: 100000000
Configuration: 2
Number of CPUs: 1
LLC sets: 2048
LLC ways: 16
Off-chip DRAM Channels: 1 Width: 64-bit Data Rate: 1600 MT/s

CPU 0 runs /datasets/cs240c-wi22-a00-public/data/Assignment2-gz/cactusADM_1039B.trace.gz
CPU 0 L1D next line prefetcher
CPU 0 L2C IP-based stride prefetcher
Heartbeat CPU 0 instructions: 1000000 cycles: 595518 heartbeat IPC: 1.67921 cumulative IPC: 1.67921 (Simulation time: 0 hr 2 min 45 sec) 
Heartbeat CPU 0 instructions: 2000002 cycles: 1190937 heartbeat IPC: 1.67949 cumulative IPC: 1.67935 (Simulation time: 0 hr 5 min 20 sec) 
Heartbeat CPU 0 instructions: 3000003 cycles: 1786622 heartbeat IPC: 1.67874 cumulative IPC: 1.67915 (Simulation time: 0 hr 8 min 0 sec) 
Heartbeat CPU 0 instructions: 4000000 cycles: 2382046 heartbeat IPC: 1.67947 cumulative IPC: 1.67923 (Simulation time: 0 hr 11 min 8 sec) 
Heartbeat CPU 0 instructions: 5000001 cycles: 2977457 heartbeat IPC: 1.67951 cumulative IPC: 1.67929 (Simulation time: 0 hr 14 min 0 sec) 
Heartbeat CPU 0 instructions: 6000002 cycles: 3572930 heartbeat IPC: 1.67934 cumulative IPC: 1.67929 (Simulation time: 0 hr 16 min 49 sec) 
Heartbeat CPU 0 instructions: 7000000 cycles: 4168306 heartbeat IPC: 1.67961 cumulative IPC: 1.67934 (Simulation time: 0 hr 19 min 32 sec) 
Heartbeat CPU 0 instructions: 8000000 cycles: 4763681 heartbeat IPC: 1.67961 cumulative IPC: 1.67937 (Simulation time: 0 hr 22 min 2 sec) 
Heartbeat CPU 0 instructions: 9000002 cycles: 5359336 heartbeat IPC: 1.67883 cumulative IPC: 1.67931 (Simulation time: 0 hr 24 min 44 sec) 
Heartbeat CPU 0 instructions: 10000003 cycles: 5974113 heartbeat IPC: 1.62661 cumulative IPC: 1.67389 (Simulation time: 0 hr 27 min 24 sec) 
Heartbeat CPU 0 instructions: 11000002 cycles: 6713298 heartbeat IPC: 1.35284 cumulative IPC: 1.63854 (Simulation time: 0 hr 31 min 41 sec) 
Heartbeat CPU 0 instructions: 12000000 cycles: 7308746 heartbeat IPC: 1.6794 cumulative IPC: 1.64187 (Simulation time: 0 hr 34 min 30 sec) 
Heartbeat CPU 0 instructions: 13000002 cycles: 7904263 heartbeat IPC: 1.67922 cumulative IPC: 1.64468 (Simulation time: 0 hr 37 min 11 sec) 
Heartbeat CPU 0 instructions: 14000000 cycles: 8499915 heartbeat IPC: 1.67883 cumulative IPC: 1.64708 (Simulation time: 0 hr 39 min 36 sec) 
Heartbeat CPU 0 instructions: 15000000 cycles: 9094977 heartbeat IPC: 1.6805 cumulative IPC: 1.64926 (Simulation time: 0 hr 42 min 36 sec) 
Heartbeat CPU 0 instructions: 16000000 cycles: 9690572 heartbeat IPC: 1.67899 cumulative IPC: 1.65109 (Simulation time: 0 hr 45 min 24 sec) 
Heartbeat CPU 0 instructions: 17000003 cycles: 10286094 heartbeat IPC: 1.6792 cumulative IPC: 1.65272 (Simulation time: 0 hr 48 min 26 sec) 
Heartbeat CPU 0 instructions: 18000001 cycles: 10881611 heartbeat IPC: 1.67921 cumulative IPC: 1.65417 (Simulation time: 0 hr 51 min 5 sec) 
Heartbeat CPU 0 instructions: 19000002 cycles: 11476980 heartbeat IPC: 1.67963 cumulative IPC: 1.65549 (Simulation time: 0 hr 54 min 4 sec) 
Heartbeat CPU 0 instructions: 20000000 cycles: 12072411 heartbeat IPC: 1.67945 cumulative IPC: 1.65667 (Simulation time: 0 hr 56 min 52 sec) 
Heartbeat CPU 0 instructions: 21000002 cycles: 12668085 heartbeat IPC: 1.67877 cumulative IPC: 1.65771 (Simulation time: 0 hr 59 min 41 sec) 
Heartbeat CPU 0 instructions: 22000002 cycles: 13263497 heartbeat IPC: 1.67951 cumulative IPC: 1.65869 (Simulation time: 1 hr 2 min 21 sec) 
Heartbeat CPU 0 instructions: 23000002 cycles: 13858922 heartbeat IPC: 1.67947 cumulative IPC: 1.65958 (Simulation time: 1 hr 5 min 2 sec) 
Heartbeat CPU 0 instructions: 24000000 cycles: 14615927 heartbeat IPC: 1.32099 cumulative IPC: 1.64204 (Simulation time: 1 hr 9 min 7 sec) 
Heartbeat CPU 0 instructions: 25000002 cycles: 15211214 heartbeat IPC: 1.67987 cumulative IPC: 1.64352 (Simulation time: 1 hr 12 min 13 sec) 
Heartbeat CPU 0 instructions: 26000001 cycles: 15806327 heartbeat IPC: 1.68035 cumulative IPC: 1.64491 (Simulation time: 1 hr 14 min 50 sec) 
Heartbeat CPU 0 instructions: 27000000 cycles: 16401565 heartbeat IPC: 1.68 cumulative IPC: 1.64618 (Simulation time: 1 hr 17 min 24 sec) 
Heartbeat CPU 0 instructions: 28000000 cycles: 16996801 heartbeat IPC: 1.68001 cumulative IPC: 1.64737 (Simulation time: 1 hr 20 min 13 sec) 
Heartbeat CPU 0 instructions: 29000000 cycles: 17592273 heartbeat IPC: 1.67934 cumulative IPC: 1.64845 (Simulation time: 1 hr 22 min 50 sec) 
Heartbeat CPU 0 instructions: 30000002 cycles: 18187438 heartbeat IPC: 1.68021 cumulative IPC: 1.64949 (Simulation time: 1 hr 25 min 47 sec) 
Heartbeat CPU 0 instructions: 31000001 cycles: 18782955 heartbeat IPC: 1.67921 cumulative IPC: 1.65043 (Simulation time: 1 hr 29 min 7 sec) 
Heartbeat CPU 0 instructions: 32000000 cycles: 19377905 heartbeat IPC: 1.68081 cumulative IPC: 1.65137 (Simulation time: 1 hr 31 min 36 sec) 
Heartbeat CPU 0 instructions: 33000001 cycles: 19973324 heartbeat IPC: 1.67949 cumulative IPC: 1.6522 (Simulation time: 1 hr 34 min 13 sec) 
Heartbeat CPU 0 instructions: 34000003 cycles: 20568365 heartbeat IPC: 1.68056 cumulative IPC: 1.65302 (Simulation time: 1 hr 36 min 49 sec) 
Heartbeat CPU 0 instructions: 35000001 cycles: 21163756 heartbeat IPC: 1.67957 cumulative IPC: 1.65377 (Simulation time: 1 hr 39 min 19 sec) 
Heartbeat CPU 0 instructions: 36000000 cycles: 21759147 heartbeat IPC: 1.67957 cumulative IPC: 1.65448 (Simulation time: 1 hr 42 min 4 sec) 
Heartbeat CPU 0 instructions: 37000002 cycles: 22517496 heartbeat IPC: 1.31866 cumulative IPC: 1.64317 (Simulation time: 1 hr 45 min 43 sec) 
Heartbeat CPU 0 instructions: 38000000 cycles: 23112646 heartbeat IPC: 1.68025 cumulative IPC: 1.64412 (Simulation time: 1 hr 48 min 33 sec) 
Heartbeat CPU 0 instructions: 39000002 cycles: 23707853 heartbeat IPC: 1.68009 cumulative IPC: 1.64502 (Simulation time: 1 hr 51 min 6 sec) 
Heartbeat CPU 0 instructions: 40000000 cycles: 24303081 heartbeat IPC: 1.68003 cumulative IPC: 1.64588 (Simulation time: 1 hr 53 min 34 sec) 
Heartbeat CPU 0 instructions: 41000003 cycles: 24898492 heartbeat IPC: 1.67952 cumulative IPC: 1.64669 (Simulation time: 1 hr 56 min 13 sec) 
Heartbeat CPU 0 instructions: 42000001 cycles: 25493670 heartbeat IPC: 1.68017 cumulative IPC: 1.64747 (Simulation time: 1 hr 58 min 38 sec) 
Heartbeat CPU 0 instructions: 43000000 cycles: 26089026 heartbeat IPC: 1.67967 cumulative IPC: 1.6482 (Simulation time: 2 hr 1 min 14 sec) 
Heartbeat CPU 0 instructions: 44000000 cycles: 26684113 heartbeat IPC: 1.68043 cumulative IPC: 1.64892 (Simulation time: 2 hr 3 min 35 sec) 
Heartbeat CPU 0 instructions: 45000000 cycles: 27279599 heartbeat IPC: 1.6793 cumulative IPC: 1.64958 (Simulation time: 2 hr 6 min 18 sec) 
Heartbeat CPU 0 instructions: 46000003 cycles: 27874798 heartbeat IPC: 1.68012 cumulative IPC: 1.65024 (Simulation time: 2 hr 8 min 53 sec) 
Heartbeat CPU 0 instructions: 47000002 cycles: 28469927 heartbeat IPC: 1.68031 cumulative IPC: 1.65086 (Simulation time: 2 hr 11 min 22 sec) 
Heartbeat CPU 0 instructions: 48000000 cycles: 29064919 heartbeat IPC: 1.68069 cumulative IPC: 1.65148 (Simulation time: 2 hr 14 min 8 sec) 
Heartbeat CPU 0 instructions: 49000001 cycles: 29660315 heartbeat IPC: 1.67956 cumulative IPC: 1.65204 (Simulation time: 2 hr 17 min 0 sec) 
Heartbeat CPU 0 instructions: 50000000 cycles: 30417802 heartbeat IPC: 1.32015 cumulative IPC: 1.64377 (Simulation time: 2 hr 21 min 1 sec) 

Warmup complete CPU 0 instructions: 50000004 cycles: 30417803 (Simulation time: 2 hr 21 min 1 sec) 

Heartbeat CPU 0 instructions: 51000003 cycles: 32181701 heartbeat IPC: 0.566928 cumulative IPC: 0.566926 (Simulation time: 2 hr 23 min 43 sec) 
Heartbeat CPU 0 instructions: 52000000 cycles: 33954223 heartbeat IPC: 0.564166 cumulative IPC: 0.565543 (Simulation time: 2 hr 26 min 53 sec) 
Heartbeat CPU 0 instructions: 53000003 cycles: 35723830 heartbeat IPC: 0.565099 cumulative IPC: 0.565395 (Simulation time: 2 hr 29 min 55 sec) 
Heartbeat CPU 0 instructions: 54000002 cycles: 37440444 heartbeat IPC: 0.582542 cumulative IPC: 0.569586 (Simulation time: 2 hr 33 min 18 sec) 
Heartbeat CPU 0 instructions: 55000001 cycles: 39165721 heartbeat IPC: 0.579616 cumulative IPC: 0.571564 (Simulation time: 2 hr 36 min 30 sec) 
Heartbeat CPU 0 instructions: 56000000 cycles: 40935119 heartbeat IPC: 0.565163 cumulative IPC: 0.570487 (Simulation time: 2 hr 39 min 43 sec) 
Heartbeat CPU 0 instructions: 57000000 cycles: 42708539 heartbeat IPC: 0.563882 cumulative IPC: 0.569534 (Simulation time: 2 hr 42 min 35 sec) 
Heartbeat CPU 0 instructions: 58000000 cycles: 44472762 heartbeat IPC: 0.566822 cumulative IPC: 0.569194 (Simulation time: 2 hr 45 min 17 sec) 
Heartbeat CPU 0 instructions: 59000002 cycles: 46160020 heartbeat IPC: 0.592679 cumulative IPC: 0.571711 (Simulation time: 2 hr 48 min 21 sec) 
Heartbeat CPU 0 instructions: 60000000 cycles: 47918169 heartbeat IPC: 0.568779 cumulative IPC: 0.571416 (Simulation time: 2 hr 51 min 24 sec) 
Heartbeat CPU 0 instructions: 61000001 cycles: 49690899 heartbeat IPC: 0.564102 cumulative IPC: 0.570744 (Simulation time: 2 hr 54 min 32 sec) 
Heartbeat CPU 0 instructions: 62000000 cycles: 51462833 heartbeat IPC: 0.564355 cumulative IPC: 0.570206 (Simulation time: 2 hr 58 min 21 sec) 
Heartbeat CPU 0 instructions: 63000001 cycles: 57723082 heartbeat IPC: 0.159738 cumulative IPC: 0.476098 (Simulation time: 3 hr 2 min 0 sec) 
Heartbeat CPU 0 instructions: 64000000 cycles: 59997705 heartbeat IPC: 0.439633 cumulative IPC: 0.473294 (Simulation time: 3 hr 5 min 22 sec) 
Heartbeat CPU 0 instructions: 65000002 cycles: 61768820 heartbeat IPC: 0.564617 cumulative IPC: 0.478453 (Simulation time: 3 hr 8 min 36 sec) 
Heartbeat CPU 0 instructions: 66000001 cycles: 63539425 heartbeat IPC: 0.564778 cumulative IPC: 0.483068 (Simulation time: 3 hr 11 min 24 sec) 
Heartbeat CPU 0 instructions: 67000003 cycles: 65304480 heartbeat IPC: 0.566556 cumulative IPC: 0.487292 (Simulation time: 3 hr 14 min 3 sec) 
Heartbeat CPU 0 instructions: 68000000 cycles: 67030171 heartbeat IPC: 0.579476 cumulative IPC: 0.491637 (Simulation time: 3 hr 17 min 1 sec) 
Heartbeat CPU 0 instructions: 69000003 cycles: 68806446 heartbeat IPC: 0.562978 cumulative IPC: 0.494938 (Simulation time: 3 hr 19 min 57 sec) 
Heartbeat CPU 0 instructions: 70000002 cycles: 70576712 heartbeat IPC: 0.564886 cumulative IPC: 0.498021 (Simulation time: 3 hr 22 min 24 sec) 
Heartbeat CPU 0 instructions: 71000000 cycles: 72348435 heartbeat IPC: 0.564421 cumulative IPC: 0.500827 (Simulation time: 3 hr 26 min 1 sec) 
Heartbeat CPU 0 instructions: 72000000 cycles: 74094740 heartbeat IPC: 0.572638 cumulative IPC: 0.503698 (Simulation time: 3 hr 28 min 17 sec) 
Heartbeat CPU 0 instructions: 73000001 cycles: 75793587 heartbeat IPC: 0.588635 cumulative IPC: 0.506878 (Simulation time: 3 hr 30 min 47 sec) 
Heartbeat CPU 0 instructions: 74000003 cycles: 77559400 heartbeat IPC: 0.566312 cumulative IPC: 0.509104 (Simulation time: 3 hr 33 min 44 sec) 
Heartbeat CPU 0 instructions: 75000002 cycles: 79330973 heartbeat IPC: 0.56447 cumulative IPC: 0.51111 (Simulation time: 3 hr 36 min 29 sec) 
Heartbeat CPU 0 instructions: 76000000 cycles: 84640470 heartbeat IPC: 0.188341 cumulative IPC: 0.479504 (Simulation time: 3 hr 39 min 51 sec) 
Heartbeat CPU 0 instructions: 77000001 cycles: 87830297 heartbeat IPC: 0.313497 cumulative IPC: 0.470281 (Simulation time: 3 hr 43 min 44 sec) 
Heartbeat CPU 0 instructions: 78000000 cycles: 89579463 heartbeat IPC: 0.5717 cumulative IPC: 0.473279 (Simulation time: 3 hr 46 min 54 sec) 
Heartbeat CPU 0 instructions: 79000002 cycles: 91348251 heartbeat IPC: 0.56536 cumulative IPC: 0.475952 (Simulation time: 3 hr 50 min 33 sec) 
Heartbeat CPU 0 instructions: 80000000 cycles: 93117477 heartbeat IPC: 0.565218 cumulative IPC: 0.478471 (Simulation time: 3 hr 53 min 49 sec) 
Heartbeat CPU 0 instructions: 81000002 cycles: 94864489 heartbeat IPC: 0.572407 cumulative IPC: 0.481018 (Simulation time: 3 hr 56 min 41 sec) 
Heartbeat CPU 0 instructions: 82000002 cycles: 96558189 heartbeat IPC: 0.590423 cumulative IPC: 0.483819 (Simulation time: 4 hr 0 min 23 sec) 
Heartbeat CPU 0 instructions: 83000003 cycles: 98323332 heartbeat IPC: 0.566527 cumulative IPC: 0.485969 (Simulation time: 4 hr 3 min 0 sec) 
Heartbeat CPU 0 instructions: 84000000 cycles: 100092905 heartbeat IPC: 0.565106 cumulative IPC: 0.487979 (Simulation time: 4 hr 6 min 1 sec) 
Heartbeat CPU 0 instructions: 85000002 cycles: 101862606 heartbeat IPC: 0.565068 cumulative IPC: 0.489889 (Simulation time: 4 hr 9 min 46 sec) 
Heartbeat CPU 0 instructions: 86000003 cycles: 103575952 heartbeat IPC: 0.583654 cumulative IPC: 0.492085 (Simulation time: 4 hr 13 min 3 sec) 
Heartbeat CPU 0 instructions: 87000000 cycles: 105315399 heartbeat IPC: 0.574894 cumulative IPC: 0.494008 (Simulation time: 4 hr 17 min 5 sec) 
Heartbeat CPU 0 instructions: 88000000 cycles: 107082552 heartbeat IPC: 0.565882 cumulative IPC: 0.495665 (Simulation time: 4 hr 19 min 43 sec) 
Heartbeat CPU 0 instructions: 89000001 cycles: 111426783 heartbeat IPC: 0.230191 cumulative IPC: 0.481428 (Simulation time: 4 hr 22 min 38 sec) 
Heartbeat CPU 0 instructions: 90000002 cycles: 115559119 heartbeat IPC: 0.241994 cumulative IPC: 0.469807 (Simulation time: 4 hr 25 min 56 sec) 
Heartbeat CPU 0 instructions: 91000000 cycles: 117251998 heartbeat IPC: 0.590708 cumulative IPC: 0.472164 (Simulation time: 4 hr 28 min 27 sec) 
Heartbeat CPU 0 instructions: 92000000 cycles: 119014727 heartbeat IPC: 0.567302 cumulative IPC: 0.474057 (Simulation time: 4 hr 31 min 27 sec) 
Heartbeat CPU 0 instructions: 93000001 cycles: 120784043 heartbeat IPC: 0.565191 cumulative IPC: 0.475841 (Simulation time: 4 hr 33 min 55 sec) 
Heartbeat CPU 0 instructions: 94000003 cycles: 122557783 heartbeat IPC: 0.563782 cumulative IPC: 0.477534 (Simulation time: 4 hr 36 min 49 sec) 
Heartbeat CPU 0 instructions: 95000001 cycles: 124276832 heartbeat IPC: 0.581716 cumulative IPC: 0.479442 (Simulation time: 4 hr 39 min 35 sec) 
Heartbeat CPU 0 instructions: 96000000 cycles: 125995738 heartbeat IPC: 0.581765 cumulative IPC: 0.481283 (Simulation time: 4 hr 42 min 11 sec) 
Heartbeat CPU 0 instructions: 97000002 cycles: 127763612 heartbeat IPC: 0.565652 cumulative IPC: 0.482815 (Simulation time: 4 hr 45 min 7 sec) 
Heartbeat CPU 0 instructions: 98000000 cycles: 129535908 heartbeat IPC: 0.564239 cumulative IPC: 0.484271 (Simulation time: 4 hr 47 min 49 sec) 
Heartbeat CPU 0 instructions: 99000002 cycles: 131303119 heartbeat IPC: 0.565865 cumulative IPC: 0.4857 (Simulation time: 4 hr 50 min 34 sec) 
Heartbeat CPU 0 instructions: 100000000 cycles: 132990949 heartbeat IPC: 0.592476 cumulative IPC: 0.487457 (Simulation time: 4 hr 54 min 14 sec) 
Heartbeat CPU 0 instructions: 101000002 cycles: 134743391 heartbeat IPC: 0.570633 cumulative IPC: 0.488854 (Simulation time: 4 hr 57 min 5 sec) 
Heartbeat CPU 0 instructions: 102000000 cycles: 138098869 heartbeat IPC: 0.29802 cumulative IPC: 0.482908 (Simulation time: 5 hr 0 min 16 sec) 
Heartbeat CPU 0 instructions: 103000002 cycles: 143247548 heartbeat IPC: 0.194225 cumulative IPC: 0.469734 (Simulation time: 5 hr 4 min 52 sec) 
Heartbeat CPU 0 instructions: 104000000 cycles: 144973571 heartbeat IPC: 0.579365 cumulative IPC: 0.471386 (Simulation time: 5 hr 7 min 31 sec) 
Heartbeat CPU 0 instructions: 105000002 cycles: 146687341 heartbeat IPC: 0.58351 cumulative IPC: 0.473039 (Simulation time: 5 hr 10 min 21 sec) 
Heartbeat CPU 0 instructions: 106000001 cycles: 148458425 heartbeat IPC: 0.564625 cumulative IPC: 0.474413 (Simulation time: 5 hr 13 min 35 sec) 
Heartbeat CPU 0 instructions: 107000003 cycles: 150227011 heartbeat IPC: 0.565425 cumulative IPC: 0.475756 (Simulation time: 5 hr 16 min 35 sec) 
Heartbeat CPU 0 instructions: 108000000 cycles: 151994772 heartbeat IPC: 0.565686 cumulative IPC: 0.477064 (Simulation time: 5 hr 19 min 31 sec) 
Heartbeat CPU 0 instructions: 109000003 cycles: 153690265 heartbeat IPC: 0.589801 cumulative IPC: 0.478615 (Simulation time: 5 hr 22 min 9 sec) 
Heartbeat CPU 0 instructions: 110000002 cycles: 155438734 heartbeat IPC: 0.571928 cumulative IPC: 0.47992 (Simulation time: 5 hr 25 min 19 sec) 
Heartbeat CPU 0 instructions: 111000002 cycles: 157208343 heartbeat IPC: 0.565097 cumulative IPC: 0.481108 (Simulation time: 5 hr 28 min 21 sec) 
Heartbeat CPU 0 instructions: 112000000 cycles: 158979922 heartbeat IPC: 0.564467 cumulative IPC: 0.482257 (Simulation time: 5 hr 31 min 38 sec) 
Heartbeat CPU 0 instructions: 113000002 cycles: 160733652 heartbeat IPC: 0.570214 cumulative IPC: 0.483441 (Simulation time: 5 hr 34 min 28 sec) 
Heartbeat CPU 0 instructions: 114000002 cycles: 162423571 heartbeat IPC: 0.591744 cumulative IPC: 0.484827 (Simulation time: 5 hr 37 min 2 sec) 
Heartbeat CPU 0 instructions: 115000001 cycles: 164860930 heartbeat IPC: 0.41028 cumulative IPC: 0.483476 (Simulation time: 5 hr 40 min 17 sec) 
Heartbeat CPU 0 instructions: 116000000 cycles: 170932776 heartbeat IPC: 0.164694 cumulative IPC: 0.469701 (Simulation time: 5 hr 43 min 43 sec) 
Heartbeat CPU 0 instructions: 117000003 cycles: 172703498 heartbeat IPC: 0.564743 cumulative IPC: 0.470884 (Simulation time: 5 hr 46 min 9 sec) 
Heartbeat CPU 0 instructions: 118000001 cycles: 174402235 heartbeat IPC: 0.588671 cumulative IPC: 0.472273 (Simulation time: 5 hr 49 min 49 sec) 
Heartbeat CPU 0 instructions: 119000001 cycles: 176143304 heartbeat IPC: 0.57436 cumulative IPC: 0.473493 (Simulation time: 5 hr 53 min 8 sec) 
Heartbeat CPU 0 instructions: 120000000 cycles: 177912834 heartbeat IPC: 0.565121 cumulative IPC: 0.474592 (Simulation time: 5 hr 55 min 56 sec) 
Heartbeat CPU 0 instructions: 121000000 cycles: 179685147 heartbeat IPC: 0.564234 cumulative IPC: 0.475657 (Simulation time: 5 hr 58 min 39 sec) 
Heartbeat CPU 0 instructions: 122000003 cycles: 181443353 heartbeat IPC: 0.568763 cumulative IPC: 0.476741 (Simulation time: 6 hr 1 min 24 sec) 
Heartbeat CPU 0 instructions: 123000002 cycles: 183131114 heartbeat IPC: 0.5925 cumulative IPC: 0.47802 (Simulation time: 6 hr 3 min 47 sec) 
Heartbeat CPU 0 instructions: 124000000 cycles: 184897164 heartbeat IPC: 0.566234 cumulative IPC: 0.479028 (Simulation time: 6 hr 6 min 23 sec) 
Heartbeat CPU 0 instructions: 125000001 cycles: 186667047 heartbeat IPC: 0.56501 cumulative IPC: 0.480002 (Simulation time: 6 hr 9 min 11 sec) 
Heartbeat CPU 0 instructions: 126000000 cycles: 188436041 heartbeat IPC: 0.565292 cumulative IPC: 0.480957 (Simulation time: 6 hr 11 min 42 sec) 
Heartbeat CPU 0 instructions: 127000003 cycles: 190158936 heartbeat IPC: 0.58042 cumulative IPC: 0.48203 (Simulation time: 6 hr 14 min 24 sec) 
Heartbeat CPU 0 instructions: 128000000 cycles: 191929961 heartbeat IPC: 0.564643 cumulative IPC: 0.482936 (Simulation time: 6 hr 17 min 0 sec) 
Heartbeat CPU 0 instructions: 129000001 cycles: 198788113 heartbeat IPC: 0.145812 cumulative IPC: 0.469204 (Simulation time: 6 hr 20 min 29 sec) 
Heartbeat CPU 0 instructions: 130000002 cycles: 208238610 heartbeat IPC: 0.105815 cumulative IPC: 0.449891 (Simulation time: 6 hr 24 min 15 sec) 
Heartbeat CPU 0 instructions: 131000002 cycles: 212173631 heartbeat IPC: 0.254128 cumulative IPC: 0.445653 (Simulation time: 6 hr 27 min 8 sec) 
Heartbeat CPU 0 instructions: 132000000 cycles: 213950842 heartbeat IPC: 0.562678 cumulative IPC: 0.446786 (Simulation time: 6 hr 29 min 25 sec) 
Heartbeat CPU 0 instructions: 133000000 cycles: 215650614 heartbeat IPC: 0.588314 cumulative IPC: 0.448085 (Simulation time: 6 hr 31 min 37 sec) 
Heartbeat CPU 0 instructions: 134000003 cycles: 217419279 heartbeat IPC: 0.5654 cumulative IPC: 0.449194 (Simulation time: 6 hr 33 min 51 sec) 
Heartbeat CPU 0 instructions: 135000002 cycles: 219203049 heartbeat IPC: 0.56061 cumulative IPC: 0.450247 (Simulation time: 6 hr 36 min 0 sec) 
Heartbeat CPU 0 instructions: 136000000 cycles: 220992883 heartbeat IPC: 0.55871 cumulative IPC: 0.451266 (Simulation time: 6 hr 38 min 8 sec) 
Heartbeat CPU 0 instructions: 137000001 cycles: 222743648 heartbeat IPC: 0.571179 cumulative IPC: 0.452357 (Simulation time: 6 hr 40 min 4 sec) 
Heartbeat CPU 0 instructions: 138000001 cycles: 224454719 heartbeat IPC: 0.584429 cumulative IPC: 0.453522 (Simulation time: 6 hr 41 min 54 sec) 
Heartbeat CPU 0 instructions: 139000003 cycles: 226234267 heartbeat IPC: 0.561942 cumulative IPC: 0.454507 (Simulation time: 6 hr 43 min 34 sec) 
Heartbeat CPU 0 instructions: 140000000 cycles: 228023922 heartbeat IPC: 0.558765 cumulative IPC: 0.455451 (Simulation time: 6 hr 45 min 13 sec) 
Heartbeat CPU 0 instructions: 141000003 cycles: 229806366 heartbeat IPC: 0.561029 cumulative IPC: 0.456395 (Simulation time: 6 hr 46 min 45 sec) 
Heartbeat CPU 0 instructions: 142000003 cycles: 231523712 heartbeat IPC: 0.582294 cumulative IPC: 0.45747 (Simulation time: 6 hr 48 min 23 sec) 
Heartbeat CPU 0 instructions: 143000002 cycles: 235417952 heartbeat IPC: 0.256789 cumulative IPC: 0.453658 (Simulation time: 6 hr 50 min 13 sec) 
Heartbeat CPU 0 instructions: 144000000 cycles: 240388832 heartbeat IPC: 0.201171 cumulative IPC: 0.447681 (Simulation time: 6 hr 52 min 12 sec) 
Heartbeat CPU 0 instructions: 145000003 cycles: 242128292 heartbeat IPC: 0.574893 cumulative IPC: 0.448726 (Simulation time: 6 hr 53 min 40 sec) 
Heartbeat CPU 0 instructions: 146000001 cycles: 243831885 heartbeat IPC: 0.586994 cumulative IPC: 0.44983 (Simulation time: 6 hr 54 min 54 sec) 
Heartbeat CPU 0 instructions: 147000001 cycles: 245495143 heartbeat IPC: 0.60123 cumulative IPC: 0.451001 (Simulation time: 6 hr 56 min 5 sec) 
Heartbeat CPU 0 instructions: 148000000 cycles: 247230103 heartbeat IPC: 0.576382 cumulative IPC: 0.452004 (Simulation time: 6 hr 57 min 9 sec) 
Heartbeat CPU 0 instructions: 149000000 cycles: 248967729 heartbeat IPC: 0.575498 cumulative IPC: 0.452986 (Simulation time: 6 hr 58 min 5 sec) 
Heartbeat CPU 0 instructions: 150000002 cycles: 250704014 heartbeat IPC: 0.575943 cumulative IPC: 0.453955 (Simulation time: 6 hr 59 min 4 sec) 
Finished CPU 0 instructions: 100000002 cycles: 220286212 cummulative IPC: 0.453955 (Simulation time: 6 hr 59 min 4 sec) 

ChampSim completed all CPUs

Region of Interest Statistics

CPU 0 cummulative IPC: 0.453955 instructions: 100000002 cycles: 220286212
LLC TOTAL     ACCESS:    1243822  HIT:     314723  MISS:     929099
LLC LOAD      ACCESS:      30333  HIT:       3155  MISS:      27178
LLC RFO       ACCESS:     290712  HIT:      59093  MISS:     231619
LLC PREFETCH  ACCESS:     630382  HIT:     156525  MISS:     473857
LLC WRITEBACK ACCESS:     292395  HIT:      95950  MISS:     196445
