
*** ChampSim Multicore Out-of-Order Simulator ***

Warmup Instructions: 50000000
Simulation Instructions: 100000000
Configuration: 2
Number of CPUs: 1
LLC sets: 2048
LLC ways: 16
Off-chip DRAM Channels: 1 Width: 64-bit Data Rate: 1600 MT/s

CPU 0 runs /datasets/cs240c-wi22-a00-public/data/Assignment2-gz/milc_360B.trace.gz
CPU 0 L1D next line prefetcher
CPU 0 L2C IP-based stride prefetcher
Heartbeat CPU 0 instructions: 1000001 cycles: 549511 heartbeat IPC: 1.8198 cumulative IPC: 1.8198 (Simulation time: 0 hr 2 min 42 sec) 
Heartbeat CPU 0 instructions: 2000003 cycles: 1099026 heartbeat IPC: 1.81979 cumulative IPC: 1.8198 (Simulation time: 0 hr 5 min 0 sec) 
Heartbeat CPU 0 instructions: 3000001 cycles: 1648486 heartbeat IPC: 1.81997 cumulative IPC: 1.81985 (Simulation time: 0 hr 7 min 52 sec) 
Heartbeat CPU 0 instructions: 4000000 cycles: 2197959 heartbeat IPC: 1.81992 cumulative IPC: 1.81987 (Simulation time: 0 hr 10 min 13 sec) 
Heartbeat CPU 0 instructions: 5000002 cycles: 2747468 heartbeat IPC: 1.81981 cumulative IPC: 1.81986 (Simulation time: 0 hr 12 min 38 sec) 
Heartbeat CPU 0 instructions: 6000001 cycles: 3296983 heartbeat IPC: 1.81978 cumulative IPC: 1.81985 (Simulation time: 0 hr 15 min 25 sec) 
Heartbeat CPU 0 instructions: 7000000 cycles: 3846462 heartbeat IPC: 1.8199 cumulative IPC: 1.81985 (Simulation time: 0 hr 17 min 56 sec) 
Heartbeat CPU 0 instructions: 8000000 cycles: 4395923 heartbeat IPC: 1.81997 cumulative IPC: 1.81987 (Simulation time: 0 hr 20 min 16 sec) 
Heartbeat CPU 0 instructions: 9000001 cycles: 4945436 heartbeat IPC: 1.8198 cumulative IPC: 1.81986 (Simulation time: 0 hr 22 min 42 sec) 
Heartbeat CPU 0 instructions: 10000001 cycles: 5494911 heartbeat IPC: 1.81992 cumulative IPC: 1.81987 (Simulation time: 0 hr 25 min 10 sec) 
Heartbeat CPU 0 instructions: 11000001 cycles: 6044376 heartbeat IPC: 1.81995 cumulative IPC: 1.81987 (Simulation time: 0 hr 27 min 48 sec) 
Heartbeat CPU 0 instructions: 12000000 cycles: 6593855 heartbeat IPC: 1.8199 cumulative IPC: 1.81988 (Simulation time: 0 hr 30 min 4 sec) 
Heartbeat CPU 0 instructions: 13000001 cycles: 7143384 heartbeat IPC: 1.81974 cumulative IPC: 1.81987 (Simulation time: 0 hr 32 min 47 sec) 
Heartbeat CPU 0 instructions: 14000003 cycles: 7692851 heartbeat IPC: 1.81995 cumulative IPC: 1.81987 (Simulation time: 0 hr 35 min 23 sec) 
Heartbeat CPU 0 instructions: 15000003 cycles: 8242328 heartbeat IPC: 1.81991 cumulative IPC: 1.81987 (Simulation time: 0 hr 37 min 39 sec) 
Heartbeat CPU 0 instructions: 16000000 cycles: 8791808 heartbeat IPC: 1.8199 cumulative IPC: 1.81988 (Simulation time: 0 hr 40 min 22 sec) 
Heartbeat CPU 0 instructions: 17000001 cycles: 9341333 heartbeat IPC: 1.81976 cumulative IPC: 1.81987 (Simulation time: 0 hr 42 min 39 sec) 
Heartbeat CPU 0 instructions: 18000001 cycles: 9890809 heartbeat IPC: 1.81992 cumulative IPC: 1.81987 (Simulation time: 0 hr 44 min 59 sec) 
Heartbeat CPU 0 instructions: 19000000 cycles: 10440288 heartbeat IPC: 1.8199 cumulative IPC: 1.81987 (Simulation time: 0 hr 47 min 20 sec) 
Heartbeat CPU 0 instructions: 20000000 cycles: 10989424 heartbeat IPC: 1.82104 cumulative IPC: 1.81993 (Simulation time: 0 hr 50 min 5 sec) 
Heartbeat CPU 0 instructions: 21000000 cycles: 11536405 heartbeat IPC: 1.82822 cumulative IPC: 1.82032 (Simulation time: 0 hr 52 min 45 sec) 
Heartbeat CPU 0 instructions: 22000003 cycles: 12083409 heartbeat IPC: 1.82815 cumulative IPC: 1.82068 (Simulation time: 0 hr 55 min 3 sec) 
Heartbeat CPU 0 instructions: 23000003 cycles: 12630401 heartbeat IPC: 1.82818 cumulative IPC: 1.821 (Simulation time: 0 hr 57 min 39 sec) 
Heartbeat CPU 0 instructions: 24000000 cycles: 13177380 heartbeat IPC: 1.82822 cumulative IPC: 1.8213 (Simulation time: 1 hr 0 min 31 sec) 
Heartbeat CPU 0 instructions: 25000003 cycles: 13724416 heartbeat IPC: 1.82804 cumulative IPC: 1.82157 (Simulation time: 1 hr 3 min 46 sec) 
Heartbeat CPU 0 instructions: 26000003 cycles: 14271406 heartbeat IPC: 1.82819 cumulative IPC: 1.82182 (Simulation time: 1 hr 7 min 12 sec) 
Heartbeat CPU 0 instructions: 27000000 cycles: 14818381 heartbeat IPC: 1.82823 cumulative IPC: 1.82206 (Simulation time: 1 hr 10 min 8 sec) 
Heartbeat CPU 0 instructions: 28000000 cycles: 15365365 heartbeat IPC: 1.82821 cumulative IPC: 1.82228 (Simulation time: 1 hr 12 min 34 sec) 
Heartbeat CPU 0 instructions: 29000003 cycles: 15912381 heartbeat IPC: 1.82811 cumulative IPC: 1.82248 (Simulation time: 1 hr 14 min 57 sec) 
Heartbeat CPU 0 instructions: 30000000 cycles: 16459393 heartbeat IPC: 1.82811 cumulative IPC: 1.82267 (Simulation time: 1 hr 17 min 22 sec) 
Heartbeat CPU 0 instructions: 31000003 cycles: 17006360 heartbeat IPC: 1.82827 cumulative IPC: 1.82285 (Simulation time: 1 hr 20 min 14 sec) 
Heartbeat CPU 0 instructions: 32000000 cycles: 17553384 heartbeat IPC: 1.82807 cumulative IPC: 1.82301 (Simulation time: 1 hr 22 min 57 sec) 
Heartbeat CPU 0 instructions: 33000000 cycles: 18100356 heartbeat IPC: 1.82825 cumulative IPC: 1.82317 (Simulation time: 1 hr 25 min 30 sec) 
Heartbeat CPU 0 instructions: 34000001 cycles: 18647368 heartbeat IPC: 1.82812 cumulative IPC: 1.82331 (Simulation time: 1 hr 28 min 9 sec) 
Heartbeat CPU 0 instructions: 35000001 cycles: 19194373 heartbeat IPC: 1.82814 cumulative IPC: 1.82345 (Simulation time: 1 hr 30 min 52 sec) 
Heartbeat CPU 0 instructions: 36000000 cycles: 19741323 heartbeat IPC: 1.82832 cumulative IPC: 1.82359 (Simulation time: 1 hr 33 min 51 sec) 
Heartbeat CPU 0 instructions: 37000001 cycles: 20288363 heartbeat IPC: 1.82802 cumulative IPC: 1.82371 (Simulation time: 1 hr 36 min 49 sec) 
Heartbeat CPU 0 instructions: 38000001 cycles: 20835354 heartbeat IPC: 1.82818 cumulative IPC: 1.82382 (Simulation time: 1 hr 39 min 5 sec) 
Heartbeat CPU 0 instructions: 39000000 cycles: 21382325 heartbeat IPC: 1.82825 cumulative IPC: 1.82394 (Simulation time: 1 hr 42 min 0 sec) 
Heartbeat CPU 0 instructions: 40000000 cycles: 21929320 heartbeat IPC: 1.82817 cumulative IPC: 1.82404 (Simulation time: 1 hr 44 min 11 sec) 
Heartbeat CPU 0 instructions: 41000001 cycles: 22476331 heartbeat IPC: 1.82812 cumulative IPC: 1.82414 (Simulation time: 1 hr 46 min 50 sec) 
Heartbeat CPU 0 instructions: 42000001 cycles: 23023324 heartbeat IPC: 1.82818 cumulative IPC: 1.82424 (Simulation time: 1 hr 49 min 2 sec) 
Heartbeat CPU 0 instructions: 43000000 cycles: 23570300 heartbeat IPC: 1.82823 cumulative IPC: 1.82433 (Simulation time: 1 hr 51 min 7 sec) 
Heartbeat CPU 0 instructions: 44000000 cycles: 24074427 heartbeat IPC: 1.98363 cumulative IPC: 1.82767 (Simulation time: 1 hr 53 min 23 sec) 
Heartbeat CPU 0 instructions: 45000002 cycles: 24567679 heartbeat IPC: 2.02737 cumulative IPC: 1.83167 (Simulation time: 1 hr 55 min 53 sec) 
Heartbeat CPU 0 instructions: 46000000 cycles: 25060917 heartbeat IPC: 2.02741 cumulative IPC: 1.83553 (Simulation time: 1 hr 58 min 28 sec) 
Heartbeat CPU 0 instructions: 47000000 cycles: 25554137 heartbeat IPC: 2.02749 cumulative IPC: 1.83923 (Simulation time: 2 hr 1 min 16 sec) 
Heartbeat CPU 0 instructions: 48000000 cycles: 26047374 heartbeat IPC: 2.02742 cumulative IPC: 1.8428 (Simulation time: 2 hr 3 min 56 sec) 
Heartbeat CPU 0 instructions: 49000002 cycles: 26540623 heartbeat IPC: 2.02738 cumulative IPC: 1.84623 (Simulation time: 2 hr 6 min 46 sec) 
Heartbeat CPU 0 instructions: 50000000 cycles: 27018579 heartbeat IPC: 2.09224 cumulative IPC: 1.85058 (Simulation time: 2 hr 9 min 20 sec) 

Warmup complete CPU 0 instructions: 50000004 cycles: 27018580 (Simulation time: 2 hr 9 min 21 sec) 

Heartbeat CPU 0 instructions: 51000002 cycles: 28194852 heartbeat IPC: 0.850145 cumulative IPC: 0.850142 (Simulation time: 2 hr 11 min 54 sec) 
Heartbeat CPU 0 instructions: 52000000 cycles: 30093159 heartbeat IPC: 0.526784 cumulative IPC: 0.650494 (Simulation time: 2 hr 14 min 47 sec) 
Heartbeat CPU 0 instructions: 53000002 cycles: 32348836 heartbeat IPC: 0.443327 cumulative IPC: 0.562824 (Simulation time: 2 hr 17 min 38 sec) 
Heartbeat CPU 0 instructions: 54000003 cycles: 34608538 heartbeat IPC: 0.442537 cumulative IPC: 0.527012 (Simulation time: 2 hr 20 min 25 sec) 
Heartbeat CPU 0 instructions: 55000003 cycles: 36861439 heartbeat IPC: 0.443872 cumulative IPC: 0.507982 (Simulation time: 2 hr 23 min 49 sec) 
Heartbeat CPU 0 instructions: 56000000 cycles: 39091585 heartbeat IPC: 0.4484 cumulative IPC: 0.496976 (Simulation time: 2 hr 26 min 29 sec) 
Heartbeat CPU 0 instructions: 57000000 cycles: 41332931 heartbeat IPC: 0.44616 cumulative IPC: 0.489019 (Simulation time: 2 hr 29 min 8 sec) 
Heartbeat CPU 0 instructions: 58000000 cycles: 43576652 heartbeat IPC: 0.445688 cumulative IPC: 0.483148 (Simulation time: 2 hr 32 min 14 sec) 
Heartbeat CPU 0 instructions: 59000001 cycles: 45816717 heartbeat IPC: 0.446416 cumulative IPC: 0.478771 (Simulation time: 2 hr 35 min 7 sec) 
Heartbeat CPU 0 instructions: 60000000 cycles: 48056249 heartbeat IPC: 0.446521 cumulative IPC: 0.475338 (Simulation time: 2 hr 38 min 14 sec) 
Heartbeat CPU 0 instructions: 61000000 cycles: 50295603 heartbeat IPC: 0.446557 cumulative IPC: 0.472569 (Simulation time: 2 hr 41 min 17 sec) 
Heartbeat CPU 0 instructions: 62000003 cycles: 52538481 heartbeat IPC: 0.445857 cumulative IPC: 0.470221 (Simulation time: 2 hr 43 min 41 sec) 
Heartbeat CPU 0 instructions: 63000003 cycles: 54788237 heartbeat IPC: 0.444493 cumulative IPC: 0.468137 (Simulation time: 2 hr 46 min 19 sec) 
Heartbeat CPU 0 instructions: 64000000 cycles: 57037472 heartbeat IPC: 0.444594 cumulative IPC: 0.466373 (Simulation time: 2 hr 48 min 53 sec) 
Heartbeat CPU 0 instructions: 65000001 cycles: 59282911 heartbeat IPC: 0.445348 cumulative IPC: 0.46491 (Simulation time: 2 hr 51 min 57 sec) 
Heartbeat CPU 0 instructions: 66000001 cycles: 61532379 heartbeat IPC: 0.44455 cumulative IPC: 0.463583 (Simulation time: 2 hr 54 min 14 sec) 
Heartbeat CPU 0 instructions: 67000002 cycles: 63782655 heartbeat IPC: 0.44439 cumulative IPC: 0.462408 (Simulation time: 2 hr 56 min 39 sec) 
Heartbeat CPU 0 instructions: 68000000 cycles: 66026689 heartbeat IPC: 0.445625 cumulative IPC: 0.461442 (Simulation time: 2 hr 59 min 5 sec) 
Heartbeat CPU 0 instructions: 69000001 cycles: 68275859 heartbeat IPC: 0.444609 cumulative IPC: 0.460525 (Simulation time: 3 hr 1 min 39 sec) 
Heartbeat CPU 0 instructions: 70000000 cycles: 70528974 heartbeat IPC: 0.44383 cumulative IPC: 0.45966 (Simulation time: 3 hr 4 min 36 sec) 
Heartbeat CPU 0 instructions: 71000000 cycles: 72780407 heartbeat IPC: 0.444162 cumulative IPC: 0.458898 (Simulation time: 3 hr 7 min 33 sec) 
Heartbeat CPU 0 instructions: 72000000 cycles: 75024922 heartbeat IPC: 0.445531 cumulative IPC: 0.458273 (Simulation time: 3 hr 10 min 18 sec) 
Heartbeat CPU 0 instructions: 73000001 cycles: 77257518 heartbeat IPC: 0.44791 cumulative IPC: 0.457812 (Simulation time: 3 hr 12 min 30 sec) 
Heartbeat CPU 0 instructions: 74000002 cycles: 78859829 heartbeat IPC: 0.624099 cumulative IPC: 0.462952 (Simulation time: 3 hr 15 min 16 sec) 
Heartbeat CPU 0 instructions: 75000003 cycles: 80468348 heartbeat IPC: 0.621691 cumulative IPC: 0.467729 (Simulation time: 3 hr 17 min 47 sec) 
Heartbeat CPU 0 instructions: 76000000 cycles: 82082770 heartbeat IPC: 0.619415 cumulative IPC: 0.472176 (Simulation time: 3 hr 20 min 3 sec) 
Heartbeat CPU 0 instructions: 77000000 cycles: 83680008 heartbeat IPC: 0.626081 cumulative IPC: 0.476515 (Simulation time: 3 hr 22 min 33 sec) 
Heartbeat CPU 0 instructions: 78000000 cycles: 85289365 heartbeat IPC: 0.621366 cumulative IPC: 0.480515 (Simulation time: 3 hr 25 min 5 sec) 
Heartbeat CPU 0 instructions: 79000000 cycles: 86895463 heartbeat IPC: 0.622627 cumulative IPC: 0.484327 (Simulation time: 3 hr 27 min 46 sec) 
Heartbeat CPU 0 instructions: 80000000 cycles: 88497397 heartbeat IPC: 0.624245 cumulative IPC: 0.487973 (Simulation time: 3 hr 30 min 52 sec) 
Heartbeat CPU 0 instructions: 81000003 cycles: 90098000 heartbeat IPC: 0.624766 cumulative IPC: 0.491444 (Simulation time: 3 hr 33 min 31 sec) 
Heartbeat CPU 0 instructions: 82000003 cycles: 91696242 heartbeat IPC: 0.625687 cumulative IPC: 0.494761 (Simulation time: 3 hr 36 min 8 sec) 
Heartbeat CPU 0 instructions: 83000002 cycles: 93305777 heartbeat IPC: 0.621297 cumulative IPC: 0.497834 (Simulation time: 3 hr 38 min 43 sec) 
Heartbeat CPU 0 instructions: 84000000 cycles: 94913910 heartbeat IPC: 0.621838 cumulative IPC: 0.500771 (Simulation time: 3 hr 41 min 17 sec) 
Heartbeat CPU 0 instructions: 85000000 cycles: 96520482 heartbeat IPC: 0.622443 cumulative IPC: 0.503583 (Simulation time: 3 hr 44 min 40 sec) 
Heartbeat CPU 0 instructions: 86000000 cycles: 98129180 heartbeat IPC: 0.621621 cumulative IPC: 0.506254 (Simulation time: 3 hr 49 min 1 sec) 
Heartbeat CPU 0 instructions: 87000000 cycles: 99730902 heartbeat IPC: 0.624328 cumulative IPC: 0.508855 (Simulation time: 3 hr 52 min 8 sec) 
Heartbeat CPU 0 instructions: 88000000 cycles: 101331563 heartbeat IPC: 0.624742 cumulative IPC: 0.511351 (Simulation time: 3 hr 56 min 8 sec) 
Heartbeat CPU 0 instructions: 89000002 cycles: 102936310 heartbeat IPC: 0.623152 cumulative IPC: 0.513714 (Simulation time: 3 hr 59 min 0 sec) 
Heartbeat CPU 0 instructions: 90000002 cycles: 104536616 heartbeat IPC: 0.62488 cumulative IPC: 0.516009 (Simulation time: 4 hr 1 min 54 sec) 
Heartbeat CPU 0 instructions: 91000003 cycles: 106138719 heartbeat IPC: 0.62418 cumulative IPC: 0.518199 (Simulation time: 4 hr 4 min 35 sec) 
Heartbeat CPU 0 instructions: 92000000 cycles: 107742566 heartbeat IPC: 0.623499 cumulative IPC: 0.520291 (Simulation time: 4 hr 7 min 23 sec) 
Heartbeat CPU 0 instructions: 93000000 cycles: 109339359 heartbeat IPC: 0.626255 cumulative IPC: 0.522347 (Simulation time: 4 hr 10 min 9 sec) 
Heartbeat CPU 0 instructions: 94000000 cycles: 110942395 heartbeat IPC: 0.623816 cumulative IPC: 0.524285 (Simulation time: 4 hr 12 min 47 sec) 
Heartbeat CPU 0 instructions: 95000000 cycles: 112547237 heartbeat IPC: 0.623114 cumulative IPC: 0.526139 (Simulation time: 4 hr 15 min 48 sec) 
Heartbeat CPU 0 instructions: 96000000 cycles: 114146580 heartbeat IPC: 0.625257 cumulative IPC: 0.527959 (Simulation time: 4 hr 19 min 20 sec) 
Heartbeat CPU 0 instructions: 97000002 cycles: 115741408 heartbeat IPC: 0.627028 cumulative IPC: 0.52974 (Simulation time: 4 hr 22 min 27 sec) 
Heartbeat CPU 0 instructions: 98000003 cycles: 117333286 heartbeat IPC: 0.628189 cumulative IPC: 0.531475 (Simulation time: 4 hr 25 min 28 sec) 
Heartbeat CPU 0 instructions: 99000000 cycles: 118922781 heartbeat IPC: 0.629129 cumulative IPC: 0.533164 (Simulation time: 4 hr 28 min 18 sec) 
Heartbeat CPU 0 instructions: 100000000 cycles: 120514513 heartbeat IPC: 0.628246 cumulative IPC: 0.534783 (Simulation time: 4 hr 31 min 10 sec) 
Heartbeat CPU 0 instructions: 101000002 cycles: 122106425 heartbeat IPC: 0.628177 cumulative IPC: 0.536346 (Simulation time: 4 hr 33 min 55 sec) 
Heartbeat CPU 0 instructions: 102000000 cycles: 123696524 heartbeat IPC: 0.62889 cumulative IPC: 0.537868 (Simulation time: 4 hr 36 min 37 sec) 
Heartbeat CPU 0 instructions: 103000002 cycles: 125289713 heartbeat IPC: 0.627673 cumulative IPC: 0.539324 (Simulation time: 4 hr 39 min 33 sec) 
Heartbeat CPU 0 instructions: 104000000 cycles: 126875587 heartbeat IPC: 0.630566 cumulative IPC: 0.540773 (Simulation time: 4 hr 42 min 37 sec) 
Heartbeat CPU 0 instructions: 105000003 cycles: 128460162 heartbeat IPC: 0.631086 cumulative IPC: 0.542184 (Simulation time: 4 hr 45 min 42 sec) 
Heartbeat CPU 0 instructions: 106000002 cycles: 130052160 heartbeat IPC: 0.628141 cumulative IPC: 0.543512 (Simulation time: 4 hr 48 min 48 sec) 
Heartbeat CPU 0 instructions: 107000000 cycles: 131639749 heartbeat IPC: 0.629885 cumulative IPC: 0.544823 (Simulation time: 4 hr 51 min 26 sec) 
Heartbeat CPU 0 instructions: 108000000 cycles: 133230597 heartbeat IPC: 0.628596 cumulative IPC: 0.546078 (Simulation time: 4 hr 54 min 30 sec) 
Heartbeat CPU 0 instructions: 109000002 cycles: 134814884 heartbeat IPC: 0.6312 cumulative IPC: 0.547329 (Simulation time: 4 hr 57 min 11 sec) 
Heartbeat CPU 0 instructions: 110000000 cycles: 136408800 heartbeat IPC: 0.627384 cumulative IPC: 0.548495 (Simulation time: 4 hr 59 min 37 sec) 
Heartbeat CPU 0 instructions: 111000000 cycles: 137999495 heartbeat IPC: 0.628656 cumulative IPC: 0.549644 (Simulation time: 5 hr 2 min 15 sec) 
Heartbeat CPU 0 instructions: 112000000 cycles: 139588871 heartbeat IPC: 0.629178 cumulative IPC: 0.550767 (Simulation time: 5 hr 4 min 42 sec) 
Heartbeat CPU 0 instructions: 113000002 cycles: 141176765 heartbeat IPC: 0.629766 cumulative IPC: 0.551866 (Simulation time: 5 hr 7 min 44 sec) 
Heartbeat CPU 0 instructions: 114000003 cycles: 142765370 heartbeat IPC: 0.629484 cumulative IPC: 0.552931 (Simulation time: 5 hr 10 min 25 sec) 
Heartbeat CPU 0 instructions: 115000002 cycles: 144350228 heartbeat IPC: 0.630971 cumulative IPC: 0.553985 (Simulation time: 5 hr 12 min 54 sec) 
Heartbeat CPU 0 instructions: 116000000 cycles: 145940293 heartbeat IPC: 0.628904 cumulative IPC: 0.554987 (Simulation time: 5 hr 15 min 25 sec) 
Heartbeat CPU 0 instructions: 117000003 cycles: 147526525 heartbeat IPC: 0.630427 cumulative IPC: 0.55598 (Simulation time: 5 hr 18 min 29 sec) 
Heartbeat CPU 0 instructions: 118000001 cycles: 149114807 heartbeat IPC: 0.62961 cumulative IPC: 0.556938 (Simulation time: 5 hr 21 min 7 sec) 
Heartbeat CPU 0 instructions: 119000000 cycles: 150706642 heartbeat IPC: 0.628205 cumulative IPC: 0.557855 (Simulation time: 5 hr 23 min 32 sec) 
Heartbeat CPU 0 instructions: 120000000 cycles: 152495447 heartbeat IPC: 0.559032 cumulative IPC: 0.557872 (Simulation time: 5 hr 26 min 37 sec) 
Heartbeat CPU 0 instructions: 121000003 cycles: 154640984 heartbeat IPC: 0.466085 cumulative IPC: 0.556329 (Simulation time: 5 hr 30 min 29 sec) 
Heartbeat CPU 0 instructions: 122000002 cycles: 156942490 heartbeat IPC: 0.434498 cumulative IPC: 0.55417 (Simulation time: 5 hr 33 min 42 sec) 
Heartbeat CPU 0 instructions: 123000002 cycles: 159257109 heartbeat IPC: 0.432037 cumulative IPC: 0.552033 (Simulation time: 5 hr 37 min 52 sec) 
Heartbeat CPU 0 instructions: 124000000 cycles: 161606905 heartbeat IPC: 0.425568 cumulative IPC: 0.549825 (Simulation time: 5 hr 41 min 13 sec) 
Heartbeat CPU 0 instructions: 125000002 cycles: 163907174 heartbeat IPC: 0.434733 cumulative IPC: 0.547891 (Simulation time: 5 hr 45 min 10 sec) 
Heartbeat CPU 0 instructions: 126000001 cycles: 166231585 heartbeat IPC: 0.430216 cumulative IPC: 0.545926 (Simulation time: 5 hr 48 min 44 sec) 
Heartbeat CPU 0 instructions: 127000001 cycles: 170788405 heartbeat IPC: 0.219451 cumulative IPC: 0.535578 (Simulation time: 5 hr 55 min 28 sec) 
Heartbeat CPU 0 instructions: 128000000 cycles: 172631911 heartbeat IPC: 0.542444 cumulative IPC: 0.535665 (Simulation time: 5 hr 58 min 21 sec) 
Heartbeat CPU 0 instructions: 129000000 cycles: 174451975 heartbeat IPC: 0.549431 cumulative IPC: 0.535835 (Simulation time: 6 hr 0 min 40 sec) 
Heartbeat CPU 0 instructions: 130000001 cycles: 176272483 heartbeat IPC: 0.549298 cumulative IPC: 0.535999 (Simulation time: 6 hr 2 min 57 sec) 
Heartbeat CPU 0 instructions: 131000003 cycles: 178088162 heartbeat IPC: 0.550759 cumulative IPC: 0.536177 (Simulation time: 6 hr 5 min 9 sec) 
Heartbeat CPU 0 instructions: 132000000 cycles: 179902590 heartbeat IPC: 0.551136 cumulative IPC: 0.536354 (Simulation time: 6 hr 7 min 23 sec) 
Heartbeat CPU 0 instructions: 133000001 cycles: 181723059 heartbeat IPC: 0.54931 cumulative IPC: 0.536507 (Simulation time: 6 hr 9 min 54 sec) 
Heartbeat CPU 0 instructions: 134000003 cycles: 183533182 heartbeat IPC: 0.55245 cumulative IPC: 0.536691 (Simulation time: 6 hr 12 min 7 sec) 
Heartbeat CPU 0 instructions: 135000001 cycles: 185352286 heartbeat IPC: 0.54972 cumulative IPC: 0.536841 (Simulation time: 6 hr 14 min 15 sec) 
Heartbeat CPU 0 instructions: 136000000 cycles: 187165853 heartbeat IPC: 0.551399 cumulative IPC: 0.537006 (Simulation time: 6 hr 16 min 29 sec) 
Heartbeat CPU 0 instructions: 137000001 cycles: 188984413 heartbeat IPC: 0.549886 cumulative IPC: 0.53715 (Simulation time: 6 hr 18 min 36 sec) 
Heartbeat CPU 0 instructions: 138000003 cycles: 190797972 heartbeat IPC: 0.551403 cumulative IPC: 0.537308 (Simulation time: 6 hr 20 min 44 sec) 
Heartbeat CPU 0 instructions: 139000003 cycles: 192613548 heartbeat IPC: 0.550789 cumulative IPC: 0.537456 (Simulation time: 6 hr 22 min 43 sec) 
Heartbeat CPU 0 instructions: 140000000 cycles: 194426983 heartbeat IPC: 0.551438 cumulative IPC: 0.537607 (Simulation time: 6 hr 24 min 35 sec) 
Heartbeat CPU 0 instructions: 141000003 cycles: 196240163 heartbeat IPC: 0.551519 cumulative IPC: 0.537756 (Simulation time: 6 hr 26 min 33 sec) 
Heartbeat CPU 0 instructions: 142000001 cycles: 198060019 heartbeat IPC: 0.549493 cumulative IPC: 0.537881 (Simulation time: 6 hr 28 min 31 sec) 
Heartbeat CPU 0 instructions: 143000003 cycles: 199880391 heartbeat IPC: 0.549339 cumulative IPC: 0.538002 (Simulation time: 6 hr 30 min 26 sec) 
Heartbeat CPU 0 instructions: 144000000 cycles: 201706746 heartbeat IPC: 0.547537 cumulative IPC: 0.538102 (Simulation time: 6 hr 32 min 24 sec) 
Heartbeat CPU 0 instructions: 145000001 cycles: 203524388 heartbeat IPC: 0.550164 cumulative IPC: 0.538226 (Simulation time: 6 hr 34 min 20 sec) 
Heartbeat CPU 0 instructions: 146000001 cycles: 205338302 heartbeat IPC: 0.551294 cumulative IPC: 0.538359 (Simulation time: 6 hr 36 min 20 sec) 
Heartbeat CPU 0 instructions: 147000001 cycles: 207164879 heartbeat IPC: 0.547472 cumulative IPC: 0.538451 (Simulation time: 6 hr 38 min 9 sec) 
Heartbeat CPU 0 instructions: 148000000 cycles: 208983875 heartbeat IPC: 0.549753 cumulative IPC: 0.538564 (Simulation time: 6 hr 39 min 52 sec) 
Heartbeat CPU 0 instructions: 149000001 cycles: 210808613 heartbeat IPC: 0.548024 cumulative IPC: 0.538658 (Simulation time: 6 hr 41 min 25 sec) 
Heartbeat CPU 0 instructions: 150000003 cycles: 212628408 heartbeat IPC: 0.549514 cumulative IPC: 0.538765 (Simulation time: 6 hr 42 min 55 sec) 
Finished CPU 0 instructions: 100000003 cycles: 185609829 cummulative IPC: 0.538765 (Simulation time: 6 hr 42 min 55 sec) 

ChampSim completed all CPUs

Region of Interest Statistics

CPU 0 cummulative IPC: 0.538765 instructions: 100000003 cycles: 185609829
LLC TOTAL     ACCESS:    3782722  HIT:     174251  MISS:    3608471
LLC LOAD      ACCESS:    1109962  HIT:        888  MISS:    1109074
LLC RFO       ACCESS:     348144  HIT:       9376  MISS:     338768
LLC PREFETCH  ACCESS:    1535603  HIT:      19703  MISS:    1515900
LLC WRITEBACK ACCESS:     789013  HIT:     144284  MISS:     644729
