
*** ChampSim Multicore Out-of-Order Simulator ***

Warmup Instructions: 50000000
Simulation Instructions: 100000000
Configuration: 2
Number of CPUs: 1
LLC sets: 2048
LLC ways: 16
Off-chip DRAM Channels: 1 Width: 64-bit Data Rate: 1600 MT/s

CPU 0 runs /datasets/cs240c-wi22-a00-public/data/Assignment2-gz/libquantum_964B.trace.gz
CPU 0 L1D next line prefetcher
CPU 0 L2C IP-based stride prefetcher
Heartbeat CPU 0 instructions: 1000002 cycles: 333341 heartbeat IPC: 2.99994 cumulative IPC: 2.99994 (Simulation time: 0 hr 1 min 39 sec) 
Heartbeat CPU 0 instructions: 2000001 cycles: 666674 heartbeat IPC: 3 cumulative IPC: 2.99997 (Simulation time: 0 hr 3 min 35 sec) 
Heartbeat CPU 0 instructions: 3000000 cycles: 1000007 heartbeat IPC: 3 cumulative IPC: 2.99998 (Simulation time: 0 hr 5 min 52 sec) 
Heartbeat CPU 0 instructions: 4000000 cycles: 1333341 heartbeat IPC: 2.99999 cumulative IPC: 2.99998 (Simulation time: 0 hr 7 min 59 sec) 
Heartbeat CPU 0 instructions: 5000000 cycles: 1666674 heartbeat IPC: 3 cumulative IPC: 2.99999 (Simulation time: 0 hr 10 min 7 sec) 
Heartbeat CPU 0 instructions: 6000002 cycles: 2000008 heartbeat IPC: 3 cumulative IPC: 2.99999 (Simulation time: 0 hr 12 min 35 sec) 
Heartbeat CPU 0 instructions: 7000001 cycles: 2331518 heartbeat IPC: 3.0165 cumulative IPC: 3.00234 (Simulation time: 0 hr 14 min 42 sec) 
Heartbeat CPU 0 instructions: 8000000 cycles: 2662240 heartbeat IPC: 3.02368 cumulative IPC: 3.00499 (Simulation time: 0 hr 16 min 34 sec) 
Heartbeat CPU 0 instructions: 9000001 cycles: 2992962 heartbeat IPC: 3.02369 cumulative IPC: 3.00705 (Simulation time: 0 hr 18 min 37 sec) 
Heartbeat CPU 0 instructions: 10000001 cycles: 3323684 heartbeat IPC: 3.02369 cumulative IPC: 3.00871 (Simulation time: 0 hr 20 min 21 sec) 
Heartbeat CPU 0 instructions: 11000000 cycles: 3654406 heartbeat IPC: 3.02368 cumulative IPC: 3.01007 (Simulation time: 0 hr 22 min 20 sec) 
Heartbeat CPU 0 instructions: 12000000 cycles: 3985113 heartbeat IPC: 3.02382 cumulative IPC: 3.01121 (Simulation time: 0 hr 24 min 27 sec) 
Heartbeat CPU 0 instructions: 13000001 cycles: 4315818 heartbeat IPC: 3.02385 cumulative IPC: 3.01218 (Simulation time: 0 hr 26 min 29 sec) 
Heartbeat CPU 0 instructions: 14000000 cycles: 4646523 heartbeat IPC: 3.02384 cumulative IPC: 3.01301 (Simulation time: 0 hr 28 min 27 sec) 
Heartbeat CPU 0 instructions: 15000003 cycles: 4977229 heartbeat IPC: 3.02384 cumulative IPC: 3.01373 (Simulation time: 0 hr 30 min 42 sec) 
Heartbeat CPU 0 instructions: 16000000 cycles: 5307934 heartbeat IPC: 3.02383 cumulative IPC: 3.01436 (Simulation time: 0 hr 32 min 49 sec) 
Heartbeat CPU 0 instructions: 17000000 cycles: 5638642 heartbeat IPC: 3.02382 cumulative IPC: 3.01491 (Simulation time: 0 hr 34 min 56 sec) 
Heartbeat CPU 0 instructions: 18000003 cycles: 5969365 heartbeat IPC: 3.02369 cumulative IPC: 3.0154 (Simulation time: 0 hr 36 min 57 sec) 
Heartbeat CPU 0 instructions: 19000002 cycles: 6300087 heartbeat IPC: 3.02368 cumulative IPC: 3.01583 (Simulation time: 0 hr 39 min 14 sec) 
Heartbeat CPU 0 instructions: 20000000 cycles: 6630808 heartbeat IPC: 3.02369 cumulative IPC: 3.01622 (Simulation time: 0 hr 41 min 23 sec) 
Heartbeat CPU 0 instructions: 21000003 cycles: 6961531 heartbeat IPC: 3.02369 cumulative IPC: 3.01658 (Simulation time: 0 hr 43 min 19 sec) 
Heartbeat CPU 0 instructions: 22000002 cycles: 7292253 heartbeat IPC: 3.02368 cumulative IPC: 3.0169 (Simulation time: 0 hr 45 min 22 sec) 
Heartbeat CPU 0 instructions: 23000000 cycles: 7622968 heartbeat IPC: 3.02375 cumulative IPC: 3.0172 (Simulation time: 0 hr 47 min 26 sec) 
Heartbeat CPU 0 instructions: 24000000 cycles: 7953674 heartbeat IPC: 3.02383 cumulative IPC: 3.01747 (Simulation time: 0 hr 49 min 25 sec) 
Heartbeat CPU 0 instructions: 25000000 cycles: 8284379 heartbeat IPC: 3.02384 cumulative IPC: 3.01773 (Simulation time: 0 hr 51 min 21 sec) 
Heartbeat CPU 0 instructions: 26000002 cycles: 8675747 heartbeat IPC: 2.55515 cumulative IPC: 2.99686 (Simulation time: 0 hr 53 min 57 sec) 
Heartbeat CPU 0 instructions: 27000000 cycles: 9096053 heartbeat IPC: 2.37921 cumulative IPC: 2.96832 (Simulation time: 0 hr 56 min 32 sec) 
Heartbeat CPU 0 instructions: 28000000 cycles: 9516355 heartbeat IPC: 2.37924 cumulative IPC: 2.9423 (Simulation time: 0 hr 59 min 7 sec) 
Heartbeat CPU 0 instructions: 29000002 cycles: 9936686 heartbeat IPC: 2.37908 cumulative IPC: 2.91848 (Simulation time: 1 hr 1 min 38 sec) 
Heartbeat CPU 0 instructions: 30000002 cycles: 10356997 heartbeat IPC: 2.37919 cumulative IPC: 2.89659 (Simulation time: 1 hr 4 min 14 sec) 
Heartbeat CPU 0 instructions: 31000000 cycles: 10777303 heartbeat IPC: 2.37921 cumulative IPC: 2.87642 (Simulation time: 1 hr 6 min 55 sec) 
Heartbeat CPU 0 instructions: 32000000 cycles: 11197605 heartbeat IPC: 2.37924 cumulative IPC: 2.85775 (Simulation time: 1 hr 9 min 32 sec) 
Heartbeat CPU 0 instructions: 33000002 cycles: 11617936 heartbeat IPC: 2.37908 cumulative IPC: 2.84044 (Simulation time: 1 hr 12 min 11 sec) 
Heartbeat CPU 0 instructions: 34000002 cycles: 12038247 heartbeat IPC: 2.37919 cumulative IPC: 2.82433 (Simulation time: 1 hr 15 min 11 sec) 
Heartbeat CPU 0 instructions: 35000000 cycles: 12458553 heartbeat IPC: 2.37921 cumulative IPC: 2.80931 (Simulation time: 1 hr 18 min 20 sec) 
Heartbeat CPU 0 instructions: 36000000 cycles: 12862263 heartbeat IPC: 2.47703 cumulative IPC: 2.79889 (Simulation time: 1 hr 21 min 7 sec) 
Heartbeat CPU 0 instructions: 37000001 cycles: 13195596 heartbeat IPC: 3.00001 cumulative IPC: 2.80397 (Simulation time: 1 hr 23 min 3 sec) 
Heartbeat CPU 0 instructions: 38000000 cycles: 13528929 heartbeat IPC: 3 cumulative IPC: 2.8088 (Simulation time: 1 hr 24 min 47 sec) 
Heartbeat CPU 0 instructions: 39000003 cycles: 13862263 heartbeat IPC: 3 cumulative IPC: 2.81339 (Simulation time: 1 hr 26 min 47 sec) 
Heartbeat CPU 0 instructions: 40000000 cycles: 14195596 heartbeat IPC: 2.99999 cumulative IPC: 2.81778 (Simulation time: 1 hr 28 min 55 sec) 
Heartbeat CPU 0 instructions: 41000001 cycles: 14528929 heartbeat IPC: 3.00001 cumulative IPC: 2.82196 (Simulation time: 1 hr 31 min 10 sec) 
Heartbeat CPU 0 instructions: 42000000 cycles: 14862262 heartbeat IPC: 3 cumulative IPC: 2.82595 (Simulation time: 1 hr 33 min 16 sec) 
Heartbeat CPU 0 instructions: 43000001 cycles: 15195596 heartbeat IPC: 3 cumulative IPC: 2.82977 (Simulation time: 1 hr 35 min 17 sec) 
Heartbeat CPU 0 instructions: 44000000 cycles: 15528929 heartbeat IPC: 3 cumulative IPC: 2.83342 (Simulation time: 1 hr 37 min 24 sec) 
Heartbeat CPU 0 instructions: 45000002 cycles: 15862263 heartbeat IPC: 3 cumulative IPC: 2.83692 (Simulation time: 1 hr 39 min 25 sec) 
Heartbeat CPU 0 instructions: 46000001 cycles: 16195596 heartbeat IPC: 3 cumulative IPC: 2.84028 (Simulation time: 1 hr 41 min 23 sec) 
Heartbeat CPU 0 instructions: 47000000 cycles: 16528929 heartbeat IPC: 3 cumulative IPC: 2.8435 (Simulation time: 1 hr 43 min 29 sec) 
Heartbeat CPU 0 instructions: 48000000 cycles: 16862263 heartbeat IPC: 2.99999 cumulative IPC: 2.84659 (Simulation time: 1 hr 45 min 10 sec) 
Heartbeat CPU 0 instructions: 49000003 cycles: 17195599 heartbeat IPC: 2.99998 cumulative IPC: 2.84957 (Simulation time: 1 hr 47 min 5 sec) 
Heartbeat CPU 0 instructions: 50000001 cycles: 17528929 heartbeat IPC: 3.00002 cumulative IPC: 2.85243 (Simulation time: 1 hr 49 min 3 sec) 

Warmup complete CPU 0 instructions: 50000001 cycles: 17528929 (Simulation time: 1 hr 49 min 3 sec) 

Heartbeat CPU 0 instructions: 51000000 cycles: 19001731 heartbeat IPC: 0.678977 cumulative IPC: 0.678977 (Simulation time: 1 hr 51 min 26 sec) 
Heartbeat CPU 0 instructions: 52000000 cycles: 20474541 heartbeat IPC: 0.678974 cumulative IPC: 0.678976 (Simulation time: 1 hr 53 min 41 sec) 
Heartbeat CPU 0 instructions: 53000000 cycles: 21946184 heartbeat IPC: 0.679513 cumulative IPC: 0.679155 (Simulation time: 1 hr 56 min 2 sec) 
Heartbeat CPU 0 instructions: 54000002 cycles: 23420943 heartbeat IPC: 0.678078 cumulative IPC: 0.678885 (Simulation time: 1 hr 58 min 13 sec) 
Heartbeat CPU 0 instructions: 55000002 cycles: 24961637 heartbeat IPC: 0.649058 cumulative IPC: 0.672702 (Simulation time: 2 hr 0 min 32 sec) 
Heartbeat CPU 0 instructions: 56000000 cycles: 26643410 heartbeat IPC: 0.594609 cumulative IPC: 0.658293 (Simulation time: 2 hr 2 min 52 sec) 
Heartbeat CPU 0 instructions: 57000001 cycles: 28338653 heartbeat IPC: 0.589887 cumulative IPC: 0.647565 (Simulation time: 2 hr 5 min 27 sec) 
Heartbeat CPU 0 instructions: 58000000 cycles: 30047883 heartbeat IPC: 0.585058 cumulative IPC: 0.639031 (Simulation time: 2 hr 7 min 41 sec) 
Heartbeat CPU 0 instructions: 59000003 cycles: 31780191 heartbeat IPC: 0.577266 cumulative IPC: 0.631523 (Simulation time: 2 hr 9 min 50 sec) 
Heartbeat CPU 0 instructions: 60000000 cycles: 33520625 heartbeat IPC: 0.574568 cumulative IPC: 0.625324 (Simulation time: 2 hr 12 min 5 sec) 
Heartbeat CPU 0 instructions: 61000002 cycles: 35259460 heartbeat IPC: 0.575099 cumulative IPC: 0.620399 (Simulation time: 2 hr 14 min 22 sec) 
Heartbeat CPU 0 instructions: 62000001 cycles: 36999764 heartbeat IPC: 0.574612 cumulative IPC: 0.616306 (Simulation time: 2 hr 16 min 39 sec) 
Heartbeat CPU 0 instructions: 63000001 cycles: 38737757 heartbeat IPC: 0.575376 cumulative IPC: 0.612952 (Simulation time: 2 hr 19 min 16 sec) 
Heartbeat CPU 0 instructions: 64000000 cycles: 40481713 heartbeat IPC: 0.573408 cumulative IPC: 0.609948 (Simulation time: 2 hr 21 min 48 sec) 
Heartbeat CPU 0 instructions: 65000002 cycles: 42222794 heartbeat IPC: 0.574357 cumulative IPC: 0.607438 (Simulation time: 2 hr 24 min 6 sec) 
Heartbeat CPU 0 instructions: 66000002 cycles: 43967753 heartbeat IPC: 0.573079 cumulative IPC: 0.605171 (Simulation time: 2 hr 26 min 24 sec) 
Heartbeat CPU 0 instructions: 67000000 cycles: 45710363 heartbeat IPC: 0.573851 cumulative IPC: 0.603234 (Simulation time: 2 hr 28 min 33 sec) 
Heartbeat CPU 0 instructions: 68000000 cycles: 47456612 heartbeat IPC: 0.572656 cumulative IPC: 0.60145 (Simulation time: 2 hr 31 min 4 sec) 
Heartbeat CPU 0 instructions: 69000000 cycles: 49203531 heartbeat IPC: 0.572436 cumulative IPC: 0.59985 (Simulation time: 2 hr 33 min 46 sec) 
Heartbeat CPU 0 instructions: 70000002 cycles: 50954228 heartbeat IPC: 0.571202 cumulative IPC: 0.598349 (Simulation time: 2 hr 36 min 21 sec) 
Heartbeat CPU 0 instructions: 71000001 cycles: 52702186 heartbeat IPC: 0.572096 cumulative IPC: 0.597045 (Simulation time: 2 hr 38 min 35 sec) 
Heartbeat CPU 0 instructions: 72000000 cycles: 54453898 heartbeat IPC: 0.57087 cumulative IPC: 0.595803 (Simulation time: 2 hr 41 min 9 sec) 
Heartbeat CPU 0 instructions: 73000000 cycles: 56202309 heartbeat IPC: 0.571948 cumulative IPC: 0.594724 (Simulation time: 2 hr 43 min 55 sec) 
Heartbeat CPU 0 instructions: 74000000 cycles: 58025648 heartbeat IPC: 0.548444 cumulative IPC: 0.592641 (Simulation time: 2 hr 47 min 4 sec) 
Heartbeat CPU 0 instructions: 75000000 cycles: 60515867 heartbeat IPC: 0.401571 cumulative IPC: 0.581572 (Simulation time: 2 hr 50 min 29 sec) 
Heartbeat CPU 0 instructions: 76000000 cycles: 63160535 heartbeat IPC: 0.378119 cumulative IPC: 0.56978 (Simulation time: 2 hr 54 min 41 sec) 
Heartbeat CPU 0 instructions: 77000000 cycles: 65782305 heartbeat IPC: 0.381422 cumulative IPC: 0.559546 (Simulation time: 2 hr 58 min 36 sec) 
Heartbeat CPU 0 instructions: 78000000 cycles: 68395227 heartbeat IPC: 0.382713 cumulative IPC: 0.550463 (Simulation time: 3 hr 2 min 59 sec) 
Heartbeat CPU 0 instructions: 79000000 cycles: 71009925 heartbeat IPC: 0.382453 cumulative IPC: 0.542249 (Simulation time: 3 hr 7 min 32 sec) 
Heartbeat CPU 0 instructions: 80000000 cycles: 73623686 heartbeat IPC: 0.38259 cumulative IPC: 0.534809 (Simulation time: 3 hr 11 min 13 sec) 
Heartbeat CPU 0 instructions: 81000000 cycles: 76230827 heartbeat IPC: 0.383562 cumulative IPC: 0.528092 (Simulation time: 3 hr 14 min 35 sec) 
Heartbeat CPU 0 instructions: 82000000 cycles: 78847116 heartbeat IPC: 0.382221 cumulative IPC: 0.521868 (Simulation time: 3 hr 18 min 6 sec) 
Heartbeat CPU 0 instructions: 83000000 cycles: 81459176 heartbeat IPC: 0.38284 cumulative IPC: 0.516188 (Simulation time: 3 hr 21 min 46 sec) 
Heartbeat CPU 0 instructions: 84000000 cycles: 84073674 heartbeat IPC: 0.382483 cumulative IPC: 0.510934 (Simulation time: 3 hr 26 min 41 sec) 
Heartbeat CPU 0 instructions: 85000001 cycles: 85943126 heartbeat IPC: 0.534917 cumulative IPC: 0.51159 (Simulation time: 3 hr 29 min 18 sec) 
Heartbeat CPU 0 instructions: 86000000 cycles: 87542350 heartbeat IPC: 0.625303 cumulative IPC: 0.514187 (Simulation time: 3 hr 31 min 46 sec) 
Heartbeat CPU 0 instructions: 87000003 cycles: 89118603 heartbeat IPC: 0.634418 cumulative IPC: 0.516834 (Simulation time: 3 hr 34 min 24 sec) 
Heartbeat CPU 0 instructions: 88000000 cycles: 90669280 heartbeat IPC: 0.644878 cumulative IPC: 0.519549 (Simulation time: 3 hr 37 min 0 sec) 
Heartbeat CPU 0 instructions: 89000001 cycles: 92203070 heartbeat IPC: 0.65198 cumulative IPC: 0.522269 (Simulation time: 3 hr 39 min 34 sec) 
Heartbeat CPU 0 instructions: 90000000 cycles: 93724408 heartbeat IPC: 0.657315 cumulative IPC: 0.524966 (Simulation time: 3 hr 42 min 57 sec) 
Heartbeat CPU 0 instructions: 91000001 cycles: 95243964 heartbeat IPC: 0.658088 cumulative IPC: 0.527568 (Simulation time: 3 hr 45 min 22 sec) 
Heartbeat CPU 0 instructions: 92000000 cycles: 96763450 heartbeat IPC: 0.658117 cumulative IPC: 0.530072 (Simulation time: 3 hr 47 min 59 sec) 
Heartbeat CPU 0 instructions: 93000002 cycles: 98282969 heartbeat IPC: 0.658104 cumulative IPC: 0.532481 (Simulation time: 3 hr 50 min 15 sec) 
Heartbeat CPU 0 instructions: 94000001 cycles: 99799720 heartbeat IPC: 0.659303 cumulative IPC: 0.534819 (Simulation time: 3 hr 52 min 49 sec) 
Heartbeat CPU 0 instructions: 95000000 cycles: 101318290 heartbeat IPC: 0.658514 cumulative IPC: 0.537061 (Simulation time: 3 hr 55 min 50 sec) 
Heartbeat CPU 0 instructions: 96000000 cycles: 102835285 heartbeat IPC: 0.659198 cumulative IPC: 0.539233 (Simulation time: 3 hr 58 min 19 sec) 
Heartbeat CPU 0 instructions: 97000002 cycles: 104352673 heartbeat IPC: 0.659029 cumulative IPC: 0.541327 (Simulation time: 4 hr 1 min 27 sec) 
Heartbeat CPU 0 instructions: 98000001 cycles: 105868278 heartbeat IPC: 0.659802 cumulative IPC: 0.543359 (Simulation time: 4 hr 3 min 48 sec) 
Heartbeat CPU 0 instructions: 99000000 cycles: 107384453 heartbeat IPC: 0.659554 cumulative IPC: 0.54532 (Simulation time: 4 hr 7 min 3 sec) 
Heartbeat CPU 0 instructions: 100000000 cycles: 108899297 heartbeat IPC: 0.660134 cumulative IPC: 0.547223 (Simulation time: 4 hr 9 min 30 sec) 
Heartbeat CPU 0 instructions: 101000000 cycles: 110414814 heartbeat IPC: 0.659841 cumulative IPC: 0.549061 (Simulation time: 4 hr 11 min 56 sec) 
Heartbeat CPU 0 instructions: 102000002 cycles: 111927332 heartbeat IPC: 0.66115 cumulative IPC: 0.550857 (Simulation time: 4 hr 14 min 19 sec) 
Heartbeat CPU 0 instructions: 103000001 cycles: 113425696 heartbeat IPC: 0.667394 cumulative IPC: 0.552678 (Simulation time: 4 hr 16 min 50 sec) 
Heartbeat CPU 0 instructions: 104000000 cycles: 115466061 heartbeat IPC: 0.490108 cumulative IPC: 0.551374 (Simulation time: 4 hr 20 min 1 sec) 
Heartbeat CPU 0 instructions: 105000000 cycles: 118087993 heartbeat IPC: 0.381398 cumulative IPC: 0.546942 (Simulation time: 4 hr 23 min 52 sec) 
Heartbeat CPU 0 instructions: 106000000 cycles: 120713188 heartbeat IPC: 0.380924 cumulative IPC: 0.542718 (Simulation time: 4 hr 27 min 47 sec) 
Heartbeat CPU 0 instructions: 107000000 cycles: 123317146 heartbeat IPC: 0.384031 cumulative IPC: 0.538812 (Simulation time: 4 hr 32 min 28 sec) 
Heartbeat CPU 0 instructions: 108000000 cycles: 125921773 heartbeat IPC: 0.383932 cumulative IPC: 0.535091 (Simulation time: 4 hr 36 min 2 sec) 
Heartbeat CPU 0 instructions: 109000000 cycles: 128529546 heartbeat IPC: 0.383469 cumulative IPC: 0.531529 (Simulation time: 4 hr 39 min 25 sec) 
Heartbeat CPU 0 instructions: 110000000 cycles: 131133071 heartbeat IPC: 0.384095 cumulative IPC: 0.52815 (Simulation time: 4 hr 43 min 6 sec) 
Heartbeat CPU 0 instructions: 111000000 cycles: 133733343 heartbeat IPC: 0.384575 cumulative IPC: 0.524937 (Simulation time: 4 hr 46 min 59 sec) 
Heartbeat CPU 0 instructions: 112000000 cycles: 136341224 heartbeat IPC: 0.383453 cumulative IPC: 0.521832 (Simulation time: 4 hr 51 min 14 sec) 
Heartbeat CPU 0 instructions: 113000000 cycles: 138953826 heartbeat IPC: 0.38276 cumulative IPC: 0.518839 (Simulation time: 4 hr 54 min 34 sec) 
Heartbeat CPU 0 instructions: 114000002 cycles: 141272303 heartbeat IPC: 0.431318 cumulative IPC: 0.517199 (Simulation time: 4 hr 58 min 19 sec) 
Heartbeat CPU 0 instructions: 115000001 cycles: 143093766 heartbeat IPC: 0.549009 cumulative IPC: 0.517661 (Simulation time: 5 hr 0 min 59 sec) 
Heartbeat CPU 0 instructions: 116000000 cycles: 144874100 heartbeat IPC: 0.561692 cumulative IPC: 0.518276 (Simulation time: 5 hr 3 min 28 sec) 
Heartbeat CPU 0 instructions: 117000002 cycles: 146647872 heartbeat IPC: 0.563771 cumulative IPC: 0.518901 (Simulation time: 5 hr 6 min 26 sec) 
Heartbeat CPU 0 instructions: 118000002 cycles: 148411334 heartbeat IPC: 0.567066 cumulative IPC: 0.51955 (Simulation time: 5 hr 8 min 45 sec) 
Heartbeat CPU 0 instructions: 119000002 cycles: 150174574 heartbeat IPC: 0.567138 cumulative IPC: 0.520183 (Simulation time: 5 hr 11 min 10 sec) 
Heartbeat CPU 0 instructions: 120000000 cycles: 151930501 heartbeat IPC: 0.569499 cumulative IPC: 0.520827 (Simulation time: 5 hr 13 min 32 sec) 
Heartbeat CPU 0 instructions: 121000000 cycles: 153684998 heartbeat IPC: 0.569964 cumulative IPC: 0.52146 (Simulation time: 5 hr 16 min 2 sec) 
Heartbeat CPU 0 instructions: 122000001 cycles: 155439321 heartbeat IPC: 0.570021 cumulative IPC: 0.522078 (Simulation time: 5 hr 18 min 8 sec) 
Heartbeat CPU 0 instructions: 123000000 cycles: 157191632 heartbeat IPC: 0.570674 cumulative IPC: 0.522688 (Simulation time: 5 hr 20 min 26 sec) 
Heartbeat CPU 0 instructions: 124000000 cycles: 158945643 heartbeat IPC: 0.570122 cumulative IPC: 0.523276 (Simulation time: 5 hr 23 min 9 sec) 
Heartbeat CPU 0 instructions: 125000001 cycles: 160690709 heartbeat IPC: 0.573045 cumulative IPC: 0.523883 (Simulation time: 5 hr 25 min 50 sec) 
Heartbeat CPU 0 instructions: 126000000 cycles: 162444882 heartbeat IPC: 0.570069 cumulative IPC: 0.524442 (Simulation time: 5 hr 28 min 52 sec) 
Heartbeat CPU 0 instructions: 127000003 cycles: 164198852 heartbeat IPC: 0.570137 cumulative IPC: 0.524988 (Simulation time: 5 hr 31 min 54 sec) 
Heartbeat CPU 0 instructions: 128000000 cycles: 165943768 heartbeat IPC: 0.573092 cumulative IPC: 0.525554 (Simulation time: 5 hr 34 min 19 sec) 
Heartbeat CPU 0 instructions: 129000000 cycles: 167689710 heartbeat IPC: 0.572757 cumulative IPC: 0.526103 (Simulation time: 5 hr 37 min 15 sec) 
Heartbeat CPU 0 instructions: 130000001 cycles: 169435629 heartbeat IPC: 0.572765 cumulative IPC: 0.526639 (Simulation time: 5 hr 39 min 39 sec) 
Heartbeat CPU 0 instructions: 131000000 cycles: 171186841 heartbeat IPC: 0.571033 cumulative IPC: 0.527145 (Simulation time: 5 hr 42 min 5 sec) 
Heartbeat CPU 0 instructions: 132000000 cycles: 172937677 heartbeat IPC: 0.571156 cumulative IPC: 0.527641 (Simulation time: 5 hr 44 min 25 sec) 
Heartbeat CPU 0 instructions: 133000000 cycles: 174804601 heartbeat IPC: 0.53564 cumulative IPC: 0.527736 (Simulation time: 5 hr 46 min 38 sec) 
Heartbeat CPU 0 instructions: 134000000 cycles: 177342110 heartbeat IPC: 0.394087 cumulative IPC: 0.525614 (Simulation time: 5 hr 51 min 6 sec) 
Heartbeat CPU 0 instructions: 135000000 cycles: 179930075 heartbeat IPC: 0.386404 cumulative IPC: 0.523395 (Simulation time: 5 hr 54 min 52 sec) 
Heartbeat CPU 0 instructions: 136000000 cycles: 182498307 heartbeat IPC: 0.389373 cumulative IPC: 0.521309 (Simulation time: 5 hr 58 min 50 sec) 
Heartbeat CPU 0 instructions: 137000000 cycles: 185056315 heartbeat IPC: 0.390929 cumulative IPC: 0.519318 (Simulation time: 6 hr 2 min 22 sec) 
Heartbeat CPU 0 instructions: 138000000 cycles: 187618415 heartbeat IPC: 0.390305 cumulative IPC: 0.517375 (Simulation time: 6 hr 6 min 5 sec) 
Heartbeat CPU 0 instructions: 139000000 cycles: 190180634 heartbeat IPC: 0.390287 cumulative IPC: 0.515489 (Simulation time: 6 hr 10 min 7 sec) 
Heartbeat CPU 0 instructions: 140000000 cycles: 192732974 heartbeat IPC: 0.391797 cumulative IPC: 0.513687 (Simulation time: 6 hr 13 min 54 sec) 
Heartbeat CPU 0 instructions: 141000000 cycles: 195282214 heartbeat IPC: 0.392274 cumulative IPC: 0.511946 (Simulation time: 6 hr 17 min 29 sec) 
Heartbeat CPU 0 instructions: 142000000 cycles: 197843788 heartbeat IPC: 0.390385 cumulative IPC: 0.510219 (Simulation time: 6 hr 21 min 2 sec) 
Heartbeat CPU 0 instructions: 143000000 cycles: 200403610 heartbeat IPC: 0.390652 cumulative IPC: 0.508545 (Simulation time: 6 hr 24 min 23 sec) 
Heartbeat CPU 0 instructions: 144000000 cycles: 202343717 heartbeat IPC: 0.515436 cumulative IPC: 0.508617 (Simulation time: 6 hr 26 min 30 sec) 
Heartbeat CPU 0 instructions: 145000002 cycles: 204154295 heartbeat IPC: 0.552311 cumulative IPC: 0.509041 (Simulation time: 6 hr 28 min 23 sec) 
Heartbeat CPU 0 instructions: 146000001 cycles: 205932209 heartbeat IPC: 0.562456 cumulative IPC: 0.509545 (Simulation time: 6 hr 30 min 14 sec) 
Heartbeat CPU 0 instructions: 147000000 cycles: 207689264 heartbeat IPC: 0.569134 cumulative IPC: 0.510096 (Simulation time: 6 hr 32 min 1 sec) 
Heartbeat CPU 0 instructions: 148000000 cycles: 209442244 heartbeat IPC: 0.570457 cumulative IPC: 0.510647 (Simulation time: 6 hr 33 min 47 sec) 
Heartbeat CPU 0 instructions: 149000002 cycles: 211193642 heartbeat IPC: 0.570974 cumulative IPC: 0.511193 (Simulation time: 6 hr 35 min 33 sec) 
Heartbeat CPU 0 instructions: 150000000 cycles: 212949227 heartbeat IPC: 0.56961 cumulative IPC: 0.511718 (Simulation time: 6 hr 37 min 18 sec) 
Finished CPU 0 instructions: 100000001 cycles: 195420299 cummulative IPC: 0.511718 (Simulation time: 6 hr 37 min 18 sec) 

ChampSim completed all CPUs

Region of Interest Statistics

CPU 0 cummulative IPC: 0.511718 instructions: 100000001 cycles: 195420299
LLC TOTAL     ACCESS:    5216164  HIT:     311622  MISS:    4904542
LLC LOAD      ACCESS:    1240855  HIT:       9128  MISS:    1231727
LLC RFO       ACCESS:         28  HIT:          2  MISS:         26
LLC PREFETCH  ACCESS:    2226228  HIT:      21568  MISS:    2204660
LLC WRITEBACK ACCESS:    1749053  HIT:     280924  MISS:    1468129
