
*** ChampSim Multicore Out-of-Order Simulator ***

Warmup Instructions: 50000000
Simulation Instructions: 100000000
Configuration: 2
Number of CPUs: 1
LLC sets: 2048
LLC ways: 16
Off-chip DRAM Channels: 1 Width: 64-bit Data Rate: 1600 MT/s

CPU 0 runs /datasets/cs240c-wi22-a00-public/data/Assignment2-gz/gcc_56B.trace.gz
CPU 0 L1D next line prefetcher
CPU 0 L2C IP-based stride prefetcher
Heartbeat CPU 0 instructions: 1000003 cycles: 954151 heartbeat IPC: 1.04806 cumulative IPC: 1.04806 (Simulation time: 0 hr 2 min 55 sec) 
Heartbeat CPU 0 instructions: 2000001 cycles: 1898349 heartbeat IPC: 1.0591 cumulative IPC: 1.05355 (Simulation time: 0 hr 5 min 55 sec) 
Heartbeat CPU 0 instructions: 3000001 cycles: 2885593 heartbeat IPC: 1.01292 cumulative IPC: 1.03965 (Simulation time: 0 hr 9 min 1 sec) 
Heartbeat CPU 0 instructions: 4000000 cycles: 3848221 heartbeat IPC: 1.03882 cumulative IPC: 1.03944 (Simulation time: 0 hr 11 min 46 sec) 
Heartbeat CPU 0 instructions: 5000002 cycles: 4737701 heartbeat IPC: 1.12425 cumulative IPC: 1.05536 (Simulation time: 0 hr 14 min 40 sec) 
Heartbeat CPU 0 instructions: 6000000 cycles: 5685656 heartbeat IPC: 1.0549 cumulative IPC: 1.05529 (Simulation time: 0 hr 17 min 16 sec) 
Heartbeat CPU 0 instructions: 7000000 cycles: 6649891 heartbeat IPC: 1.03709 cumulative IPC: 1.05265 (Simulation time: 0 hr 20 min 7 sec) 
Heartbeat CPU 0 instructions: 8000000 cycles: 7611114 heartbeat IPC: 1.04034 cumulative IPC: 1.05109 (Simulation time: 0 hr 23 min 5 sec) 
Heartbeat CPU 0 instructions: 9000000 cycles: 8622586 heartbeat IPC: 0.988658 cumulative IPC: 1.04377 (Simulation time: 0 hr 25 min 51 sec) 
Heartbeat CPU 0 instructions: 10000002 cycles: 9583097 heartbeat IPC: 1.04111 cumulative IPC: 1.0435 (Simulation time: 0 hr 28 min 29 sec) 
Heartbeat CPU 0 instructions: 11000002 cycles: 10472393 heartbeat IPC: 1.12449 cumulative IPC: 1.05038 (Simulation time: 0 hr 31 min 6 sec) 
Heartbeat CPU 0 instructions: 12000000 cycles: 11357925 heartbeat IPC: 1.12926 cumulative IPC: 1.05653 (Simulation time: 0 hr 34 min 9 sec) 
Heartbeat CPU 0 instructions: 13000001 cycles: 12297172 heartbeat IPC: 1.06468 cumulative IPC: 1.05715 (Simulation time: 0 hr 36 min 49 sec) 
Heartbeat CPU 0 instructions: 14000000 cycles: 13290643 heartbeat IPC: 1.00657 cumulative IPC: 1.05337 (Simulation time: 0 hr 39 min 33 sec) 
Heartbeat CPU 0 instructions: 15000003 cycles: 14246135 heartbeat IPC: 1.04658 cumulative IPC: 1.05292 (Simulation time: 0 hr 42 min 19 sec) 
Heartbeat CPU 0 instructions: 16000000 cycles: 15246183 heartbeat IPC: 0.999949 cumulative IPC: 1.04944 (Simulation time: 0 hr 45 min 1 sec) 
Heartbeat CPU 0 instructions: 17000001 cycles: 16221167 heartbeat IPC: 1.02566 cumulative IPC: 1.04801 (Simulation time: 0 hr 48 min 16 sec) 
Heartbeat CPU 0 instructions: 18000000 cycles: 17121995 heartbeat IPC: 1.11009 cumulative IPC: 1.05128 (Simulation time: 0 hr 51 min 10 sec) 
Heartbeat CPU 0 instructions: 19000000 cycles: 18045884 heartbeat IPC: 1.08238 cumulative IPC: 1.05287 (Simulation time: 0 hr 54 min 11 sec) 
Heartbeat CPU 0 instructions: 20000000 cycles: 18990392 heartbeat IPC: 1.05875 cumulative IPC: 1.05316 (Simulation time: 0 hr 57 min 0 sec) 
Heartbeat CPU 0 instructions: 21000000 cycles: 19947022 heartbeat IPC: 1.04534 cumulative IPC: 1.05279 (Simulation time: 0 hr 59 min 47 sec) 
Heartbeat CPU 0 instructions: 22000000 cycles: 20939409 heartbeat IPC: 1.00767 cumulative IPC: 1.05065 (Simulation time: 1 hr 2 min 44 sec) 
Heartbeat CPU 0 instructions: 23000000 cycles: 21860059 heartbeat IPC: 1.08619 cumulative IPC: 1.05215 (Simulation time: 1 hr 5 min 58 sec) 
Heartbeat CPU 0 instructions: 24000000 cycles: 22777473 heartbeat IPC: 1.09002 cumulative IPC: 1.05367 (Simulation time: 1 hr 9 min 3 sec) 
Heartbeat CPU 0 instructions: 25000000 cycles: 23713202 heartbeat IPC: 1.06869 cumulative IPC: 1.05427 (Simulation time: 1 hr 11 min 59 sec) 
Heartbeat CPU 0 instructions: 26000002 cycles: 24633689 heartbeat IPC: 1.08638 cumulative IPC: 1.05547 (Simulation time: 1 hr 14 min 33 sec) 
Heartbeat CPU 0 instructions: 27000000 cycles: 25585999 heartbeat IPC: 1.05008 cumulative IPC: 1.05526 (Simulation time: 1 hr 17 min 12 sec) 
Heartbeat CPU 0 instructions: 28000000 cycles: 26583769 heartbeat IPC: 1.00223 cumulative IPC: 1.05327 (Simulation time: 1 hr 20 min 7 sec) 
Heartbeat CPU 0 instructions: 29000000 cycles: 27583176 heartbeat IPC: 1.00059 cumulative IPC: 1.05137 (Simulation time: 1 hr 23 min 2 sec) 
Heartbeat CPU 0 instructions: 30000000 cycles: 28562062 heartbeat IPC: 1.02157 cumulative IPC: 1.05034 (Simulation time: 1 hr 25 min 33 sec) 
Heartbeat CPU 0 instructions: 31000000 cycles: 29476450 heartbeat IPC: 1.09363 cumulative IPC: 1.05169 (Simulation time: 1 hr 28 min 16 sec) 
Heartbeat CPU 0 instructions: 32000000 cycles: 30387152 heartbeat IPC: 1.09805 cumulative IPC: 1.05308 (Simulation time: 1 hr 30 min 57 sec) 
Heartbeat CPU 0 instructions: 33000002 cycles: 31312863 heartbeat IPC: 1.08025 cumulative IPC: 1.05388 (Simulation time: 1 hr 33 min 37 sec) 
Heartbeat CPU 0 instructions: 34000002 cycles: 32279380 heartbeat IPC: 1.03464 cumulative IPC: 1.0533 (Simulation time: 1 hr 36 min 4 sec) 
Heartbeat CPU 0 instructions: 35000002 cycles: 33244047 heartbeat IPC: 1.03663 cumulative IPC: 1.05282 (Simulation time: 1 hr 39 min 28 sec) 
Heartbeat CPU 0 instructions: 36000000 cycles: 34239327 heartbeat IPC: 1.00474 cumulative IPC: 1.05142 (Simulation time: 1 hr 42 min 25 sec) 
Heartbeat CPU 0 instructions: 37000000 cycles: 35205884 heartbeat IPC: 1.0346 cumulative IPC: 1.05096 (Simulation time: 1 hr 45 min 24 sec) 
Heartbeat CPU 0 instructions: 38000002 cycles: 36155182 heartbeat IPC: 1.05341 cumulative IPC: 1.05103 (Simulation time: 1 hr 47 min 50 sec) 
Heartbeat CPU 0 instructions: 39000000 cycles: 37066158 heartbeat IPC: 1.09772 cumulative IPC: 1.05217 (Simulation time: 1 hr 50 min 9 sec) 
Heartbeat CPU 0 instructions: 40000000 cycles: 38010484 heartbeat IPC: 1.05896 cumulative IPC: 1.05234 (Simulation time: 1 hr 52 min 33 sec) 
Heartbeat CPU 0 instructions: 41000001 cycles: 38985312 heartbeat IPC: 1.02582 cumulative IPC: 1.05168 (Simulation time: 1 hr 55 min 17 sec) 
Heartbeat CPU 0 instructions: 42000003 cycles: 39974570 heartbeat IPC: 1.01086 cumulative IPC: 1.05067 (Simulation time: 1 hr 57 min 50 sec) 
Heartbeat CPU 0 instructions: 43000001 cycles: 40938734 heartbeat IPC: 1.03717 cumulative IPC: 1.05035 (Simulation time: 2 hr 0 min 29 sec) 
Heartbeat CPU 0 instructions: 44000000 cycles: 41869491 heartbeat IPC: 1.07439 cumulative IPC: 1.05088 (Simulation time: 2 hr 3 min 28 sec) 
Heartbeat CPU 0 instructions: 45000000 cycles: 42778796 heartbeat IPC: 1.09974 cumulative IPC: 1.05192 (Simulation time: 2 hr 6 min 24 sec) 
Heartbeat CPU 0 instructions: 46000001 cycles: 43731227 heartbeat IPC: 1.04995 cumulative IPC: 1.05188 (Simulation time: 2 hr 8 min 55 sec) 
Heartbeat CPU 0 instructions: 47000001 cycles: 44686122 heartbeat IPC: 1.04724 cumulative IPC: 1.05178 (Simulation time: 2 hr 11 min 50 sec) 
Heartbeat CPU 0 instructions: 48000000 cycles: 45666226 heartbeat IPC: 1.0203 cumulative IPC: 1.05111 (Simulation time: 2 hr 14 min 15 sec) 
Heartbeat CPU 0 instructions: 49000002 cycles: 46667699 heartbeat IPC: 0.998531 cumulative IPC: 1.04998 (Simulation time: 2 hr 16 min 27 sec) 
Heartbeat CPU 0 instructions: 50000000 cycles: 47652668 heartbeat IPC: 1.01526 cumulative IPC: 1.04926 (Simulation time: 2 hr 18 min 58 sec) 

Warmup complete CPU 0 instructions: 50000001 cycles: 47652670 (Simulation time: 2 hr 18 min 58 sec) 

Heartbeat CPU 0 instructions: 51000000 cycles: 49011336 heartbeat IPC: 0.736015 cumulative IPC: 0.736015 (Simulation time: 2 hr 21 min 35 sec) 
Heartbeat CPU 0 instructions: 52000000 cycles: 50407226 heartbeat IPC: 0.716389 cumulative IPC: 0.726069 (Simulation time: 2 hr 24 min 40 sec) 
Heartbeat CPU 0 instructions: 53000001 cycles: 51748943 heartbeat IPC: 0.745314 cumulative IPC: 0.732373 (Simulation time: 2 hr 27 min 54 sec) 
Heartbeat CPU 0 instructions: 54000000 cycles: 53067644 heartbeat IPC: 0.758321 cumulative IPC: 0.738692 (Simulation time: 2 hr 30 min 6 sec) 
Heartbeat CPU 0 instructions: 55000001 cycles: 54377879 heartbeat IPC: 0.763223 cumulative IPC: 0.743471 (Simulation time: 2 hr 33 min 25 sec) 
Heartbeat CPU 0 instructions: 56000000 cycles: 55704338 heartbeat IPC: 0.753886 cumulative IPC: 0.745187 (Simulation time: 2 hr 35 min 42 sec) 
Heartbeat CPU 0 instructions: 57000001 cycles: 57041892 heartbeat IPC: 0.747634 cumulative IPC: 0.745536 (Simulation time: 2 hr 38 min 24 sec) 
Heartbeat CPU 0 instructions: 58000000 cycles: 58423177 heartbeat IPC: 0.723963 cumulative IPC: 0.742769 (Simulation time: 2 hr 41 min 4 sec) 
Heartbeat CPU 0 instructions: 59000000 cycles: 59823892 heartbeat IPC: 0.713921 cumulative IPC: 0.739449 (Simulation time: 2 hr 43 min 47 sec) 
Heartbeat CPU 0 instructions: 60000000 cycles: 61206341 heartbeat IPC: 0.723354 cumulative IPC: 0.737807 (Simulation time: 2 hr 47 min 3 sec) 
Heartbeat CPU 0 instructions: 61000000 cycles: 62541022 heartbeat IPC: 0.749243 cumulative IPC: 0.738833 (Simulation time: 2 hr 49 min 31 sec) 
Heartbeat CPU 0 instructions: 62000002 cycles: 63908446 heartbeat IPC: 0.731304 cumulative IPC: 0.738199 (Simulation time: 2 hr 52 min 47 sec) 
Heartbeat CPU 0 instructions: 63000003 cycles: 65228874 heartbeat IPC: 0.757331 cumulative IPC: 0.739636 (Simulation time: 2 hr 56 min 0 sec) 
Heartbeat CPU 0 instructions: 64000000 cycles: 66554151 heartbeat IPC: 0.754557 cumulative IPC: 0.740683 (Simulation time: 2 hr 58 min 52 sec) 
Heartbeat CPU 0 instructions: 65000000 cycles: 67900421 heartbeat IPC: 0.742793 cumulative IPC: 0.740823 (Simulation time: 3 hr 1 min 25 sec) 
Heartbeat CPU 0 instructions: 66000002 cycles: 69294689 heartbeat IPC: 0.717224 cumulative IPC: 0.739303 (Simulation time: 3 hr 3 min 50 sec) 
Heartbeat CPU 0 instructions: 67000002 cycles: 70687019 heartbeat IPC: 0.718221 cumulative IPC: 0.738028 (Simulation time: 3 hr 7 min 1 sec) 
Heartbeat CPU 0 instructions: 68000000 cycles: 72042958 heartbeat IPC: 0.737495 cumulative IPC: 0.737999 (Simulation time: 3 hr 10 min 11 sec) 
Heartbeat CPU 0 instructions: 69000000 cycles: 73373905 heartbeat IPC: 0.751345 cumulative IPC: 0.738689 (Simulation time: 3 hr 12 min 48 sec) 
Heartbeat CPU 0 instructions: 70000000 cycles: 74704458 heartbeat IPC: 0.751567 cumulative IPC: 0.739323 (Simulation time: 3 hr 15 min 14 sec) 
Heartbeat CPU 0 instructions: 71000003 cycles: 76050428 heartbeat IPC: 0.742961 cumulative IPC: 0.739495 (Simulation time: 3 hr 18 min 16 sec) 
Heartbeat CPU 0 instructions: 72000000 cycles: 77392785 heartbeat IPC: 0.744956 cumulative IPC: 0.739742 (Simulation time: 3 hr 20 min 50 sec) 
Heartbeat CPU 0 instructions: 73000003 cycles: 78768053 heartbeat IPC: 0.727133 cumulative IPC: 0.739184 (Simulation time: 3 hr 23 min 47 sec) 
Heartbeat CPU 0 instructions: 74000001 cycles: 80171715 heartbeat IPC: 0.712421 cumulative IPC: 0.738029 (Simulation time: 3 hr 26 min 48 sec) 
Heartbeat CPU 0 instructions: 75000003 cycles: 81549722 heartbeat IPC: 0.725687 cumulative IPC: 0.737527 (Simulation time: 3 hr 30 min 26 sec) 
Heartbeat CPU 0 instructions: 76000000 cycles: 82897669 heartbeat IPC: 0.741867 cumulative IPC: 0.737693 (Simulation time: 3 hr 33 min 35 sec) 
Heartbeat CPU 0 instructions: 77000003 cycles: 84235528 heartbeat IPC: 0.747465 cumulative IPC: 0.738051 (Simulation time: 3 hr 37 min 15 sec) 
Heartbeat CPU 0 instructions: 78000001 cycles: 85569208 heartbeat IPC: 0.749804 cumulative IPC: 0.738464 (Simulation time: 3 hr 39 min 51 sec) 
Heartbeat CPU 0 instructions: 79000000 cycles: 86929933 heartbeat IPC: 0.734902 cumulative IPC: 0.738341 (Simulation time: 3 hr 43 min 33 sec) 
Heartbeat CPU 0 instructions: 80000000 cycles: 88280358 heartbeat IPC: 0.740508 cumulative IPC: 0.738413 (Simulation time: 3 hr 48 min 18 sec) 
Heartbeat CPU 0 instructions: 81000002 cycles: 89661809 heartbeat IPC: 0.723878 cumulative IPC: 0.737935 (Simulation time: 3 hr 51 min 19 sec) 
Heartbeat CPU 0 instructions: 82000000 cycles: 91036945 heartbeat IPC: 0.727199 cumulative IPC: 0.737594 (Simulation time: 3 hr 54 min 23 sec) 
Heartbeat CPU 0 instructions: 83000003 cycles: 92372577 heartbeat IPC: 0.748711 cumulative IPC: 0.737926 (Simulation time: 3 hr 57 min 59 sec) 
Heartbeat CPU 0 instructions: 84000000 cycles: 93717371 heartbeat IPC: 0.743606 cumulative IPC: 0.738092 (Simulation time: 4 hr 1 min 8 sec) 
Heartbeat CPU 0 instructions: 85000002 cycles: 95034943 heartbeat IPC: 0.758973 cumulative IPC: 0.738673 (Simulation time: 4 hr 3 min 59 sec) 
Heartbeat CPU 0 instructions: 86000003 cycles: 96340127 heartbeat IPC: 0.766176 cumulative IPC: 0.73941 (Simulation time: 4 hr 8 min 5 sec) 
Heartbeat CPU 0 instructions: 87000000 cycles: 97725177 heartbeat IPC: 0.721993 cumulative IPC: 0.738928 (Simulation time: 4 hr 11 min 14 sec) 
Heartbeat CPU 0 instructions: 88000000 cycles: 99079877 heartbeat IPC: 0.738171 cumulative IPC: 0.738908 (Simulation time: 4 hr 15 min 3 sec) 
Heartbeat CPU 0 instructions: 89000000 cycles: 100444996 heartbeat IPC: 0.732537 cumulative IPC: 0.738744 (Simulation time: 4 hr 18 min 50 sec) 
Heartbeat CPU 0 instructions: 90000000 cycles: 101767509 heartbeat IPC: 0.756136 cumulative IPC: 0.739169 (Simulation time: 4 hr 21 min 36 sec) 
Heartbeat CPU 0 instructions: 91000001 cycles: 103079197 heartbeat IPC: 0.762377 cumulative IPC: 0.739718 (Simulation time: 4 hr 24 min 29 sec) 
Heartbeat CPU 0 instructions: 92000000 cycles: 104399883 heartbeat IPC: 0.757181 cumulative IPC: 0.740124 (Simulation time: 4 hr 27 min 53 sec) 
Heartbeat CPU 0 instructions: 93000003 cycles: 105786819 heartbeat IPC: 0.721016 cumulative IPC: 0.739669 (Simulation time: 4 hr 31 min 2 sec) 
Heartbeat CPU 0 instructions: 94000000 cycles: 107135887 heartbeat IPC: 0.74125 cumulative IPC: 0.739704 (Simulation time: 4 hr 34 min 6 sec) 
Heartbeat CPU 0 instructions: 95000000 cycles: 108490895 heartbeat IPC: 0.738003 cumulative IPC: 0.739667 (Simulation time: 4 hr 37 min 30 sec) 
Heartbeat CPU 0 instructions: 96000000 cycles: 109826395 heartbeat IPC: 0.748783 cumulative IPC: 0.739862 (Simulation time: 4 hr 40 min 20 sec) 
Heartbeat CPU 0 instructions: 97000000 cycles: 111141789 heartbeat IPC: 0.760229 cumulative IPC: 0.740284 (Simulation time: 4 hr 43 min 20 sec) 
Heartbeat CPU 0 instructions: 98000003 cycles: 112456446 heartbeat IPC: 0.760657 cumulative IPC: 0.740698 (Simulation time: 4 hr 45 min 59 sec) 
Heartbeat CPU 0 instructions: 99000000 cycles: 113848430 heartbeat IPC: 0.718397 cumulative IPC: 0.740229 (Simulation time: 4 hr 48 min 38 sec) 
Heartbeat CPU 0 instructions: 100000000 cycles: 115195720 heartbeat IPC: 0.742231 cumulative IPC: 0.740269 (Simulation time: 4 hr 51 min 44 sec) 
Heartbeat CPU 0 instructions: 101000000 cycles: 116546327 heartbeat IPC: 0.740408 cumulative IPC: 0.740271 (Simulation time: 4 hr 54 min 40 sec) 
Heartbeat CPU 0 instructions: 102000001 cycles: 117864914 heartbeat IPC: 0.758388 cumulative IPC: 0.740612 (Simulation time: 4 hr 58 min 21 sec) 
Heartbeat CPU 0 instructions: 103000001 cycles: 119171325 heartbeat IPC: 0.765456 cumulative IPC: 0.741065 (Simulation time: 5 hr 1 min 23 sec) 
Heartbeat CPU 0 instructions: 104000000 cycles: 120475890 heartbeat IPC: 0.766538 cumulative IPC: 0.741522 (Simulation time: 5 hr 4 min 52 sec) 
Heartbeat CPU 0 instructions: 105000002 cycles: 121860944 heartbeat IPC: 0.721995 cumulative IPC: 0.741157 (Simulation time: 5 hr 8 min 12 sec) 
Heartbeat CPU 0 instructions: 106000000 cycles: 123270697 heartbeat IPC: 0.709343 cumulative IPC: 0.740564 (Simulation time: 5 hr 11 min 0 sec) 
Heartbeat CPU 0 instructions: 107000002 cycles: 124664290 heartbeat IPC: 0.717571 cumulative IPC: 0.740148 (Simulation time: 5 hr 14 min 5 sec) 
Heartbeat CPU 0 instructions: 108000000 cycles: 126026659 heartbeat IPC: 0.734014 cumulative IPC: 0.740041 (Simulation time: 5 hr 17 min 18 sec) 
Heartbeat CPU 0 instructions: 109000000 cycles: 127370920 heartbeat IPC: 0.743903 cumulative IPC: 0.740107 (Simulation time: 5 hr 20 min 10 sec) 
Heartbeat CPU 0 instructions: 110000000 cycles: 128706667 heartbeat IPC: 0.748645 cumulative IPC: 0.740247 (Simulation time: 5 hr 23 min 25 sec) 
Heartbeat CPU 0 instructions: 111000000 cycles: 130046743 heartbeat IPC: 0.746226 cumulative IPC: 0.740345 (Simulation time: 5 hr 26 min 36 sec) 
Heartbeat CPU 0 instructions: 112000000 cycles: 131438913 heartbeat IPC: 0.718303 cumulative IPC: 0.739978 (Simulation time: 5 hr 29 min 54 sec) 
Heartbeat CPU 0 instructions: 113000000 cycles: 132816909 heartbeat IPC: 0.725691 cumulative IPC: 0.739747 (Simulation time: 5 hr 32 min 15 sec) 
Heartbeat CPU 0 instructions: 114000001 cycles: 134151557 heartbeat IPC: 0.749262 cumulative IPC: 0.739894 (Simulation time: 5 hr 34 min 56 sec) 
Heartbeat CPU 0 instructions: 115000000 cycles: 135514846 heartbeat IPC: 0.733519 cumulative IPC: 0.739795 (Simulation time: 5 hr 38 min 0 sec) 
Heartbeat CPU 0 instructions: 116000000 cycles: 136836686 heartbeat IPC: 0.756521 cumulative IPC: 0.740043 (Simulation time: 5 hr 40 min 58 sec) 
Heartbeat CPU 0 instructions: 117000000 cycles: 138148813 heartbeat IPC: 0.762121 cumulative IPC: 0.740363 (Simulation time: 5 hr 43 min 38 sec) 
Heartbeat CPU 0 instructions: 118000002 cycles: 139524868 heartbeat IPC: 0.726717 cumulative IPC: 0.740159 (Simulation time: 5 hr 46 min 23 sec) 
Heartbeat CPU 0 instructions: 119000000 cycles: 140935449 heartbeat IPC: 0.708926 cumulative IPC: 0.739686 (Simulation time: 5 hr 48 min 45 sec) 
Heartbeat CPU 0 instructions: 120000000 cycles: 142369124 heartbeat IPC: 0.697508 cumulative IPC: 0.739048 (Simulation time: 5 hr 52 min 3 sec) 
Heartbeat CPU 0 instructions: 121000000 cycles: 143729573 heartbeat IPC: 0.735051 cumulative IPC: 0.738991 (Simulation time: 5 hr 54 min 59 sec) 
Heartbeat CPU 0 instructions: 122000003 cycles: 145069324 heartbeat IPC: 0.74641 cumulative IPC: 0.739093 (Simulation time: 5 hr 57 min 35 sec) 
Heartbeat CPU 0 instructions: 123000003 cycles: 146402236 heartbeat IPC: 0.750237 cumulative IPC: 0.739244 (Simulation time: 6 hr 0 min 12 sec) 
Heartbeat CPU 0 instructions: 124000000 cycles: 147743858 heartbeat IPC: 0.745364 cumulative IPC: 0.739326 (Simulation time: 6 hr 3 min 15 sec) 
Heartbeat CPU 0 instructions: 125000001 cycles: 149133995 heartbeat IPC: 0.719354 cumulative IPC: 0.739052 (Simulation time: 6 hr 5 min 30 sec) 
Heartbeat CPU 0 instructions: 126000000 cycles: 150469320 heartbeat IPC: 0.748881 cumulative IPC: 0.73918 (Simulation time: 6 hr 8 min 18 sec) 
Heartbeat CPU 0 instructions: 127000003 cycles: 151814745 heartbeat IPC: 0.743262 cumulative IPC: 0.739233 (Simulation time: 6 hr 11 min 15 sec) 
Heartbeat CPU 0 instructions: 128000000 cycles: 153132120 heartbeat IPC: 0.759083 cumulative IPC: 0.73948 (Simulation time: 6 hr 13 min 44 sec) 
Heartbeat CPU 0 instructions: 129000003 cycles: 154437381 heartbeat IPC: 0.766133 cumulative IPC: 0.739806 (Simulation time: 6 hr 16 min 19 sec) 
Heartbeat CPU 0 instructions: 130000000 cycles: 155737568 heartbeat IPC: 0.769118 cumulative IPC: 0.740159 (Simulation time: 6 hr 18 min 47 sec) 
Heartbeat CPU 0 instructions: 131000000 cycles: 157120375 heartbeat IPC: 0.723167 cumulative IPC: 0.739944 (Simulation time: 6 hr 21 min 16 sec) 
Heartbeat CPU 0 instructions: 132000000 cycles: 158522479 heartbeat IPC: 0.713214 cumulative IPC: 0.739606 (Simulation time: 6 hr 23 min 37 sec) 
Heartbeat CPU 0 instructions: 133000003 cycles: 159903828 heartbeat IPC: 0.723932 cumulative IPC: 0.739413 (Simulation time: 6 hr 25 min 53 sec) 
Heartbeat CPU 0 instructions: 134000000 cycles: 161257811 heartbeat IPC: 0.738559 cumulative IPC: 0.739403 (Simulation time: 6 hr 28 min 11 sec) 
Heartbeat CPU 0 instructions: 135000002 cycles: 162581445 heartbeat IPC: 0.755497 cumulative IPC: 0.739588 (Simulation time: 6 hr 30 min 26 sec) 
Heartbeat CPU 0 instructions: 136000000 cycles: 163894605 heartbeat IPC: 0.76152 cumulative IPC: 0.739836 (Simulation time: 6 hr 32 min 40 sec) 
Heartbeat CPU 0 instructions: 137000003 cycles: 165229714 heartbeat IPC: 0.749005 cumulative IPC: 0.73994 (Simulation time: 6 hr 34 min 52 sec) 
Heartbeat CPU 0 instructions: 138000003 cycles: 166585456 heartbeat IPC: 0.737603 cumulative IPC: 0.739914 (Simulation time: 6 hr 37 min 0 sec) 
Heartbeat CPU 0 instructions: 139000000 cycles: 167976534 heartbeat IPC: 0.718865 cumulative IPC: 0.73967 (Simulation time: 6 hr 39 min 3 sec) 
Heartbeat CPU 0 instructions: 140000000 cycles: 169304208 heartbeat IPC: 0.753197 cumulative IPC: 0.739818 (Simulation time: 6 hr 40 min 52 sec) 
Heartbeat CPU 0 instructions: 141000001 cycles: 170632587 heartbeat IPC: 0.752798 cumulative IPC: 0.739958 (Simulation time: 6 hr 42 min 40 sec) 
Heartbeat CPU 0 instructions: 142000000 cycles: 171939189 heartbeat IPC: 0.765343 cumulative IPC: 0.740225 (Simulation time: 6 hr 44 min 6 sec) 
Heartbeat CPU 0 instructions: 143000003 cycles: 173268722 heartbeat IPC: 0.752146 cumulative IPC: 0.740351 (Simulation time: 6 hr 45 min 41 sec) 
Heartbeat CPU 0 instructions: 144000000 cycles: 174619753 heartbeat IPC: 0.740173 cumulative IPC: 0.740349 (Simulation time: 6 hr 47 min 7 sec) 
Heartbeat CPU 0 instructions: 145000001 cycles: 176014824 heartbeat IPC: 0.71681 cumulative IPC: 0.740094 (Simulation time: 6 hr 48 min 42 sec) 
Heartbeat CPU 0 instructions: 146000000 cycles: 177427583 heartbeat IPC: 0.707834 cumulative IPC: 0.739742 (Simulation time: 6 hr 50 min 13 sec) 
Heartbeat CPU 0 instructions: 147000001 cycles: 178788323 heartbeat IPC: 0.734895 cumulative IPC: 0.739692 (Simulation time: 6 hr 51 min 45 sec) 
Heartbeat CPU 0 instructions: 148000000 cycles: 180118969 heartbeat IPC: 0.751514 cumulative IPC: 0.739811 (Simulation time: 6 hr 53 min 13 sec) 
Heartbeat CPU 0 instructions: 149000000 cycles: 181437158 heartbeat IPC: 0.758617 cumulative IPC: 0.739996 (Simulation time: 6 hr 54 min 33 sec) 
Heartbeat CPU 0 instructions: 150000000 cycles: 182761534 heartbeat IPC: 0.755073 cumulative IPC: 0.740144 (Simulation time: 6 hr 55 min 39 sec) 
Finished CPU 0 instructions: 100000000 cycles: 135108873 cummulative IPC: 0.740144 (Simulation time: 6 hr 55 min 39 sec) 

ChampSim completed all CPUs

Region of Interest Statistics

CPU 0 cummulative IPC: 0.740144 instructions: 100000000 cycles: 135108873
LLC TOTAL     ACCESS:   21168192  HIT:   21066929  MISS:     101263
LLC LOAD      ACCESS:     165339  HIT:     125034  MISS:      40305
LLC RFO       ACCESS:   10374956  HIT:   10369264  MISS:       5692
LLC PREFETCH  ACCESS:     183335  HIT:     140494  MISS:      42841
LLC WRITEBACK ACCESS:   10444562  HIT:   10432137  MISS:      12425
