
*** ChampSim Multicore Out-of-Order Simulator ***

Warmup Instructions: 50000000
Simulation Instructions: 100000000
Configuration: 2
Number of CPUs: 1
LLC sets: 2048
LLC ways: 16
Off-chip DRAM Channels: 1 Width: 64-bit Data Rate: 1600 MT/s

CPU 0 runs /datasets/cs240c-wi22-a00-public/data/Assignment2-gz/perlbench_135B.trace.gz
CPU 0 L1D next line prefetcher
CPU 0 L2C IP-based stride prefetcher
Heartbeat CPU 0 instructions: 1000000 cycles: 600033 heartbeat IPC: 1.66657 cumulative IPC: 1.66657 (Simulation time: 0 hr 2 min 36 sec) 
Heartbeat CPU 0 instructions: 2000000 cycles: 1209301 heartbeat IPC: 1.64131 cumulative IPC: 1.65385 (Simulation time: 0 hr 5 min 41 sec) 
Heartbeat CPU 0 instructions: 3000000 cycles: 1832834 heartbeat IPC: 1.60376 cumulative IPC: 1.63681 (Simulation time: 0 hr 9 min 3 sec) 
Heartbeat CPU 0 instructions: 4000000 cycles: 2492639 heartbeat IPC: 1.5156 cumulative IPC: 1.60473 (Simulation time: 0 hr 11 min 39 sec) 
Heartbeat CPU 0 instructions: 5000001 cycles: 3079302 heartbeat IPC: 1.70456 cumulative IPC: 1.62374 (Simulation time: 0 hr 14 min 14 sec) 
Heartbeat CPU 0 instructions: 6000002 cycles: 3681725 heartbeat IPC: 1.65996 cumulative IPC: 1.62967 (Simulation time: 0 hr 16 min 57 sec) 
Heartbeat CPU 0 instructions: 7000001 cycles: 4282460 heartbeat IPC: 1.66463 cumulative IPC: 1.63457 (Simulation time: 0 hr 19 min 34 sec) 
Heartbeat CPU 0 instructions: 8000000 cycles: 4892951 heartbeat IPC: 1.63802 cumulative IPC: 1.63501 (Simulation time: 0 hr 22 min 20 sec) 
Heartbeat CPU 0 instructions: 9000001 cycles: 5534071 heartbeat IPC: 1.55977 cumulative IPC: 1.62629 (Simulation time: 0 hr 25 min 2 sec) 
Heartbeat CPU 0 instructions: 10000000 cycles: 6192773 heartbeat IPC: 1.51814 cumulative IPC: 1.61479 (Simulation time: 0 hr 27 min 44 sec) 
Heartbeat CPU 0 instructions: 11000003 cycles: 6888877 heartbeat IPC: 1.43657 cumulative IPC: 1.59678 (Simulation time: 0 hr 30 min 37 sec) 
Heartbeat CPU 0 instructions: 12000000 cycles: 7505092 heartbeat IPC: 1.62281 cumulative IPC: 1.59891 (Simulation time: 0 hr 33 min 4 sec) 
Heartbeat CPU 0 instructions: 13000000 cycles: 8134020 heartbeat IPC: 1.59001 cumulative IPC: 1.59823 (Simulation time: 0 hr 35 min 51 sec) 
Heartbeat CPU 0 instructions: 14000002 cycles: 8774601 heartbeat IPC: 1.56109 cumulative IPC: 1.59551 (Simulation time: 0 hr 38 min 47 sec) 
Heartbeat CPU 0 instructions: 15000003 cycles: 9413583 heartbeat IPC: 1.56499 cumulative IPC: 1.59344 (Simulation time: 0 hr 42 min 8 sec) 
Heartbeat CPU 0 instructions: 16000000 cycles: 10053481 heartbeat IPC: 1.56274 cumulative IPC: 1.59149 (Simulation time: 0 hr 44 min 54 sec) 
Heartbeat CPU 0 instructions: 17000000 cycles: 10694686 heartbeat IPC: 1.55956 cumulative IPC: 1.58957 (Simulation time: 0 hr 48 min 15 sec) 
Heartbeat CPU 0 instructions: 18000000 cycles: 11335393 heartbeat IPC: 1.56078 cumulative IPC: 1.58795 (Simulation time: 0 hr 50 min 55 sec) 
Heartbeat CPU 0 instructions: 19000003 cycles: 11972480 heartbeat IPC: 1.56965 cumulative IPC: 1.58697 (Simulation time: 0 hr 53 min 44 sec) 
Heartbeat CPU 0 instructions: 20000000 cycles: 12611326 heartbeat IPC: 1.56532 cumulative IPC: 1.58588 (Simulation time: 0 hr 56 min 47 sec) 
Heartbeat CPU 0 instructions: 21000000 cycles: 13246702 heartbeat IPC: 1.57387 cumulative IPC: 1.5853 (Simulation time: 0 hr 59 min 43 sec) 
Heartbeat CPU 0 instructions: 22000002 cycles: 13885453 heartbeat IPC: 1.56556 cumulative IPC: 1.58439 (Simulation time: 1 hr 2 min 37 sec) 
Heartbeat CPU 0 instructions: 23000003 cycles: 14552984 heartbeat IPC: 1.49806 cumulative IPC: 1.58043 (Simulation time: 1 hr 5 min 55 sec) 
Heartbeat CPU 0 instructions: 24000000 cycles: 15116826 heartbeat IPC: 1.77354 cumulative IPC: 1.58763 (Simulation time: 1 hr 9 min 7 sec) 
Heartbeat CPU 0 instructions: 25000000 cycles: 15773734 heartbeat IPC: 1.52228 cumulative IPC: 1.58491 (Simulation time: 1 hr 12 min 1 sec) 
Heartbeat CPU 0 instructions: 26000001 cycles: 16389822 heartbeat IPC: 1.62315 cumulative IPC: 1.58635 (Simulation time: 1 hr 14 min 57 sec) 
Heartbeat CPU 0 instructions: 27000000 cycles: 17030071 heartbeat IPC: 1.56189 cumulative IPC: 1.58543 (Simulation time: 1 hr 18 min 12 sec) 
Heartbeat CPU 0 instructions: 28000000 cycles: 17670778 heartbeat IPC: 1.56078 cumulative IPC: 1.58454 (Simulation time: 1 hr 21 min 21 sec) 
Heartbeat CPU 0 instructions: 29000000 cycles: 18308308 heartbeat IPC: 1.56855 cumulative IPC: 1.58398 (Simulation time: 1 hr 24 min 19 sec) 
Heartbeat CPU 0 instructions: 30000002 cycles: 18954007 heartbeat IPC: 1.54871 cumulative IPC: 1.58278 (Simulation time: 1 hr 27 min 29 sec) 
Heartbeat CPU 0 instructions: 31000001 cycles: 19590622 heartbeat IPC: 1.57081 cumulative IPC: 1.58239 (Simulation time: 1 hr 30 min 44 sec) 
Heartbeat CPU 0 instructions: 32000000 cycles: 20230792 heartbeat IPC: 1.56208 cumulative IPC: 1.58175 (Simulation time: 1 hr 33 min 45 sec) 
Heartbeat CPU 0 instructions: 33000000 cycles: 20866120 heartbeat IPC: 1.57399 cumulative IPC: 1.58151 (Simulation time: 1 hr 36 min 20 sec) 
Heartbeat CPU 0 instructions: 34000001 cycles: 21502454 heartbeat IPC: 1.5715 cumulative IPC: 1.58121 (Simulation time: 1 hr 39 min 32 sec) 
Heartbeat CPU 0 instructions: 35000003 cycles: 22158221 heartbeat IPC: 1.52493 cumulative IPC: 1.57955 (Simulation time: 1 hr 42 min 22 sec) 
Heartbeat CPU 0 instructions: 36000000 cycles: 22757285 heartbeat IPC: 1.66927 cumulative IPC: 1.58191 (Simulation time: 1 hr 45 min 2 sec) 
Heartbeat CPU 0 instructions: 37000000 cycles: 23372249 heartbeat IPC: 1.62611 cumulative IPC: 1.58307 (Simulation time: 1 hr 47 min 42 sec) 
Heartbeat CPU 0 instructions: 38000002 cycles: 23944501 heartbeat IPC: 1.74749 cumulative IPC: 1.587 (Simulation time: 1 hr 50 min 16 sec) 
Heartbeat CPU 0 instructions: 39000000 cycles: 24548481 heartbeat IPC: 1.65568 cumulative IPC: 1.58869 (Simulation time: 1 hr 52 min 39 sec) 
Heartbeat CPU 0 instructions: 40000000 cycles: 25099992 heartbeat IPC: 1.8132 cumulative IPC: 1.59363 (Simulation time: 1 hr 55 min 5 sec) 
Heartbeat CPU 0 instructions: 41000001 cycles: 25666527 heartbeat IPC: 1.76512 cumulative IPC: 1.59741 (Simulation time: 1 hr 57 min 33 sec) 
Heartbeat CPU 0 instructions: 42000003 cycles: 26304074 heartbeat IPC: 1.56851 cumulative IPC: 1.59671 (Simulation time: 2 hr 0 min 32 sec) 
Heartbeat CPU 0 instructions: 43000001 cycles: 26970162 heartbeat IPC: 1.5013 cumulative IPC: 1.59435 (Simulation time: 2 hr 3 min 1 sec) 
Heartbeat CPU 0 instructions: 44000000 cycles: 27582348 heartbeat IPC: 1.63349 cumulative IPC: 1.59522 (Simulation time: 2 hr 5 min 50 sec) 
Heartbeat CPU 0 instructions: 45000003 cycles: 28228264 heartbeat IPC: 1.54819 cumulative IPC: 1.59415 (Simulation time: 2 hr 8 min 17 sec) 
Heartbeat CPU 0 instructions: 46000000 cycles: 28867882 heartbeat IPC: 1.56343 cumulative IPC: 1.59347 (Simulation time: 2 hr 11 min 5 sec) 
Heartbeat CPU 0 instructions: 47000000 cycles: 29507006 heartbeat IPC: 1.56464 cumulative IPC: 1.59284 (Simulation time: 2 hr 14 min 11 sec) 
Heartbeat CPU 0 instructions: 48000000 cycles: 30147161 heartbeat IPC: 1.56212 cumulative IPC: 1.59219 (Simulation time: 2 hr 16 min 59 sec) 
Heartbeat CPU 0 instructions: 49000003 cycles: 30789114 heartbeat IPC: 1.55775 cumulative IPC: 1.59147 (Simulation time: 2 hr 19 min 19 sec) 
Heartbeat CPU 0 instructions: 50000001 cycles: 31428724 heartbeat IPC: 1.56345 cumulative IPC: 1.5909 (Simulation time: 2 hr 21 min 50 sec) 

Warmup complete CPU 0 instructions: 50000001 cycles: 31428724 (Simulation time: 2 hr 21 min 50 sec) 

Heartbeat CPU 0 instructions: 51000000 cycles: 34047593 heartbeat IPC: 0.381844 cumulative IPC: 0.381844 (Simulation time: 2 hr 24 min 43 sec) 
Heartbeat CPU 0 instructions: 52000000 cycles: 36658294 heartbeat IPC: 0.383039 cumulative IPC: 0.38244 (Simulation time: 2 hr 27 min 41 sec) 
Heartbeat CPU 0 instructions: 53000000 cycles: 39242671 heartbeat IPC: 0.38694 cumulative IPC: 0.383929 (Simulation time: 2 hr 30 min 42 sec) 
Heartbeat CPU 0 instructions: 54000001 cycles: 41885808 heartbeat IPC: 0.378339 cumulative IPC: 0.382516 (Simulation time: 2 hr 34 min 12 sec) 
Heartbeat CPU 0 instructions: 55000001 cycles: 44334880 heartbeat IPC: 0.408318 cumulative IPC: 0.387412 (Simulation time: 2 hr 37 min 41 sec) 
Heartbeat CPU 0 instructions: 56000000 cycles: 46461614 heartbeat IPC: 0.470204 cumulative IPC: 0.399125 (Simulation time: 2 hr 40 min 50 sec) 
Heartbeat CPU 0 instructions: 57000000 cycles: 48666769 heartbeat IPC: 0.453483 cumulative IPC: 0.406078 (Simulation time: 2 hr 43 min 48 sec) 
Heartbeat CPU 0 instructions: 58000002 cycles: 50614558 heartbeat IPC: 0.513404 cumulative IPC: 0.416974 (Simulation time: 2 hr 47 min 0 sec) 
Heartbeat CPU 0 instructions: 59000003 cycles: 52742243 heartbeat IPC: 0.469995 cumulative IPC: 0.422267 (Simulation time: 2 hr 49 min 50 sec) 
Heartbeat CPU 0 instructions: 60000000 cycles: 55674499 heartbeat IPC: 0.341033 cumulative IPC: 0.412443 (Simulation time: 2 hr 53 min 23 sec) 
Heartbeat CPU 0 instructions: 61000000 cycles: 58087375 heartbeat IPC: 0.414443 cumulative IPC: 0.412624 (Simulation time: 2 hr 57 min 30 sec) 
Heartbeat CPU 0 instructions: 62000001 cycles: 60878163 heartbeat IPC: 0.358322 cumulative IPC: 0.407478 (Simulation time: 3 hr 0 min 37 sec) 
Heartbeat CPU 0 instructions: 63000000 cycles: 63832693 heartbeat IPC: 0.338463 cumulative IPC: 0.401185 (Simulation time: 3 hr 4 min 4 sec) 
Heartbeat CPU 0 instructions: 64000000 cycles: 66959176 heartbeat IPC: 0.319848 cumulative IPC: 0.394028 (Simulation time: 3 hr 6 min 59 sec) 
Heartbeat CPU 0 instructions: 65000001 cycles: 69922589 heartbeat IPC: 0.337449 cumulative IPC: 0.389672 (Simulation time: 3 hr 10 min 17 sec) 
Heartbeat CPU 0 instructions: 66000001 cycles: 72841193 heartbeat IPC: 0.34263 cumulative IPC: 0.386357 (Simulation time: 3 hr 13 min 36 sec) 
Heartbeat CPU 0 instructions: 67000001 cycles: 75560054 heartbeat IPC: 0.367801 cumulative IPC: 0.385214 (Simulation time: 3 hr 16 min 45 sec) 
Heartbeat CPU 0 instructions: 68000000 cycles: 78305173 heartbeat IPC: 0.364283 cumulative IPC: 0.383988 (Simulation time: 3 hr 20 min 12 sec) 
Heartbeat CPU 0 instructions: 69000002 cycles: 81289139 heartbeat IPC: 0.335125 cumulative IPC: 0.381064 (Simulation time: 3 hr 23 min 43 sec) 
Heartbeat CPU 0 instructions: 70000003 cycles: 83123423 heartbeat IPC: 0.545172 cumulative IPC: 0.386887 (Simulation time: 3 hr 26 min 39 sec) 
Heartbeat CPU 0 instructions: 71000000 cycles: 85043168 heartbeat IPC: 0.520901 cumulative IPC: 0.391685 (Simulation time: 3 hr 29 min 37 sec) 
Heartbeat CPU 0 instructions: 72000000 cycles: 87059885 heartbeat IPC: 0.495855 cumulative IPC: 0.395462 (Simulation time: 3 hr 32 min 55 sec) 
Heartbeat CPU 0 instructions: 73000000 cycles: 89345873 heartbeat IPC: 0.437448 cumulative IPC: 0.397119 (Simulation time: 3 hr 36 min 26 sec) 
Heartbeat CPU 0 instructions: 74000000 cycles: 91264419 heartbeat IPC: 0.521228 cumulative IPC: 0.401098 (Simulation time: 3 hr 39 min 26 sec) 
Heartbeat CPU 0 instructions: 75000003 cycles: 93527789 heartbeat IPC: 0.44182 cumulative IPC: 0.402583 (Simulation time: 3 hr 43 min 18 sec) 
Heartbeat CPU 0 instructions: 76000000 cycles: 96266110 heartbeat IPC: 0.365186 cumulative IPC: 0.401003 (Simulation time: 3 hr 46 min 24 sec) 
Heartbeat CPU 0 instructions: 77000000 cycles: 98974539 heartbeat IPC: 0.369218 cumulative IPC: 0.399729 (Simulation time: 3 hr 50 min 12 sec) 
Heartbeat CPU 0 instructions: 78000000 cycles: 101975637 heartbeat IPC: 0.333211 cumulative IPC: 0.396899 (Simulation time: 3 hr 54 min 56 sec) 
Heartbeat CPU 0 instructions: 79000000 cycles: 103843237 heartbeat IPC: 0.535447 cumulative IPC: 0.400472 (Simulation time: 3 hr 58 min 32 sec) 
Heartbeat CPU 0 instructions: 80000000 cycles: 105645068 heartbeat IPC: 0.554991 cumulative IPC: 0.404224 (Simulation time: 4 hr 1 min 36 sec) 
Heartbeat CPU 0 instructions: 81000000 cycles: 107566464 heartbeat IPC: 0.520455 cumulative IPC: 0.407157 (Simulation time: 4 hr 5 min 15 sec) 
Heartbeat CPU 0 instructions: 82000000 cycles: 109484003 heartbeat IPC: 0.521502 cumulative IPC: 0.409966 (Simulation time: 4 hr 8 min 8 sec) 
Heartbeat CPU 0 instructions: 83000000 cycles: 111857670 heartbeat IPC: 0.421289 cumulative IPC: 0.4103 (Simulation time: 4 hr 12 min 49 sec) 
Heartbeat CPU 0 instructions: 84000000 cycles: 113810826 heartbeat IPC: 0.511992 cumulative IPC: 0.412711 (Simulation time: 4 hr 16 min 41 sec) 
Heartbeat CPU 0 instructions: 85000000 cycles: 115731841 heartbeat IPC: 0.520558 cumulative IPC: 0.415168 (Simulation time: 4 hr 19 min 29 sec) 
Heartbeat CPU 0 instructions: 86000002 cycles: 117650370 heartbeat IPC: 0.521234 cumulative IPC: 0.417529 (Simulation time: 4 hr 22 min 13 sec) 
Heartbeat CPU 0 instructions: 87000003 cycles: 119842271 heartbeat IPC: 0.456225 cumulative IPC: 0.418488 (Simulation time: 4 hr 25 min 4 sec) 
Heartbeat CPU 0 instructions: 88000000 cycles: 122618306 heartbeat IPC: 0.360225 cumulative IPC: 0.416714 (Simulation time: 4 hr 28 min 26 sec) 
Heartbeat CPU 0 instructions: 89000003 cycles: 125199054 heartbeat IPC: 0.387486 cumulative IPC: 0.41591 (Simulation time: 4 hr 31 min 34 sec) 
Heartbeat CPU 0 instructions: 90000001 cycles: 128120673 heartbeat IPC: 0.342275 cumulative IPC: 0.413685 (Simulation time: 4 hr 34 min 35 sec) 
Heartbeat CPU 0 instructions: 91000000 cycles: 130648616 heartbeat IPC: 0.395578 cumulative IPC: 0.413224 (Simulation time: 4 hr 37 min 31 sec) 
Heartbeat CPU 0 instructions: 92000000 cycles: 133148664 heartbeat IPC: 0.399992 cumulative IPC: 0.412898 (Simulation time: 4 hr 40 min 51 sec) 
Heartbeat CPU 0 instructions: 93000000 cycles: 135870956 heartbeat IPC: 0.367338 cumulative IPC: 0.411711 (Simulation time: 4 hr 43 min 28 sec) 
Heartbeat CPU 0 instructions: 94000001 cycles: 138532452 heartbeat IPC: 0.375729 cumulative IPC: 0.410817 (Simulation time: 4 hr 46 min 50 sec) 
Heartbeat CPU 0 instructions: 95000000 cycles: 141404239 heartbeat IPC: 0.348215 cumulative IPC: 0.409182 (Simulation time: 4 hr 49 min 40 sec) 
Heartbeat CPU 0 instructions: 96000000 cycles: 144551925 heartbeat IPC: 0.317694 cumulative IPC: 0.406636 (Simulation time: 4 hr 52 min 55 sec) 
Heartbeat CPU 0 instructions: 97000001 cycles: 147507853 heartbeat IPC: 0.338304 cumulative IPC: 0.404896 (Simulation time: 4 hr 56 min 20 sec) 
Heartbeat CPU 0 instructions: 98000000 cycles: 150174106 heartbeat IPC: 0.375058 cumulative IPC: 0.404226 (Simulation time: 4 hr 59 min 5 sec) 
Heartbeat CPU 0 instructions: 99000000 cycles: 152781891 heartbeat IPC: 0.383467 cumulative IPC: 0.40378 (Simulation time: 5 hr 2 min 44 sec) 
Heartbeat CPU 0 instructions: 100000000 cycles: 155410798 heartbeat IPC: 0.380386 cumulative IPC: 0.403284 (Simulation time: 5 hr 6 min 7 sec) 
Heartbeat CPU 0 instructions: 101000001 cycles: 158018246 heartbeat IPC: 0.383517 cumulative IPC: 0.402877 (Simulation time: 5 hr 8 min 58 sec) 
Heartbeat CPU 0 instructions: 102000000 cycles: 160657007 heartbeat IPC: 0.378965 cumulative IPC: 0.402389 (Simulation time: 5 hr 12 min 9 sec) 
Heartbeat CPU 0 instructions: 103000000 cycles: 163335979 heartbeat IPC: 0.373278 cumulative IPC: 0.401797 (Simulation time: 5 hr 15 min 40 sec) 
Heartbeat CPU 0 instructions: 104000000 cycles: 166112761 heartbeat IPC: 0.360129 cumulative IPC: 0.400938 (Simulation time: 5 hr 19 min 9 sec) 
Heartbeat CPU 0 instructions: 105000001 cycles: 168723207 heartbeat IPC: 0.383077 cumulative IPC: 0.400599 (Simulation time: 5 hr 22 min 7 sec) 
Heartbeat CPU 0 instructions: 106000001 cycles: 171347521 heartbeat IPC: 0.381052 cumulative IPC: 0.400232 (Simulation time: 5 hr 25 min 10 sec) 
Heartbeat CPU 0 instructions: 107000000 cycles: 173966232 heartbeat IPC: 0.381867 cumulative IPC: 0.399895 (Simulation time: 5 hr 28 min 9 sec) 
Heartbeat CPU 0 instructions: 108000000 cycles: 176578129 heartbeat IPC: 0.382863 cumulative IPC: 0.399588 (Simulation time: 5 hr 31 min 57 sec) 
Heartbeat CPU 0 instructions: 109000001 cycles: 179165197 heartbeat IPC: 0.386538 cumulative IPC: 0.39936 (Simulation time: 5 hr 36 min 22 sec) 
Heartbeat CPU 0 instructions: 110000003 cycles: 181335827 heartbeat IPC: 0.460697 cumulative IPC: 0.400248 (Simulation time: 5 hr 39 min 16 sec) 
Heartbeat CPU 0 instructions: 111000000 cycles: 183768365 heartbeat IPC: 0.411092 cumulative IPC: 0.400421 (Simulation time: 5 hr 42 min 17 sec) 
Heartbeat CPU 0 instructions: 112000000 cycles: 186633039 heartbeat IPC: 0.34908 cumulative IPC: 0.399473 (Simulation time: 5 hr 46 min 30 sec) 
Heartbeat CPU 0 instructions: 113000000 cycles: 189322714 heartbeat IPC: 0.371792 cumulative IPC: 0.399002 (Simulation time: 5 hr 49 min 33 sec) 
Heartbeat CPU 0 instructions: 114000002 cycles: 191891387 heartbeat IPC: 0.389307 cumulative IPC: 0.398847 (Simulation time: 5 hr 52 min 32 sec) 
Heartbeat CPU 0 instructions: 115000001 cycles: 194507331 heartbeat IPC: 0.382271 cumulative IPC: 0.398581 (Simulation time: 5 hr 55 min 51 sec) 
Heartbeat CPU 0 instructions: 116000000 cycles: 197094137 heartbeat IPC: 0.386577 cumulative IPC: 0.398393 (Simulation time: 5 hr 58 min 54 sec) 
Heartbeat CPU 0 instructions: 117000002 cycles: 199669445 heartbeat IPC: 0.388304 cumulative IPC: 0.398239 (Simulation time: 6 hr 2 min 3 sec) 
Heartbeat CPU 0 instructions: 118000001 cycles: 202188600 heartbeat IPC: 0.396958 cumulative IPC: 0.39822 (Simulation time: 6 hr 5 min 28 sec) 
Heartbeat CPU 0 instructions: 119000000 cycles: 204189218 heartbeat IPC: 0.499845 cumulative IPC: 0.399397 (Simulation time: 6 hr 8 min 6 sec) 
Heartbeat CPU 0 instructions: 120000000 cycles: 206975823 heartbeat IPC: 0.35886 cumulative IPC: 0.398753 (Simulation time: 6 hr 11 min 13 sec) 
Heartbeat CPU 0 instructions: 121000001 cycles: 209627946 heartbeat IPC: 0.377057 cumulative IPC: 0.39843 (Simulation time: 6 hr 14 min 4 sec) 
Heartbeat CPU 0 instructions: 122000002 cycles: 212453620 heartbeat IPC: 0.353898 cumulative IPC: 0.397735 (Simulation time: 6 hr 17 min 3 sec) 
Heartbeat CPU 0 instructions: 123000001 cycles: 215240475 heartbeat IPC: 0.358827 cumulative IPC: 0.397145 (Simulation time: 6 hr 19 min 51 sec) 
Heartbeat CPU 0 instructions: 124000000 cycles: 217801308 heartbeat IPC: 0.390498 cumulative IPC: 0.397054 (Simulation time: 6 hr 22 min 43 sec) 
Heartbeat CPU 0 instructions: 125000003 cycles: 219770886 heartbeat IPC: 0.507725 cumulative IPC: 0.398211 (Simulation time: 6 hr 24 min 45 sec) 
Heartbeat CPU 0 instructions: 126000000 cycles: 221692624 heartbeat IPC: 0.520361 cumulative IPC: 0.399445 (Simulation time: 6 hr 26 min 58 sec) 
Heartbeat CPU 0 instructions: 127000001 cycles: 224111576 heartbeat IPC: 0.413403 cumulative IPC: 0.39962 (Simulation time: 6 hr 29 min 26 sec) 
Heartbeat CPU 0 instructions: 128000000 cycles: 226104898 heartbeat IPC: 0.501675 cumulative IPC: 0.400665 (Simulation time: 6 hr 31 min 33 sec) 
Heartbeat CPU 0 instructions: 129000000 cycles: 228027677 heartbeat IPC: 0.520081 cumulative IPC: 0.401833 (Simulation time: 6 hr 33 min 36 sec) 
Heartbeat CPU 0 instructions: 130000001 cycles: 230763203 heartbeat IPC: 0.365561 cumulative IPC: 0.401335 (Simulation time: 6 hr 35 min 49 sec) 
Heartbeat CPU 0 instructions: 131000003 cycles: 233435646 heartbeat IPC: 0.37419 cumulative IPC: 0.400976 (Simulation time: 6 hr 38 min 9 sec) 
Heartbeat CPU 0 instructions: 132000000 cycles: 236166447 heartbeat IPC: 0.366192 cumulative IPC: 0.400512 (Simulation time: 6 hr 40 min 14 sec) 
Heartbeat CPU 0 instructions: 133000002 cycles: 239185719 heartbeat IPC: 0.331206 cumulative IPC: 0.399505 (Simulation time: 6 hr 42 min 10 sec) 
Heartbeat CPU 0 instructions: 134000000 cycles: 242264834 heartbeat IPC: 0.324768 cumulative IPC: 0.398414 (Simulation time: 6 hr 44 min 4 sec) 
Heartbeat CPU 0 instructions: 135000002 cycles: 244820998 heartbeat IPC: 0.391212 cumulative IPC: 0.398327 (Simulation time: 6 hr 46 min 2 sec) 
Heartbeat CPU 0 instructions: 136000000 cycles: 247627897 heartbeat IPC: 0.356264 cumulative IPC: 0.397781 (Simulation time: 6 hr 47 min 46 sec) 
Heartbeat CPU 0 instructions: 137000003 cycles: 250397431 heartbeat IPC: 0.361073 cumulative IPC: 0.397317 (Simulation time: 6 hr 49 min 32 sec) 
Heartbeat CPU 0 instructions: 138000000 cycles: 253121805 heartbeat IPC: 0.367056 cumulative IPC: 0.396945 (Simulation time: 6 hr 51 min 10 sec) 
Heartbeat CPU 0 instructions: 139000001 cycles: 255394019 heartbeat IPC: 0.4401 cumulative IPC: 0.397383 (Simulation time: 6 hr 52 min 49 sec) 
Heartbeat CPU 0 instructions: 140000000 cycles: 258084462 heartbeat IPC: 0.371686 cumulative IPC: 0.397078 (Simulation time: 6 hr 54 min 24 sec) 
Heartbeat CPU 0 instructions: 141000000 cycles: 260859125 heartbeat IPC: 0.360404 cumulative IPC: 0.396634 (Simulation time: 6 hr 55 min 37 sec) 
Heartbeat CPU 0 instructions: 142000000 cycles: 263616572 heartbeat IPC: 0.362654 cumulative IPC: 0.396231 (Simulation time: 6 hr 56 min 45 sec) 
Heartbeat CPU 0 instructions: 143000000 cycles: 266277942 heartbeat IPC: 0.375746 cumulative IPC: 0.395999 (Simulation time: 6 hr 57 min 49 sec) 
Heartbeat CPU 0 instructions: 144000000 cycles: 268484173 heartbeat IPC: 0.453262 cumulative IPC: 0.396532 (Simulation time: 6 hr 58 min 49 sec) 
Heartbeat CPU 0 instructions: 145000002 cycles: 270699047 heartbeat IPC: 0.451494 cumulative IPC: 0.39704 (Simulation time: 6 hr 59 min 41 sec) 
Heartbeat CPU 0 instructions: 146000001 cycles: 272712958 heartbeat IPC: 0.496546 cumulative IPC: 0.397871 (Simulation time: 7 hr 0 min 21 sec) 
Heartbeat CPU 0 instructions: 147000001 cycles: 275443858 heartbeat IPC: 0.36618 cumulative IPC: 0.397516 (Simulation time: 7 hr 1 min 6 sec) 
Heartbeat CPU 0 instructions: 148000000 cycles: 278027136 heartbeat IPC: 0.387105 cumulative IPC: 0.397407 (Simulation time: 7 hr 1 min 56 sec) 
Heartbeat CPU 0 instructions: 149000000 cycles: 280728239 heartbeat IPC: 0.370219 cumulative IPC: 0.397113 (Simulation time: 7 hr 2 min 38 sec) 
Heartbeat CPU 0 instructions: 150000001 cycles: 283470398 heartbeat IPC: 0.364677 cumulative IPC: 0.39676 (Simulation time: 7 hr 3 min 16 sec) 
Finished CPU 0 instructions: 100000000 cycles: 252041674 cummulative IPC: 0.39676 (Simulation time: 7 hr 3 min 16 sec) 

ChampSim completed all CPUs

Region of Interest Statistics

CPU 0 cummulative IPC: 0.39676 instructions: 100000000 cycles: 252041674
LLC TOTAL     ACCESS:     694185  HIT:     631449  MISS:      62736
LLC LOAD      ACCESS:     325668  HIT:     297780  MISS:      27888
LLC RFO       ACCESS:      31879  HIT:      28919  MISS:       2960
LLC PREFETCH  ACCESS:     223622  HIT:     195659  MISS:      27963
LLC WRITEBACK ACCESS:     113016  HIT:     109091  MISS:       3925
