
*** ChampSim Multicore Out-of-Order Simulator ***

Warmup Instructions: 50000000
Simulation Instructions: 100000000
Configuration: 2
Number of CPUs: 1
LLC sets: 2048
LLC ways: 16
Off-chip DRAM Channels: 1 Width: 64-bit Data Rate: 1600 MT/s

CPU 0 runs /datasets/cs240c-wi22-a00-public/data/Assignment2-gz/leslie3d_1116B.trace.gz
CPU 0 L1D next line prefetcher
CPU 0 L2C IP-based stride prefetcher
Heartbeat CPU 0 instructions: 1000003 cycles: 535311 heartbeat IPC: 1.86808 cumulative IPC: 1.86808 (Simulation time: 0 hr 2 min 40 sec) 
Heartbeat CPU 0 instructions: 2000003 cycles: 1071193 heartbeat IPC: 1.86608 cumulative IPC: 1.86708 (Simulation time: 0 hr 5 min 30 sec) 
Heartbeat CPU 0 instructions: 3000003 cycles: 1607887 heartbeat IPC: 1.86326 cumulative IPC: 1.8658 (Simulation time: 0 hr 8 min 23 sec) 
Heartbeat CPU 0 instructions: 4000000 cycles: 2143246 heartbeat IPC: 1.8679 cumulative IPC: 1.86633 (Simulation time: 0 hr 11 min 18 sec) 
Heartbeat CPU 0 instructions: 5000001 cycles: 2678357 heartbeat IPC: 1.86877 cumulative IPC: 1.86682 (Simulation time: 0 hr 14 min 26 sec) 
Heartbeat CPU 0 instructions: 6000001 cycles: 3213858 heartbeat IPC: 1.86741 cumulative IPC: 1.86692 (Simulation time: 0 hr 17 min 2 sec) 
Heartbeat CPU 0 instructions: 7000001 cycles: 3749853 heartbeat IPC: 1.86569 cumulative IPC: 1.86674 (Simulation time: 0 hr 19 min 33 sec) 
Heartbeat CPU 0 instructions: 8000000 cycles: 4285900 heartbeat IPC: 1.86551 cumulative IPC: 1.86659 (Simulation time: 0 hr 22 min 14 sec) 
Heartbeat CPU 0 instructions: 9000003 cycles: 4821037 heartbeat IPC: 1.86869 cumulative IPC: 1.86682 (Simulation time: 0 hr 24 min 52 sec) 
Heartbeat CPU 0 instructions: 10000002 cycles: 5356075 heartbeat IPC: 1.86902 cumulative IPC: 1.86704 (Simulation time: 0 hr 27 min 49 sec) 
Heartbeat CPU 0 instructions: 11000001 cycles: 5891787 heartbeat IPC: 1.86667 cumulative IPC: 1.86701 (Simulation time: 0 hr 30 min 49 sec) 
Heartbeat CPU 0 instructions: 12000000 cycles: 6428262 heartbeat IPC: 1.86402 cumulative IPC: 1.86676 (Simulation time: 0 hr 33 min 54 sec) 
Heartbeat CPU 0 instructions: 13000002 cycles: 6963562 heartbeat IPC: 1.86812 cumulative IPC: 1.86686 (Simulation time: 0 hr 36 min 45 sec) 
Heartbeat CPU 0 instructions: 14000003 cycles: 7498312 heartbeat IPC: 1.87003 cumulative IPC: 1.86709 (Simulation time: 0 hr 39 min 41 sec) 
Heartbeat CPU 0 instructions: 15000002 cycles: 8033788 heartbeat IPC: 1.8675 cumulative IPC: 1.86711 (Simulation time: 0 hr 42 min 19 sec) 
Heartbeat CPU 0 instructions: 16000000 cycles: 8569926 heartbeat IPC: 1.86519 cumulative IPC: 1.86699 (Simulation time: 0 hr 45 min 25 sec) 
Heartbeat CPU 0 instructions: 17000003 cycles: 9106307 heartbeat IPC: 1.86435 cumulative IPC: 1.86684 (Simulation time: 0 hr 48 min 8 sec) 
Heartbeat CPU 0 instructions: 18000001 cycles: 9641335 heartbeat IPC: 1.86906 cumulative IPC: 1.86696 (Simulation time: 0 hr 50 min 53 sec) 
Heartbeat CPU 0 instructions: 19000001 cycles: 10176800 heartbeat IPC: 1.86754 cumulative IPC: 1.86699 (Simulation time: 0 hr 53 min 56 sec) 
Heartbeat CPU 0 instructions: 20000000 cycles: 10712209 heartbeat IPC: 1.86773 cumulative IPC: 1.86703 (Simulation time: 0 hr 56 min 36 sec) 
Heartbeat CPU 0 instructions: 21000000 cycles: 11248710 heartbeat IPC: 1.86393 cumulative IPC: 1.86688 (Simulation time: 0 hr 59 min 41 sec) 
Heartbeat CPU 0 instructions: 22000000 cycles: 11783826 heartbeat IPC: 1.86875 cumulative IPC: 1.86697 (Simulation time: 1 hr 2 min 49 sec) 
Heartbeat CPU 0 instructions: 23000003 cycles: 12319093 heartbeat IPC: 1.86823 cumulative IPC: 1.86702 (Simulation time: 1 hr 5 min 52 sec) 
Heartbeat CPU 0 instructions: 24000000 cycles: 12854143 heartbeat IPC: 1.86898 cumulative IPC: 1.8671 (Simulation time: 1 hr 8 min 54 sec) 
Heartbeat CPU 0 instructions: 25000001 cycles: 13390154 heartbeat IPC: 1.86564 cumulative IPC: 1.86704 (Simulation time: 1 hr 11 min 42 sec) 
Heartbeat CPU 0 instructions: 26000002 cycles: 13926487 heartbeat IPC: 1.86452 cumulative IPC: 1.86695 (Simulation time: 1 hr 14 min 26 sec) 
Heartbeat CPU 0 instructions: 27000003 cycles: 14461413 heartbeat IPC: 1.86942 cumulative IPC: 1.86704 (Simulation time: 1 hr 17 min 3 sec) 
Heartbeat CPU 0 instructions: 28000000 cycles: 14996511 heartbeat IPC: 1.86881 cumulative IPC: 1.8671 (Simulation time: 1 hr 20 min 23 sec) 
Heartbeat CPU 0 instructions: 29000000 cycles: 15532039 heartbeat IPC: 1.86732 cumulative IPC: 1.86711 (Simulation time: 1 hr 23 min 35 sec) 
Heartbeat CPU 0 instructions: 30000002 cycles: 16068891 heartbeat IPC: 1.86271 cumulative IPC: 1.86696 (Simulation time: 1 hr 26 min 9 sec) 
Heartbeat CPU 0 instructions: 31000001 cycles: 16604163 heartbeat IPC: 1.86821 cumulative IPC: 1.867 (Simulation time: 1 hr 29 min 10 sec) 
Heartbeat CPU 0 instructions: 32000000 cycles: 17139721 heartbeat IPC: 1.86721 cumulative IPC: 1.86701 (Simulation time: 1 hr 31 min 50 sec) 
Heartbeat CPU 0 instructions: 33000001 cycles: 17674998 heartbeat IPC: 1.86819 cumulative IPC: 1.86704 (Simulation time: 1 hr 34 min 12 sec) 
Heartbeat CPU 0 instructions: 34000000 cycles: 18210771 heartbeat IPC: 1.86646 cumulative IPC: 1.86703 (Simulation time: 1 hr 37 min 23 sec) 
Heartbeat CPU 0 instructions: 35000000 cycles: 18746869 heartbeat IPC: 1.86533 cumulative IPC: 1.86698 (Simulation time: 1 hr 40 min 46 sec) 
Heartbeat CPU 0 instructions: 36000000 cycles: 19281557 heartbeat IPC: 1.87025 cumulative IPC: 1.86707 (Simulation time: 1 hr 44 min 6 sec) 
Heartbeat CPU 0 instructions: 37000003 cycles: 19863928 heartbeat IPC: 1.71712 cumulative IPC: 1.86267 (Simulation time: 1 hr 46 min 29 sec) 
Heartbeat CPU 0 instructions: 38000003 cycles: 20282177 heartbeat IPC: 2.39092 cumulative IPC: 1.87357 (Simulation time: 1 hr 48 min 45 sec) 
Heartbeat CPU 0 instructions: 39000003 cycles: 20700339 heartbeat IPC: 2.39142 cumulative IPC: 1.88403 (Simulation time: 1 hr 51 min 20 sec) 
Heartbeat CPU 0 instructions: 40000000 cycles: 21118718 heartbeat IPC: 2.39017 cumulative IPC: 1.89405 (Simulation time: 1 hr 53 min 48 sec) 
Heartbeat CPU 0 instructions: 41000002 cycles: 21536882 heartbeat IPC: 2.39141 cumulative IPC: 1.90371 (Simulation time: 1 hr 56 min 23 sec) 
Heartbeat CPU 0 instructions: 42000001 cycles: 21954734 heartbeat IPC: 2.39319 cumulative IPC: 1.91303 (Simulation time: 1 hr 59 min 15 sec) 
Heartbeat CPU 0 instructions: 43000003 cycles: 22372763 heartbeat IPC: 2.39218 cumulative IPC: 1.92198 (Simulation time: 2 hr 1 min 55 sec) 
Heartbeat CPU 0 instructions: 44000000 cycles: 22790674 heartbeat IPC: 2.39285 cumulative IPC: 1.93061 (Simulation time: 2 hr 4 min 28 sec) 
Heartbeat CPU 0 instructions: 45000002 cycles: 23208803 heartbeat IPC: 2.39161 cumulative IPC: 1.93892 (Simulation time: 2 hr 6 min 55 sec) 
Heartbeat CPU 0 instructions: 46000002 cycles: 23626707 heartbeat IPC: 2.39289 cumulative IPC: 1.94695 (Simulation time: 2 hr 9 min 36 sec) 
Heartbeat CPU 0 instructions: 47000001 cycles: 24044391 heartbeat IPC: 2.39415 cumulative IPC: 1.95472 (Simulation time: 2 hr 11 min 49 sec) 
Heartbeat CPU 0 instructions: 48000000 cycles: 24462368 heartbeat IPC: 2.39247 cumulative IPC: 1.9622 (Simulation time: 2 hr 14 min 5 sec) 
Heartbeat CPU 0 instructions: 49000000 cycles: 24919618 heartbeat IPC: 2.18699 cumulative IPC: 1.96632 (Simulation time: 2 hr 16 min 38 sec) 
Heartbeat CPU 0 instructions: 50000000 cycles: 25406972 heartbeat IPC: 2.0519 cumulative IPC: 1.96796 (Simulation time: 2 hr 19 min 16 sec) 

Warmup complete CPU 0 instructions: 50000004 cycles: 25406974 (Simulation time: 2 hr 19 min 16 sec) 

Heartbeat CPU 0 instructions: 51000002 cycles: 27745408 heartbeat IPC: 0.427637 cumulative IPC: 0.427636 (Simulation time: 2 hr 22 min 58 sec) 
Heartbeat CPU 0 instructions: 52000000 cycles: 30163314 heartbeat IPC: 0.41358 cumulative IPC: 0.420491 (Simulation time: 2 hr 26 min 33 sec) 
Heartbeat CPU 0 instructions: 53000003 cycles: 32587030 heartbeat IPC: 0.412591 cumulative IPC: 0.417824 (Simulation time: 2 hr 29 min 49 sec) 
Heartbeat CPU 0 instructions: 54000000 cycles: 34955807 heartbeat IPC: 0.422157 cumulative IPC: 0.418899 (Simulation time: 2 hr 33 min 31 sec) 
Heartbeat CPU 0 instructions: 55000002 cycles: 37251282 heartbeat IPC: 0.435641 cumulative IPC: 0.422144 (Simulation time: 2 hr 37 min 15 sec) 
Heartbeat CPU 0 instructions: 56000000 cycles: 39530743 heartbeat IPC: 0.438699 cumulative IPC: 0.424816 (Simulation time: 2 hr 41 min 14 sec) 
Heartbeat CPU 0 instructions: 57000002 cycles: 41782941 heartbeat IPC: 0.444012 cumulative IPC: 0.427456 (Simulation time: 2 hr 45 min 3 sec) 
Heartbeat CPU 0 instructions: 58000001 cycles: 44004789 heartbeat IPC: 0.450075 cumulative IPC: 0.430158 (Simulation time: 2 hr 49 min 6 sec) 
Heartbeat CPU 0 instructions: 59000000 cycles: 45292648 heartbeat IPC: 0.776482 cumulative IPC: 0.452587 (Simulation time: 2 hr 51 min 49 sec) 
Heartbeat CPU 0 instructions: 60000000 cycles: 46582206 heartbeat IPC: 0.77546 cumulative IPC: 0.47225 (Simulation time: 2 hr 55 min 2 sec) 
Heartbeat CPU 0 instructions: 61000000 cycles: 47961531 heartbeat IPC: 0.724992 cumulative IPC: 0.487706 (Simulation time: 2 hr 58 min 9 sec) 
Heartbeat CPU 0 instructions: 62000002 cycles: 49375543 heartbeat IPC: 0.707209 cumulative IPC: 0.500656 (Simulation time: 3 hr 1 min 1 sec) 
Heartbeat CPU 0 instructions: 63000003 cycles: 50640637 heartbeat IPC: 0.790456 cumulative IPC: 0.515185 (Simulation time: 3 hr 3 min 41 sec) 
Heartbeat CPU 0 instructions: 64000000 cycles: 51918418 heartbeat IPC: 0.782604 cumulative IPC: 0.528074 (Simulation time: 3 hr 6 min 41 sec) 
Heartbeat CPU 0 instructions: 65000001 cycles: 53428051 heartbeat IPC: 0.662413 cumulative IPC: 0.535311 (Simulation time: 3 hr 9 min 24 sec) 
Heartbeat CPU 0 instructions: 66000000 cycles: 54659117 heartbeat IPC: 0.812303 cumulative IPC: 0.546968 (Simulation time: 3 hr 12 min 12 sec) 
Heartbeat CPU 0 instructions: 67000001 cycles: 55913865 heartbeat IPC: 0.796974 cumulative IPC: 0.557251 (Simulation time: 3 hr 14 min 52 sec) 
Heartbeat CPU 0 instructions: 68000000 cycles: 57359727 heartbeat IPC: 0.691628 cumulative IPC: 0.563332 (Simulation time: 3 hr 17 min 58 sec) 
Heartbeat CPU 0 instructions: 69000002 cycles: 58660801 heartbeat IPC: 0.768597 cumulative IPC: 0.571363 (Simulation time: 3 hr 20 min 37 sec) 
Heartbeat CPU 0 instructions: 70000000 cycles: 59883540 heartbeat IPC: 0.817834 cumulative IPC: 0.580104 (Simulation time: 3 hr 23 min 44 sec) 
Heartbeat CPU 0 instructions: 71000002 cycles: 61132993 heartbeat IPC: 0.800352 cumulative IPC: 0.587807 (Simulation time: 3 hr 27 min 36 sec) 
Heartbeat CPU 0 instructions: 72000000 cycles: 62570239 heartbeat IPC: 0.695774 cumulative IPC: 0.591982 (Simulation time: 3 hr 30 min 23 sec) 
Heartbeat CPU 0 instructions: 73000000 cycles: 63806572 heartbeat IPC: 0.808844 cumulative IPC: 0.598965 (Simulation time: 3 hr 34 min 36 sec) 
Heartbeat CPU 0 instructions: 74000000 cycles: 65034800 heartbeat IPC: 0.814181 cumulative IPC: 0.605635 (Simulation time: 3 hr 38 min 11 sec) 
Heartbeat CPU 0 instructions: 75000002 cycles: 66484452 heartbeat IPC: 0.689822 cumulative IPC: 0.608606 (Simulation time: 3 hr 40 min 58 sec) 
Heartbeat CPU 0 instructions: 76000000 cycles: 67704594 heartbeat IPC: 0.819575 cumulative IPC: 0.614692 (Simulation time: 3 hr 45 min 6 sec) 
Heartbeat CPU 0 instructions: 77000001 cycles: 68918573 heartbeat IPC: 0.823738 cumulative IPC: 0.620524 (Simulation time: 3 hr 48 min 9 sec) 
Heartbeat CPU 0 instructions: 78000002 cycles: 70231387 heartbeat IPC: 0.761723 cumulative IPC: 0.62466 (Simulation time: 3 hr 51 min 26 sec) 
Heartbeat CPU 0 instructions: 79000001 cycles: 71547927 heartbeat IPC: 0.759566 cumulative IPC: 0.628509 (Simulation time: 3 hr 54 min 55 sec) 
Heartbeat CPU 0 instructions: 80000000 cycles: 72763531 heartbeat IPC: 0.822635 cumulative IPC: 0.633492 (Simulation time: 3 hr 57 min 59 sec) 
Heartbeat CPU 0 instructions: 81000003 cycles: 73974902 heartbeat IPC: 0.825513 cumulative IPC: 0.638281 (Simulation time: 4 hr 1 min 11 sec) 
Heartbeat CPU 0 instructions: 82000000 cycles: 75398402 heartbeat IPC: 0.702492 cumulative IPC: 0.64011 (Simulation time: 4 hr 3 min 57 sec) 
Heartbeat CPU 0 instructions: 83000001 cycles: 76604545 heartbeat IPC: 0.82909 cumulative IPC: 0.644562 (Simulation time: 4 hr 7 min 15 sec) 
Heartbeat CPU 0 instructions: 84000000 cycles: 77826280 heartbeat IPC: 0.818507 cumulative IPC: 0.648616 (Simulation time: 4 hr 10 min 25 sec) 
Heartbeat CPU 0 instructions: 85000003 cycles: 79228657 heartbeat IPC: 0.713077 cumulative IPC: 0.650295 (Simulation time: 4 hr 13 min 40 sec) 
Heartbeat CPU 0 instructions: 86000002 cycles: 80449018 heartbeat IPC: 0.819429 cumulative IPC: 0.654045 (Simulation time: 4 hr 17 min 51 sec) 
Heartbeat CPU 0 instructions: 87000001 cycles: 81654259 heartbeat IPC: 0.829709 cumulative IPC: 0.657809 (Simulation time: 4 hr 20 min 52 sec) 
Heartbeat CPU 0 instructions: 88000000 cycles: 82888218 heartbeat IPC: 0.810399 cumulative IPC: 0.661085 (Simulation time: 4 hr 23 min 34 sec) 
Heartbeat CPU 0 instructions: 89000001 cycles: 84283037 heartbeat IPC: 0.71694 cumulative IPC: 0.662408 (Simulation time: 4 hr 26 min 28 sec) 
Heartbeat CPU 0 instructions: 90000003 cycles: 85493982 heartbeat IPC: 0.825803 cumulative IPC: 0.665701 (Simulation time: 4 hr 29 min 53 sec) 
Heartbeat CPU 0 instructions: 91000000 cycles: 86711367 heartbeat IPC: 0.82143 cumulative IPC: 0.668794 (Simulation time: 4 hr 33 min 9 sec) 
Heartbeat CPU 0 instructions: 92000000 cycles: 88129997 heartbeat IPC: 0.704905 cumulative IPC: 0.669611 (Simulation time: 4 hr 36 min 14 sec) 
Heartbeat CPU 0 instructions: 93000002 cycles: 89341524 heartbeat IPC: 0.825406 cumulative IPC: 0.672563 (Simulation time: 4 hr 38 min 57 sec) 
Heartbeat CPU 0 instructions: 94000000 cycles: 90555410 heartbeat IPC: 0.823799 cumulative IPC: 0.675381 (Simulation time: 4 hr 42 min 6 sec) 
Heartbeat CPU 0 instructions: 95000003 cycles: 91877663 heartbeat IPC: 0.756287 cumulative IPC: 0.67699 (Simulation time: 4 hr 45 min 12 sec) 
Heartbeat CPU 0 instructions: 96000000 cycles: 93191545 heartbeat IPC: 0.761101 cumulative IPC: 0.67862 (Simulation time: 4 hr 48 min 9 sec) 
Heartbeat CPU 0 instructions: 97000000 cycles: 94392623 heartbeat IPC: 0.832585 cumulative IPC: 0.681301 (Simulation time: 4 hr 50 min 31 sec) 
Heartbeat CPU 0 instructions: 98000000 cycles: 95608628 heartbeat IPC: 0.822365 cumulative IPC: 0.683744 (Simulation time: 4 hr 53 min 4 sec) 
Heartbeat CPU 0 instructions: 99000003 cycles: 97018734 heartbeat IPC: 0.709169 cumulative IPC: 0.684245 (Simulation time: 4 hr 55 min 46 sec) 
Heartbeat CPU 0 instructions: 100000000 cycles: 98252641 heartbeat IPC: 0.810431 cumulative IPC: 0.686383 (Simulation time: 4 hr 58 min 50 sec) 
Heartbeat CPU 0 instructions: 101000001 cycles: 99476934 heartbeat IPC: 0.816799 cumulative IPC: 0.688538 (Simulation time: 5 hr 1 min 43 sec) 
Heartbeat CPU 0 instructions: 102000003 cycles: 100879084 heartbeat IPC: 0.713192 cumulative IPC: 0.688996 (Simulation time: 5 hr 4 min 35 sec) 
Heartbeat CPU 0 instructions: 103000001 cycles: 102111185 heartbeat IPC: 0.81162 cumulative IPC: 0.690966 (Simulation time: 5 hr 7 min 29 sec) 
Heartbeat CPU 0 instructions: 104000000 cycles: 103336178 heartbeat IPC: 0.81633 cumulative IPC: 0.692937 (Simulation time: 5 hr 10 min 21 sec) 
Heartbeat CPU 0 instructions: 105000000 cycles: 104576941 heartbeat IPC: 0.805956 cumulative IPC: 0.694708 (Simulation time: 5 hr 13 min 43 sec) 
Heartbeat CPU 0 instructions: 106000003 cycles: 106476112 heartbeat IPC: 0.526547 cumulative IPC: 0.690768 (Simulation time: 5 hr 16 min 57 sec) 
Heartbeat CPU 0 instructions: 107000002 cycles: 108462920 heartbeat IPC: 0.503319 cumulative IPC: 0.686284 (Simulation time: 5 hr 20 min 49 sec) 
Heartbeat CPU 0 instructions: 108000000 cycles: 110493666 heartbeat IPC: 0.492429 cumulative IPC: 0.681658 (Simulation time: 5 hr 24 min 21 sec) 
Heartbeat CPU 0 instructions: 109000003 cycles: 112565241 heartbeat IPC: 0.482726 cumulative IPC: 0.676929 (Simulation time: 5 hr 27 min 34 sec) 
Heartbeat CPU 0 instructions: 110000000 cycles: 114537041 heartbeat IPC: 0.507149 cumulative IPC: 0.673173 (Simulation time: 5 hr 31 min 44 sec) 
Heartbeat CPU 0 instructions: 111000003 cycles: 116610080 heartbeat IPC: 0.482385 cumulative IPC: 0.668837 (Simulation time: 5 hr 35 min 28 sec) 
Heartbeat CPU 0 instructions: 112000000 cycles: 118594494 heartbeat IPC: 0.503926 cumulative IPC: 0.665325 (Simulation time: 5 hr 38 min 43 sec) 
Heartbeat CPU 0 instructions: 113000000 cycles: 120593471 heartbeat IPC: 0.500256 cumulative IPC: 0.661859 (Simulation time: 5 hr 42 min 44 sec) 
Heartbeat CPU 0 instructions: 114000000 cycles: 122633451 heartbeat IPC: 0.490201 cumulative IPC: 0.658257 (Simulation time: 5 hr 46 min 52 sec) 
Heartbeat CPU 0 instructions: 115000001 cycles: 124651055 heartbeat IPC: 0.495638 cumulative IPC: 0.654951 (Simulation time: 5 hr 50 min 4 sec) 
Heartbeat CPU 0 instructions: 116000000 cycles: 126952696 heartbeat IPC: 0.434472 cumulative IPC: 0.649953 (Simulation time: 5 hr 53 min 28 sec) 
Heartbeat CPU 0 instructions: 117000003 cycles: 129273975 heartbeat IPC: 0.430798 cumulative IPC: 0.645056 (Simulation time: 5 hr 56 min 34 sec) 
Heartbeat CPU 0 instructions: 118000002 cycles: 131568919 heartbeat IPC: 0.43574 cumulative IPC: 0.640531 (Simulation time: 5 hr 59 min 22 sec) 
Heartbeat CPU 0 instructions: 119000002 cycles: 133904146 heartbeat IPC: 0.428224 cumulative IPC: 0.635961 (Simulation time: 6 hr 3 min 7 sec) 
Heartbeat CPU 0 instructions: 120000000 cycles: 136255104 heartbeat IPC: 0.425358 cumulative IPC: 0.631495 (Simulation time: 6 hr 6 min 29 sec) 
Heartbeat CPU 0 instructions: 121000001 cycles: 138543008 heartbeat IPC: 0.437082 cumulative IPC: 0.627563 (Simulation time: 6 hr 10 min 48 sec) 
Heartbeat CPU 0 instructions: 122000001 cycles: 140813680 heartbeat IPC: 0.440398 cumulative IPC: 0.623881 (Simulation time: 6 hr 14 min 47 sec) 
Heartbeat CPU 0 instructions: 123000003 cycles: 143087906 heartbeat IPC: 0.439711 cumulative IPC: 0.620321 (Simulation time: 6 hr 18 min 40 sec) 
Heartbeat CPU 0 instructions: 124000000 cycles: 144471966 heartbeat IPC: 0.72251 cumulative IPC: 0.621509 (Simulation time: 6 hr 21 min 25 sec) 
Heartbeat CPU 0 instructions: 125000000 cycles: 145832186 heartbeat IPC: 0.735175 cumulative IPC: 0.622793 (Simulation time: 6 hr 24 min 2 sec) 
Heartbeat CPU 0 instructions: 126000000 cycles: 147167196 heartbeat IPC: 0.749058 cumulative IPC: 0.624178 (Simulation time: 6 hr 26 min 39 sec) 
Heartbeat CPU 0 instructions: 127000003 cycles: 148491026 heartbeat IPC: 0.755386 cumulative IPC: 0.625589 (Simulation time: 6 hr 29 min 15 sec) 
Heartbeat CPU 0 instructions: 128000000 cycles: 149836068 heartbeat IPC: 0.743469 cumulative IPC: 0.626863 (Simulation time: 6 hr 31 min 40 sec) 
Heartbeat CPU 0 instructions: 129000000 cycles: 151162680 heartbeat IPC: 0.7538 cumulative IPC: 0.628202 (Simulation time: 6 hr 34 min 7 sec) 
Heartbeat CPU 0 instructions: 130000000 cycles: 152537723 heartbeat IPC: 0.72725 cumulative IPC: 0.629273 (Simulation time: 6 hr 36 min 29 sec) 
Heartbeat CPU 0 instructions: 131000000 cycles: 153839672 heartbeat IPC: 0.768079 cumulative IPC: 0.630681 (Simulation time: 6 hr 38 min 38 sec) 
Heartbeat CPU 0 instructions: 132000000 cycles: 155179602 heartbeat IPC: 0.746308 cumulative IPC: 0.631874 (Simulation time: 6 hr 40 min 46 sec) 
Heartbeat CPU 0 instructions: 133000001 cycles: 156517423 heartbeat IPC: 0.747485 cumulative IPC: 0.633054 (Simulation time: 6 hr 42 min 47 sec) 
Heartbeat CPU 0 instructions: 134000000 cycles: 157848821 heartbeat IPC: 0.751089 cumulative IPC: 0.634241 (Simulation time: 6 hr 44 min 29 sec) 
Heartbeat CPU 0 instructions: 135000001 cycles: 159240441 heartbeat IPC: 0.718588 cumulative IPC: 0.635118 (Simulation time: 6 hr 46 min 7 sec) 
Heartbeat CPU 0 instructions: 136000000 cycles: 160575041 heartbeat IPC: 0.749287 cumulative IPC: 0.636245 (Simulation time: 6 hr 47 min 44 sec) 
Heartbeat CPU 0 instructions: 137000003 cycles: 161939773 heartbeat IPC: 0.732747 cumulative IPC: 0.63721 (Simulation time: 6 hr 49 min 20 sec) 
Heartbeat CPU 0 instructions: 138000002 cycles: 163250682 heartbeat IPC: 0.762829 cumulative IPC: 0.638404 (Simulation time: 6 hr 51 min 2 sec) 
Heartbeat CPU 0 instructions: 139000000 cycles: 164586002 heartbeat IPC: 0.748883 cumulative IPC: 0.639464 (Simulation time: 6 hr 52 min 41 sec) 
Heartbeat CPU 0 instructions: 140000000 cycles: 165935355 heartbeat IPC: 0.741096 cumulative IPC: 0.64044 (Simulation time: 6 hr 54 min 10 sec) 
Heartbeat CPU 0 instructions: 141000001 cycles: 167250458 heartbeat IPC: 0.760397 cumulative IPC: 0.641552 (Simulation time: 6 hr 55 min 33 sec) 
Heartbeat CPU 0 instructions: 142000003 cycles: 168624969 heartbeat IPC: 0.727533 cumulative IPC: 0.642377 (Simulation time: 6 hr 56 min 30 sec) 
Heartbeat CPU 0 instructions: 143000003 cycles: 169946697 heartbeat IPC: 0.756585 cumulative IPC: 0.643422 (Simulation time: 6 hr 57 min 26 sec) 
Heartbeat CPU 0 instructions: 144000000 cycles: 171317478 heartbeat IPC: 0.729509 cumulative IPC: 0.64423 (Simulation time: 6 hr 58 min 33 sec) 
Heartbeat CPU 0 instructions: 145000003 cycles: 172677062 heartbeat IPC: 0.735521 cumulative IPC: 0.645073 (Simulation time: 6 hr 59 min 22 sec) 
Heartbeat CPU 0 instructions: 146000003 cycles: 174023096 heartbeat IPC: 0.742923 cumulative IPC: 0.645959 (Simulation time: 7 hr 0 min 8 sec) 
Heartbeat CPU 0 instructions: 147000003 cycles: 175386724 heartbeat IPC: 0.733338 cumulative IPC: 0.646754 (Simulation time: 7 hr 0 min 47 sec) 
Heartbeat CPU 0 instructions: 148000000 cycles: 176706891 heartbeat IPC: 0.757478 cumulative IPC: 0.64772 (Simulation time: 7 hr 1 min 25 sec) 
Heartbeat CPU 0 instructions: 149000000 cycles: 178075653 heartbeat IPC: 0.730587 cumulative IPC: 0.648463 (Simulation time: 7 hr 2 min 5 sec) 
Heartbeat CPU 0 instructions: 150000001 cycles: 179411296 heartbeat IPC: 0.748704 cumulative IPC: 0.649332 (Simulation time: 7 hr 2 min 44 sec) 
Finished CPU 0 instructions: 100000001 cycles: 154004323 cummulative IPC: 0.649332 (Simulation time: 7 hr 2 min 44 sec) 

ChampSim completed all CPUs

Region of Interest Statistics

CPU 0 cummulative IPC: 0.649332 instructions: 100000001 cycles: 154004323
LLC TOTAL     ACCESS:    4211472  HIT:     734829  MISS:    3476643
LLC LOAD      ACCESS:     415157  HIT:      63262  MISS:     351895
LLC RFO       ACCESS:     595306  HIT:     152799  MISS:     442507
LLC PREFETCH  ACCESS:    2365635  HIT:     266885  MISS:    2098750
LLC WRITEBACK ACCESS:     835374  HIT:     251883  MISS:     583491
