
*** ChampSim Multicore Out-of-Order Simulator ***

Warmup Instructions: 50000000
Simulation Instructions: 100000000
Configuration: 2
Number of CPUs: 1
LLC sets: 2048
LLC ways: 16
Off-chip DRAM Channels: 1 Width: 64-bit Data Rate: 1600 MT/s

CPU 0 runs /datasets/cs240c-wi22-a00-public/data/Assignment2-gz/milc_744B.trace.gz
CPU 0 L1D next line prefetcher
CPU 0 L2C IP-based stride prefetcher
Heartbeat CPU 0 instructions: 1000000 cycles: 383656 heartbeat IPC: 2.6065 cumulative IPC: 2.6065 (Simulation time: 0 hr 2 min 13 sec) 
Heartbeat CPU 0 instructions: 2000001 cycles: 767293 heartbeat IPC: 2.60663 cumulative IPC: 2.60657 (Simulation time: 0 hr 4 min 40 sec) 
Heartbeat CPU 0 instructions: 3000001 cycles: 1150974 heartbeat IPC: 2.60633 cumulative IPC: 2.60649 (Simulation time: 0 hr 7 min 24 sec) 
Heartbeat CPU 0 instructions: 4000000 cycles: 1534617 heartbeat IPC: 2.60659 cumulative IPC: 2.60651 (Simulation time: 0 hr 9 min 38 sec) 
Heartbeat CPU 0 instructions: 5000001 cycles: 1918298 heartbeat IPC: 2.60633 cumulative IPC: 2.60648 (Simulation time: 0 hr 12 min 17 sec) 
Heartbeat CPU 0 instructions: 6000002 cycles: 2301951 heartbeat IPC: 2.60652 cumulative IPC: 2.60649 (Simulation time: 0 hr 14 min 49 sec) 
Heartbeat CPU 0 instructions: 7000002 cycles: 2685605 heartbeat IPC: 2.60652 cumulative IPC: 2.60649 (Simulation time: 0 hr 17 min 3 sec) 
Heartbeat CPU 0 instructions: 8000000 cycles: 3069239 heartbeat IPC: 2.60665 cumulative IPC: 2.60651 (Simulation time: 0 hr 19 min 35 sec) 
Heartbeat CPU 0 instructions: 9000003 cycles: 3452946 heartbeat IPC: 2.60616 cumulative IPC: 2.60647 (Simulation time: 0 hr 22 min 2 sec) 
Heartbeat CPU 0 instructions: 10000002 cycles: 3836611 heartbeat IPC: 2.60644 cumulative IPC: 2.60647 (Simulation time: 0 hr 24 min 22 sec) 
Heartbeat CPU 0 instructions: 11000003 cycles: 4220269 heartbeat IPC: 2.60649 cumulative IPC: 2.60647 (Simulation time: 0 hr 26 min 52 sec) 
Heartbeat CPU 0 instructions: 12000000 cycles: 4603919 heartbeat IPC: 2.60653 cumulative IPC: 2.60648 (Simulation time: 0 hr 29 min 3 sec) 
Heartbeat CPU 0 instructions: 13000002 cycles: 4987595 heartbeat IPC: 2.60637 cumulative IPC: 2.60647 (Simulation time: 0 hr 31 min 12 sec) 
Heartbeat CPU 0 instructions: 14000001 cycles: 5371239 heartbeat IPC: 2.60658 cumulative IPC: 2.60648 (Simulation time: 0 hr 33 min 29 sec) 
Heartbeat CPU 0 instructions: 15000001 cycles: 5754911 heartbeat IPC: 2.60639 cumulative IPC: 2.60647 (Simulation time: 0 hr 36 min 10 sec) 
Heartbeat CPU 0 instructions: 16000000 cycles: 6138558 heartbeat IPC: 2.60656 cumulative IPC: 2.60648 (Simulation time: 0 hr 39 min 11 sec) 
Heartbeat CPU 0 instructions: 17000001 cycles: 6522213 heartbeat IPC: 2.60651 cumulative IPC: 2.60648 (Simulation time: 0 hr 41 min 25 sec) 
Heartbeat CPU 0 instructions: 18000003 cycles: 6905855 heartbeat IPC: 2.6066 cumulative IPC: 2.60648 (Simulation time: 0 hr 43 min 56 sec) 
Heartbeat CPU 0 instructions: 19000002 cycles: 7289496 heartbeat IPC: 2.6066 cumulative IPC: 2.60649 (Simulation time: 0 hr 46 min 3 sec) 
Heartbeat CPU 0 instructions: 20000000 cycles: 7673132 heartbeat IPC: 2.60663 cumulative IPC: 2.6065 (Simulation time: 0 hr 48 min 50 sec) 
Heartbeat CPU 0 instructions: 21000003 cycles: 8056837 heartbeat IPC: 2.60618 cumulative IPC: 2.60648 (Simulation time: 0 hr 51 min 16 sec) 
Heartbeat CPU 0 instructions: 22000002 cycles: 8440504 heartbeat IPC: 2.60642 cumulative IPC: 2.60648 (Simulation time: 0 hr 53 min 45 sec) 
Heartbeat CPU 0 instructions: 23000000 cycles: 8824165 heartbeat IPC: 2.60646 cumulative IPC: 2.60648 (Simulation time: 0 hr 55 min 56 sec) 
Heartbeat CPU 0 instructions: 24000000 cycles: 9207788 heartbeat IPC: 2.60673 cumulative IPC: 2.60649 (Simulation time: 0 hr 58 min 21 sec) 
Heartbeat CPU 0 instructions: 25000002 cycles: 9591463 heartbeat IPC: 2.60638 cumulative IPC: 2.60648 (Simulation time: 1 hr 0 min 39 sec) 
Heartbeat CPU 0 instructions: 26000001 cycles: 9975122 heartbeat IPC: 2.60648 cumulative IPC: 2.60648 (Simulation time: 1 hr 3 min 12 sec) 
Heartbeat CPU 0 instructions: 27000001 cycles: 10358818 heartbeat IPC: 2.60623 cumulative IPC: 2.60648 (Simulation time: 1 hr 5 min 59 sec) 
Heartbeat CPU 0 instructions: 28000000 cycles: 10742467 heartbeat IPC: 2.60655 cumulative IPC: 2.60648 (Simulation time: 1 hr 8 min 9 sec) 
Heartbeat CPU 0 instructions: 29000000 cycles: 11126140 heartbeat IPC: 2.60639 cumulative IPC: 2.60647 (Simulation time: 1 hr 10 min 32 sec) 
Heartbeat CPU 0 instructions: 30000003 cycles: 11509791 heartbeat IPC: 2.60654 cumulative IPC: 2.60648 (Simulation time: 1 hr 12 min 52 sec) 
Heartbeat CPU 0 instructions: 31000002 cycles: 11893424 heartbeat IPC: 2.60666 cumulative IPC: 2.60648 (Simulation time: 1 hr 14 min 47 sec) 
Heartbeat CPU 0 instructions: 32000000 cycles: 12277079 heartbeat IPC: 2.6065 cumulative IPC: 2.60648 (Simulation time: 1 hr 17 min 8 sec) 
Heartbeat CPU 0 instructions: 33000001 cycles: 12660737 heartbeat IPC: 2.60649 cumulative IPC: 2.60648 (Simulation time: 1 hr 19 min 39 sec) 
Heartbeat CPU 0 instructions: 34000002 cycles: 13044413 heartbeat IPC: 2.60637 cumulative IPC: 2.60648 (Simulation time: 1 hr 22 min 8 sec) 
Heartbeat CPU 0 instructions: 35000000 cycles: 13428051 heartbeat IPC: 2.60662 cumulative IPC: 2.60648 (Simulation time: 1 hr 24 min 43 sec) 
Heartbeat CPU 0 instructions: 36000000 cycles: 13811694 heartbeat IPC: 2.60659 cumulative IPC: 2.60649 (Simulation time: 1 hr 27 min 6 sec) 
Heartbeat CPU 0 instructions: 37000001 cycles: 14195360 heartbeat IPC: 2.60644 cumulative IPC: 2.60649 (Simulation time: 1 hr 29 min 52 sec) 
Heartbeat CPU 0 instructions: 38000000 cycles: 14579025 heartbeat IPC: 2.60644 cumulative IPC: 2.60648 (Simulation time: 1 hr 32 min 23 sec) 
Heartbeat CPU 0 instructions: 39000002 cycles: 14962680 heartbeat IPC: 2.60651 cumulative IPC: 2.60649 (Simulation time: 1 hr 34 min 48 sec) 
Heartbeat CPU 0 instructions: 40000000 cycles: 15346358 heartbeat IPC: 2.60635 cumulative IPC: 2.60648 (Simulation time: 1 hr 37 min 17 sec) 
Heartbeat CPU 0 instructions: 41000003 cycles: 15730024 heartbeat IPC: 2.60644 cumulative IPC: 2.60648 (Simulation time: 1 hr 39 min 34 sec) 
Heartbeat CPU 0 instructions: 42000002 cycles: 16113669 heartbeat IPC: 2.60657 cumulative IPC: 2.60648 (Simulation time: 1 hr 42 min 19 sec) 
Heartbeat CPU 0 instructions: 43000002 cycles: 16497335 heartbeat IPC: 2.60643 cumulative IPC: 2.60648 (Simulation time: 1 hr 44 min 42 sec) 
Heartbeat CPU 0 instructions: 44000000 cycles: 16880988 heartbeat IPC: 2.60652 cumulative IPC: 2.60648 (Simulation time: 1 hr 46 min 50 sec) 
Heartbeat CPU 0 instructions: 45000000 cycles: 17264648 heartbeat IPC: 2.60647 cumulative IPC: 2.60648 (Simulation time: 1 hr 49 min 7 sec) 
Heartbeat CPU 0 instructions: 46000002 cycles: 17648338 heartbeat IPC: 2.60628 cumulative IPC: 2.60648 (Simulation time: 1 hr 51 min 13 sec) 
Heartbeat CPU 0 instructions: 47000002 cycles: 18031991 heartbeat IPC: 2.60652 cumulative IPC: 2.60648 (Simulation time: 1 hr 53 min 17 sec) 
Heartbeat CPU 0 instructions: 48000000 cycles: 18415635 heartbeat IPC: 2.60658 cumulative IPC: 2.60648 (Simulation time: 1 hr 55 min 24 sec) 
Heartbeat CPU 0 instructions: 49000001 cycles: 18799298 heartbeat IPC: 2.60646 cumulative IPC: 2.60648 (Simulation time: 1 hr 57 min 46 sec) 
Heartbeat CPU 0 instructions: 50000000 cycles: 19182930 heartbeat IPC: 2.60666 cumulative IPC: 2.60648 (Simulation time: 2 hr 0 min 0 sec) 

Warmup complete CPU 0 instructions: 50000004 cycles: 19182931 (Simulation time: 2 hr 0 min 0 sec) 

Heartbeat CPU 0 instructions: 51000001 cycles: 20602895 heartbeat IPC: 0.704243 cumulative IPC: 0.704241 (Simulation time: 2 hr 2 min 27 sec) 
Heartbeat CPU 0 instructions: 52000000 cycles: 22020882 heartbeat IPC: 0.705224 cumulative IPC: 0.704732 (Simulation time: 2 hr 4 min 38 sec) 
Heartbeat CPU 0 instructions: 53000000 cycles: 23442247 heartbeat IPC: 0.703549 cumulative IPC: 0.704337 (Simulation time: 2 hr 7 min 14 sec) 
Heartbeat CPU 0 instructions: 54000001 cycles: 24864397 heartbeat IPC: 0.703161 cumulative IPC: 0.704043 (Simulation time: 2 hr 9 min 22 sec) 
Heartbeat CPU 0 instructions: 55000003 cycles: 26286857 heartbeat IPC: 0.703009 cumulative IPC: 0.703836 (Simulation time: 2 hr 11 min 40 sec) 
Heartbeat CPU 0 instructions: 56000000 cycles: 27709574 heartbeat IPC: 0.702878 cumulative IPC: 0.703676 (Simulation time: 2 hr 13 min 53 sec) 
Heartbeat CPU 0 instructions: 57000000 cycles: 29133962 heartbeat IPC: 0.702056 cumulative IPC: 0.703444 (Simulation time: 2 hr 16 min 34 sec) 
Heartbeat CPU 0 instructions: 58000000 cycles: 30551528 heartbeat IPC: 0.705435 cumulative IPC: 0.703692 (Simulation time: 2 hr 19 min 42 sec) 
Heartbeat CPU 0 instructions: 59000000 cycles: 31970144 heartbeat IPC: 0.704912 cumulative IPC: 0.703828 (Simulation time: 2 hr 22 min 22 sec) 
Heartbeat CPU 0 instructions: 60000000 cycles: 33386565 heartbeat IPC: 0.706005 cumulative IPC: 0.704045 (Simulation time: 2 hr 24 min 47 sec) 
Heartbeat CPU 0 instructions: 61000001 cycles: 34808582 heartbeat IPC: 0.703227 cumulative IPC: 0.70397 (Simulation time: 2 hr 27 min 25 sec) 
Heartbeat CPU 0 instructions: 62000003 cycles: 36235815 heartbeat IPC: 0.700658 cumulative IPC: 0.703693 (Simulation time: 2 hr 30 min 4 sec) 
Heartbeat CPU 0 instructions: 63000001 cycles: 37661035 heartbeat IPC: 0.701645 cumulative IPC: 0.703535 (Simulation time: 2 hr 32 min 14 sec) 
Heartbeat CPU 0 instructions: 64000000 cycles: 39077135 heartbeat IPC: 0.706164 cumulative IPC: 0.703722 (Simulation time: 2 hr 34 min 38 sec) 
Heartbeat CPU 0 instructions: 65000002 cycles: 40499825 heartbeat IPC: 0.702895 cumulative IPC: 0.703667 (Simulation time: 2 hr 37 min 18 sec) 
Heartbeat CPU 0 instructions: 66000001 cycles: 41915970 heartbeat IPC: 0.706142 cumulative IPC: 0.703821 (Simulation time: 2 hr 39 min 29 sec) 
Heartbeat CPU 0 instructions: 67000003 cycles: 43337850 heartbeat IPC: 0.703296 cumulative IPC: 0.70379 (Simulation time: 2 hr 41 min 46 sec) 
Heartbeat CPU 0 instructions: 68000000 cycles: 44768037 heartbeat IPC: 0.699207 cumulative IPC: 0.703534 (Simulation time: 2 hr 44 min 13 sec) 
Heartbeat CPU 0 instructions: 69000003 cycles: 46192888 heartbeat IPC: 0.70183 cumulative IPC: 0.703444 (Simulation time: 2 hr 46 min 25 sec) 
Heartbeat CPU 0 instructions: 70000002 cycles: 47614953 heartbeat IPC: 0.703202 cumulative IPC: 0.703432 (Simulation time: 2 hr 49 min 15 sec) 
Heartbeat CPU 0 instructions: 71000002 cycles: 49025877 heartbeat IPC: 0.708755 cumulative IPC: 0.703684 (Simulation time: 2 hr 51 min 49 sec) 
Heartbeat CPU 0 instructions: 72000000 cycles: 50446271 heartbeat IPC: 0.704029 cumulative IPC: 0.703699 (Simulation time: 2 hr 54 min 39 sec) 
Heartbeat CPU 0 instructions: 73000002 cycles: 51868119 heartbeat IPC: 0.703311 cumulative IPC: 0.703683 (Simulation time: 2 hr 57 min 15 sec) 
Heartbeat CPU 0 instructions: 74000002 cycles: 53289353 heartbeat IPC: 0.703614 cumulative IPC: 0.70368 (Simulation time: 2 hr 59 min 32 sec) 
Heartbeat CPU 0 instructions: 75000001 cycles: 54708134 heartbeat IPC: 0.70483 cumulative IPC: 0.703726 (Simulation time: 3 hr 1 min 46 sec) 
Heartbeat CPU 0 instructions: 76000000 cycles: 56130767 heartbeat IPC: 0.702921 cumulative IPC: 0.703695 (Simulation time: 3 hr 3 min 51 sec) 
Heartbeat CPU 0 instructions: 77000002 cycles: 57549281 heartbeat IPC: 0.704965 cumulative IPC: 0.703742 (Simulation time: 3 hr 6 min 29 sec) 
Heartbeat CPU 0 instructions: 78000000 cycles: 58969807 heartbeat IPC: 0.703963 cumulative IPC: 0.70375 (Simulation time: 3 hr 8 min 43 sec) 
Heartbeat CPU 0 instructions: 79000000 cycles: 60391981 heartbeat IPC: 0.703149 cumulative IPC: 0.703729 (Simulation time: 3 hr 11 min 1 sec) 
Heartbeat CPU 0 instructions: 80000000 cycles: 61814465 heartbeat IPC: 0.702996 cumulative IPC: 0.703704 (Simulation time: 3 hr 13 min 17 sec) 
Heartbeat CPU 0 instructions: 81000003 cycles: 63228571 heartbeat IPC: 0.707163 cumulative IPC: 0.703815 (Simulation time: 3 hr 15 min 41 sec) 
Heartbeat CPU 0 instructions: 82000003 cycles: 64650891 heartbeat IPC: 0.703077 cumulative IPC: 0.703792 (Simulation time: 3 hr 17 min 55 sec) 
Heartbeat CPU 0 instructions: 83000002 cycles: 66069067 heartbeat IPC: 0.70513 cumulative IPC: 0.703833 (Simulation time: 3 hr 20 min 42 sec) 
Heartbeat CPU 0 instructions: 84000000 cycles: 67486508 heartbeat IPC: 0.705495 cumulative IPC: 0.703882 (Simulation time: 3 hr 23 min 13 sec) 
Heartbeat CPU 0 instructions: 85000000 cycles: 68906120 heartbeat IPC: 0.704418 cumulative IPC: 0.703897 (Simulation time: 3 hr 25 min 51 sec) 
Heartbeat CPU 0 instructions: 86000001 cycles: 70322408 heartbeat IPC: 0.706072 cumulative IPC: 0.703957 (Simulation time: 3 hr 29 min 8 sec) 
Heartbeat CPU 0 instructions: 87000001 cycles: 71749359 heartbeat IPC: 0.700795 cumulative IPC: 0.703871 (Simulation time: 3 hr 31 min 47 sec) 
Heartbeat CPU 0 instructions: 88000000 cycles: 73171924 heartbeat IPC: 0.702955 cumulative IPC: 0.703847 (Simulation time: 3 hr 34 min 37 sec) 
Heartbeat CPU 0 instructions: 89000001 cycles: 74585420 heartbeat IPC: 0.707466 cumulative IPC: 0.703939 (Simulation time: 3 hr 37 min 18 sec) 
Heartbeat CPU 0 instructions: 90000000 cycles: 76009338 heartbeat IPC: 0.702287 cumulative IPC: 0.703898 (Simulation time: 3 hr 39 min 41 sec) 
Heartbeat CPU 0 instructions: 91000001 cycles: 77433118 heartbeat IPC: 0.702356 cumulative IPC: 0.70386 (Simulation time: 3 hr 42 min 24 sec) 
Heartbeat CPU 0 instructions: 92000000 cycles: 82488479 heartbeat IPC: 0.19781 cumulative IPC: 0.663449 (Simulation time: 3 hr 50 min 16 sec) 
Heartbeat CPU 0 instructions: 93000000 cycles: 87778080 heartbeat IPC: 0.18905 cumulative IPC: 0.626866 (Simulation time: 3 hr 59 min 2 sec) 
Heartbeat CPU 0 instructions: 94000002 cycles: 91265875 heartbeat IPC: 0.286715 cumulative IPC: 0.610408 (Simulation time: 4 hr 5 min 41 sec) 
Heartbeat CPU 0 instructions: 95000000 cycles: 92552162 heartbeat IPC: 0.77743 cumulative IPC: 0.613336 (Simulation time: 4 hr 8 min 31 sec) 
Heartbeat CPU 0 instructions: 96000000 cycles: 93847001 heartbeat IPC: 0.772297 cumulative IPC: 0.616093 (Simulation time: 4 hr 11 min 14 sec) 
Heartbeat CPU 0 instructions: 97000002 cycles: 95120255 heartbeat IPC: 0.785391 cumulative IPC: 0.618931 (Simulation time: 4 hr 13 min 52 sec) 
Heartbeat CPU 0 instructions: 98000003 cycles: 96390271 heartbeat IPC: 0.787392 cumulative IPC: 0.621703 (Simulation time: 4 hr 16 min 15 sec) 
Heartbeat CPU 0 instructions: 99000000 cycles: 97668694 heartbeat IPC: 0.782211 cumulative IPC: 0.624317 (Simulation time: 4 hr 19 min 4 sec) 
Heartbeat CPU 0 instructions: 100000000 cycles: 98936302 heartbeat IPC: 0.788887 cumulative IPC: 0.626933 (Simulation time: 4 hr 21 min 45 sec) 
Heartbeat CPU 0 instructions: 101000001 cycles: 100205090 heartbeat IPC: 0.788155 cumulative IPC: 0.629457 (Simulation time: 4 hr 24 min 26 sec) 
Heartbeat CPU 0 instructions: 102000000 cycles: 101478046 heartbeat IPC: 0.785572 cumulative IPC: 0.631872 (Simulation time: 4 hr 26 min 44 sec) 
Heartbeat CPU 0 instructions: 103000002 cycles: 102748944 heartbeat IPC: 0.786847 cumulative IPC: 0.634229 (Simulation time: 4 hr 28 min 55 sec) 
Heartbeat CPU 0 instructions: 104000000 cycles: 104023628 heartbeat IPC: 0.784507 cumulative IPC: 0.636487 (Simulation time: 4 hr 31 min 17 sec) 
Heartbeat CPU 0 instructions: 105000003 cycles: 105292731 heartbeat IPC: 0.78796 cumulative IPC: 0.638719 (Simulation time: 4 hr 33 min 52 sec) 
Heartbeat CPU 0 instructions: 106000002 cycles: 106557395 heartbeat IPC: 0.790723 cumulative IPC: 0.64092 (Simulation time: 4 hr 36 min 50 sec) 
Heartbeat CPU 0 instructions: 107000002 cycles: 107827176 heartbeat IPC: 0.787537 cumulative IPC: 0.64302 (Simulation time: 4 hr 38 min 59 sec) 
Heartbeat CPU 0 instructions: 108000000 cycles: 109101381 heartbeat IPC: 0.784801 cumulative IPC: 0.645029 (Simulation time: 4 hr 41 min 23 sec) 
Heartbeat CPU 0 instructions: 109000001 cycles: 110365439 heartbeat IPC: 0.791104 cumulative IPC: 0.647054 (Simulation time: 4 hr 44 min 0 sec) 
Heartbeat CPU 0 instructions: 110000001 cycles: 111639847 heartbeat IPC: 0.784678 cumulative IPC: 0.648951 (Simulation time: 4 hr 46 min 23 sec) 
Heartbeat CPU 0 instructions: 111000000 cycles: 112909875 heartbeat IPC: 0.787383 cumulative IPC: 0.650827 (Simulation time: 4 hr 48 min 40 sec) 
Heartbeat CPU 0 instructions: 112000000 cycles: 114179007 heartbeat IPC: 0.78794 cumulative IPC: 0.652659 (Simulation time: 4 hr 51 min 27 sec) 
Heartbeat CPU 0 instructions: 113000002 cycles: 115452790 heartbeat IPC: 0.785065 cumulative IPC: 0.65441 (Simulation time: 4 hr 53 min 52 sec) 
Heartbeat CPU 0 instructions: 114000000 cycles: 116721967 heartbeat IPC: 0.787911 cumulative IPC: 0.656148 (Simulation time: 4 hr 56 min 31 sec) 
Heartbeat CPU 0 instructions: 115000002 cycles: 117998770 heartbeat IPC: 0.783208 cumulative IPC: 0.657789 (Simulation time: 4 hr 59 min 8 sec) 
Heartbeat CPU 0 instructions: 116000000 cycles: 119272345 heartbeat IPC: 0.78519 cumulative IPC: 0.65941 (Simulation time: 5 hr 1 min 45 sec) 
Heartbeat CPU 0 instructions: 117000003 cycles: 120539980 heartbeat IPC: 0.788873 cumulative IPC: 0.66103 (Simulation time: 5 hr 4 min 0 sec) 
Heartbeat CPU 0 instructions: 118000000 cycles: 121812780 heartbeat IPC: 0.785667 cumulative IPC: 0.662575 (Simulation time: 5 hr 6 min 40 sec) 
Heartbeat CPU 0 instructions: 119000003 cycles: 123090331 heartbeat IPC: 0.78275 cumulative IPC: 0.664053 (Simulation time: 5 hr 9 min 13 sec) 
Heartbeat CPU 0 instructions: 120000000 cycles: 124359880 heartbeat IPC: 0.787679 cumulative IPC: 0.665545 (Simulation time: 5 hr 12 min 3 sec) 
Heartbeat CPU 0 instructions: 121000003 cycles: 125632257 heartbeat IPC: 0.785933 cumulative IPC: 0.666984 (Simulation time: 5 hr 14 min 24 sec) 
Heartbeat CPU 0 instructions: 122000001 cycles: 126902827 heartbeat IPC: 0.787047 cumulative IPC: 0.6684 (Simulation time: 5 hr 16 min 45 sec) 
Heartbeat CPU 0 instructions: 123000000 cycles: 128171064 heartbeat IPC: 0.788495 cumulative IPC: 0.669798 (Simulation time: 5 hr 19 min 14 sec) 
Heartbeat CPU 0 instructions: 124000000 cycles: 129441962 heartbeat IPC: 0.786845 cumulative IPC: 0.671147 (Simulation time: 5 hr 21 min 26 sec) 
Heartbeat CPU 0 instructions: 125000003 cycles: 130713128 heartbeat IPC: 0.786682 cumulative IPC: 0.672464 (Simulation time: 5 hr 24 min 22 sec) 
Heartbeat CPU 0 instructions: 126000000 cycles: 131981922 heartbeat IPC: 0.788148 cumulative IPC: 0.673765 (Simulation time: 5 hr 26 min 56 sec) 
Heartbeat CPU 0 instructions: 127000000 cycles: 133253477 heartbeat IPC: 0.786439 cumulative IPC: 0.675021 (Simulation time: 5 hr 29 min 3 sec) 
Heartbeat CPU 0 instructions: 128000000 cycles: 134523177 heartbeat IPC: 0.787588 cumulative IPC: 0.67626 (Simulation time: 5 hr 31 min 8 sec) 
Heartbeat CPU 0 instructions: 129000000 cycles: 135793372 heartbeat IPC: 0.787281 cumulative IPC: 0.677469 (Simulation time: 5 hr 33 min 10 sec) 
Heartbeat CPU 0 instructions: 130000002 cycles: 137066366 heartbeat IPC: 0.785551 cumulative IPC: 0.678636 (Simulation time: 5 hr 35 min 43 sec) 
Heartbeat CPU 0 instructions: 131000002 cycles: 138336698 heartbeat IPC: 0.787196 cumulative IPC: 0.679794 (Simulation time: 5 hr 38 min 9 sec) 
Heartbeat CPU 0 instructions: 132000000 cycles: 139607056 heartbeat IPC: 0.787178 cumulative IPC: 0.680927 (Simulation time: 5 hr 40 min 15 sec) 
Heartbeat CPU 0 instructions: 133000002 cycles: 140874442 heartbeat IPC: 0.789027 cumulative IPC: 0.682052 (Simulation time: 5 hr 42 min 35 sec) 
Heartbeat CPU 0 instructions: 134000002 cycles: 142147763 heartbeat IPC: 0.785348 cumulative IPC: 0.683122 (Simulation time: 5 hr 44 min 50 sec) 
Heartbeat CPU 0 instructions: 135000000 cycles: 143414838 heartbeat IPC: 0.789218 cumulative IPC: 0.684204 (Simulation time: 5 hr 47 min 14 sec) 
Heartbeat CPU 0 instructions: 136000000 cycles: 144686469 heartbeat IPC: 0.786392 cumulative IPC: 0.68524 (Simulation time: 5 hr 49 min 31 sec) 
Heartbeat CPU 0 instructions: 137000001 cycles: 145952490 heartbeat IPC: 0.789877 cumulative IPC: 0.686285 (Simulation time: 5 hr 51 min 50 sec) 
Heartbeat CPU 0 instructions: 138000003 cycles: 147226159 heartbeat IPC: 0.785135 cumulative IPC: 0.687268 (Simulation time: 5 hr 53 min 48 sec) 
Heartbeat CPU 0 instructions: 139000001 cycles: 148494438 heartbeat IPC: 0.788468 cumulative IPC: 0.68826 (Simulation time: 5 hr 55 min 55 sec) 
Heartbeat CPU 0 instructions: 140000000 cycles: 149764684 heartbeat IPC: 0.787248 cumulative IPC: 0.689223 (Simulation time: 5 hr 57 min 55 sec) 
Heartbeat CPU 0 instructions: 141000003 cycles: 151034993 heartbeat IPC: 0.787212 cumulative IPC: 0.690167 (Simulation time: 6 hr 0 min 13 sec) 
Heartbeat CPU 0 instructions: 142000001 cycles: 152309313 heartbeat IPC: 0.784731 cumulative IPC: 0.691073 (Simulation time: 6 hr 3 min 16 sec) 
Heartbeat CPU 0 instructions: 143000001 cycles: 153578791 heartbeat IPC: 0.787725 cumulative IPC: 0.691986 (Simulation time: 6 hr 5 min 29 sec) 
Heartbeat CPU 0 instructions: 144000000 cycles: 154847943 heartbeat IPC: 0.787927 cumulative IPC: 0.692883 (Simulation time: 6 hr 7 min 40 sec) 
Heartbeat CPU 0 instructions: 145000001 cycles: 156117496 heartbeat IPC: 0.78768 cumulative IPC: 0.693762 (Simulation time: 6 hr 10 min 9 sec) 
Heartbeat CPU 0 instructions: 146000003 cycles: 157393477 heartbeat IPC: 0.783712 cumulative IPC: 0.694592 (Simulation time: 6 hr 12 min 16 sec) 
Heartbeat CPU 0 instructions: 147000003 cycles: 158664548 heartbeat IPC: 0.786738 cumulative IPC: 0.695432 (Simulation time: 6 hr 14 min 29 sec) 
Heartbeat CPU 0 instructions: 148000000 cycles: 159932995 heartbeat IPC: 0.788363 cumulative IPC: 0.69627 (Simulation time: 6 hr 16 min 33 sec) 
Heartbeat CPU 0 instructions: 149000001 cycles: 161204632 heartbeat IPC: 0.786389 cumulative IPC: 0.697077 (Simulation time: 6 hr 18 min 33 sec) 
Heartbeat CPU 0 instructions: 150000003 cycles: 162478906 heartbeat IPC: 0.784762 cumulative IPC: 0.697856 (Simulation time: 6 hr 20 min 40 sec) 
Finished CPU 0 instructions: 100000003 cycles: 143295976 cummulative IPC: 0.697856 (Simulation time: 6 hr 20 min 40 sec) 

ChampSim completed all CPUs

Region of Interest Statistics

CPU 0 cummulative IPC: 0.697856 instructions: 100000003 cycles: 143295976
LLC TOTAL     ACCESS:    2853535  HIT:     131659  MISS:    2721876
LLC LOAD      ACCESS:     878767  HIT:         11  MISS:     878756
LLC RFO       ACCESS:     539880  HIT:         58  MISS:     539822
LLC PREFETCH  ACCESS:     754905  HIT:        751  MISS:     754154
LLC WRITEBACK ACCESS:     679983  HIT:     130839  MISS:     549144
