
*** ChampSim Multicore Out-of-Order Simulator ***

Warmup Instructions: 50000000
Simulation Instructions: 100000000
Configuration: 2
Number of CPUs: 1
LLC sets: 2048
LLC ways: 16
Off-chip DRAM Channels: 1 Width: 64-bit Data Rate: 1600 MT/s

CPU 0 runs /datasets/cs240c-wi22-a00-public/data/Assignment2-gz/gcc_39B.trace.gz
CPU 0 L1D next line prefetcher
CPU 0 L2C IP-based stride prefetcher
Heartbeat CPU 0 instructions: 1000000 cycles: 510415 heartbeat IPC: 1.95919 cumulative IPC: 1.95919 (Simulation time: 0 hr 2 min 45 sec) 
Heartbeat CPU 0 instructions: 2000002 cycles: 1020477 heartbeat IPC: 1.96055 cumulative IPC: 1.95987 (Simulation time: 0 hr 5 min 24 sec) 
Heartbeat CPU 0 instructions: 3000002 cycles: 1529254 heartbeat IPC: 1.9655 cumulative IPC: 1.96174 (Simulation time: 0 hr 7 min 57 sec) 
Heartbeat CPU 0 instructions: 4000000 cycles: 2038229 heartbeat IPC: 1.96473 cumulative IPC: 1.96249 (Simulation time: 0 hr 10 min 44 sec) 
Heartbeat CPU 0 instructions: 5000003 cycles: 2547014 heartbeat IPC: 1.96547 cumulative IPC: 1.96308 (Simulation time: 0 hr 13 min 20 sec) 
Heartbeat CPU 0 instructions: 6000000 cycles: 3057390 heartbeat IPC: 1.95933 cumulative IPC: 1.96246 (Simulation time: 0 hr 15 min 30 sec) 
Heartbeat CPU 0 instructions: 7000001 cycles: 3565359 heartbeat IPC: 1.96863 cumulative IPC: 1.96334 (Simulation time: 0 hr 18 min 9 sec) 
Heartbeat CPU 0 instructions: 8000000 cycles: 4078805 heartbeat IPC: 1.94762 cumulative IPC: 1.96136 (Simulation time: 0 hr 20 min 52 sec) 
Heartbeat CPU 0 instructions: 9000002 cycles: 4590941 heartbeat IPC: 1.95261 cumulative IPC: 1.96038 (Simulation time: 0 hr 23 min 33 sec) 
Heartbeat CPU 0 instructions: 10000000 cycles: 5101490 heartbeat IPC: 1.95867 cumulative IPC: 1.96021 (Simulation time: 0 hr 26 min 9 sec) 
Heartbeat CPU 0 instructions: 11000002 cycles: 5610505 heartbeat IPC: 1.96458 cumulative IPC: 1.96061 (Simulation time: 0 hr 29 min 7 sec) 
Heartbeat CPU 0 instructions: 12000000 cycles: 6120531 heartbeat IPC: 1.96068 cumulative IPC: 1.96061 (Simulation time: 0 hr 31 min 37 sec) 
Heartbeat CPU 0 instructions: 13000003 cycles: 6631187 heartbeat IPC: 1.95827 cumulative IPC: 1.96043 (Simulation time: 0 hr 34 min 12 sec) 
Heartbeat CPU 0 instructions: 14000003 cycles: 7142092 heartbeat IPC: 1.95731 cumulative IPC: 1.96021 (Simulation time: 0 hr 36 min 48 sec) 
Heartbeat CPU 0 instructions: 15000001 cycles: 7652522 heartbeat IPC: 1.95913 cumulative IPC: 1.96014 (Simulation time: 0 hr 39 min 17 sec) 
Heartbeat CPU 0 instructions: 16000000 cycles: 8161882 heartbeat IPC: 1.96325 cumulative IPC: 1.96033 (Simulation time: 0 hr 41 min 52 sec) 
Heartbeat CPU 0 instructions: 17000000 cycles: 8673439 heartbeat IPC: 1.95482 cumulative IPC: 1.96001 (Simulation time: 0 hr 44 min 34 sec) 
Heartbeat CPU 0 instructions: 18000000 cycles: 9182360 heartbeat IPC: 1.96494 cumulative IPC: 1.96028 (Simulation time: 0 hr 47 min 32 sec) 
Heartbeat CPU 0 instructions: 19000001 cycles: 9694546 heartbeat IPC: 1.95242 cumulative IPC: 1.95986 (Simulation time: 0 hr 50 min 35 sec) 
Heartbeat CPU 0 instructions: 20000000 cycles: 10205237 heartbeat IPC: 1.95813 cumulative IPC: 1.95978 (Simulation time: 0 hr 53 min 2 sec) 
Heartbeat CPU 0 instructions: 21000003 cycles: 10720665 heartbeat IPC: 1.94014 cumulative IPC: 1.95883 (Simulation time: 0 hr 55 min 46 sec) 
Heartbeat CPU 0 instructions: 22000003 cycles: 11230806 heartbeat IPC: 1.96024 cumulative IPC: 1.9589 (Simulation time: 0 hr 58 min 27 sec) 
Heartbeat CPU 0 instructions: 23000003 cycles: 11739123 heartbeat IPC: 1.96728 cumulative IPC: 1.95926 (Simulation time: 1 hr 1 min 8 sec) 
Heartbeat CPU 0 instructions: 24000000 cycles: 12249287 heartbeat IPC: 1.96015 cumulative IPC: 1.9593 (Simulation time: 1 hr 3 min 52 sec) 
Heartbeat CPU 0 instructions: 25000002 cycles: 12758679 heartbeat IPC: 1.96313 cumulative IPC: 1.95945 (Simulation time: 1 hr 6 min 43 sec) 
Heartbeat CPU 0 instructions: 26000001 cycles: 13266889 heartbeat IPC: 1.96769 cumulative IPC: 1.95977 (Simulation time: 1 hr 9 min 22 sec) 
Heartbeat CPU 0 instructions: 27000000 cycles: 13776716 heartbeat IPC: 1.96145 cumulative IPC: 1.95983 (Simulation time: 1 hr 12 min 20 sec) 
Heartbeat CPU 0 instructions: 28000000 cycles: 14286176 heartbeat IPC: 1.96286 cumulative IPC: 1.95994 (Simulation time: 1 hr 15 min 42 sec) 
Heartbeat CPU 0 instructions: 29000001 cycles: 14795515 heartbeat IPC: 1.96333 cumulative IPC: 1.96005 (Simulation time: 1 hr 18 min 38 sec) 
Heartbeat CPU 0 instructions: 30000003 cycles: 15306401 heartbeat IPC: 1.95739 cumulative IPC: 1.95996 (Simulation time: 1 hr 21 min 18 sec) 
Heartbeat CPU 0 instructions: 31000003 cycles: 15821636 heartbeat IPC: 1.94086 cumulative IPC: 1.95934 (Simulation time: 1 hr 23 min 55 sec) 
Heartbeat CPU 0 instructions: 32000000 cycles: 16331092 heartbeat IPC: 1.96287 cumulative IPC: 1.95945 (Simulation time: 1 hr 26 min 26 sec) 
Heartbeat CPU 0 instructions: 33000000 cycles: 16840929 heartbeat IPC: 1.96141 cumulative IPC: 1.95951 (Simulation time: 1 hr 29 min 4 sec) 
Heartbeat CPU 0 instructions: 34000003 cycles: 17351980 heartbeat IPC: 1.95676 cumulative IPC: 1.95943 (Simulation time: 1 hr 31 min 55 sec) 
Heartbeat CPU 0 instructions: 35000001 cycles: 17862389 heartbeat IPC: 1.95921 cumulative IPC: 1.95942 (Simulation time: 1 hr 34 min 24 sec) 
Heartbeat CPU 0 instructions: 36000000 cycles: 18371902 heartbeat IPC: 1.96266 cumulative IPC: 1.95951 (Simulation time: 1 hr 37 min 12 sec) 
Heartbeat CPU 0 instructions: 37000000 cycles: 18884671 heartbeat IPC: 1.9502 cumulative IPC: 1.95926 (Simulation time: 1 hr 39 min 44 sec) 
Heartbeat CPU 0 instructions: 38000001 cycles: 19393410 heartbeat IPC: 1.96565 cumulative IPC: 1.95943 (Simulation time: 1 hr 42 min 33 sec) 
Heartbeat CPU 0 instructions: 39000000 cycles: 19905657 heartbeat IPC: 1.95218 cumulative IPC: 1.95924 (Simulation time: 1 hr 45 min 6 sec) 
Heartbeat CPU 0 instructions: 40000000 cycles: 20415179 heartbeat IPC: 1.96262 cumulative IPC: 1.95933 (Simulation time: 1 hr 47 min 50 sec) 
Heartbeat CPU 0 instructions: 41000001 cycles: 20926967 heartbeat IPC: 1.95394 cumulative IPC: 1.95919 (Simulation time: 1 hr 50 min 22 sec) 
Heartbeat CPU 0 instructions: 42000001 cycles: 21438199 heartbeat IPC: 1.95606 cumulative IPC: 1.95912 (Simulation time: 1 hr 52 min 25 sec) 
Heartbeat CPU 0 instructions: 43000003 cycles: 21952930 heartbeat IPC: 1.94277 cumulative IPC: 1.95874 (Simulation time: 1 hr 54 min 36 sec) 
Heartbeat CPU 0 instructions: 44000000 cycles: 22464905 heartbeat IPC: 1.95321 cumulative IPC: 1.95861 (Simulation time: 1 hr 56 min 49 sec) 
Heartbeat CPU 0 instructions: 45000002 cycles: 22973601 heartbeat IPC: 1.96581 cumulative IPC: 1.95877 (Simulation time: 1 hr 59 min 34 sec) 
Heartbeat CPU 0 instructions: 46000002 cycles: 23484248 heartbeat IPC: 1.9583 cumulative IPC: 1.95876 (Simulation time: 2 hr 1 min 54 sec) 
Heartbeat CPU 0 instructions: 47000000 cycles: 23993880 heartbeat IPC: 1.9622 cumulative IPC: 1.95883 (Simulation time: 2 hr 4 min 16 sec) 
Heartbeat CPU 0 instructions: 48000000 cycles: 24502182 heartbeat IPC: 1.96733 cumulative IPC: 1.95901 (Simulation time: 2 hr 6 min 37 sec) 
Heartbeat CPU 0 instructions: 49000000 cycles: 25012237 heartbeat IPC: 1.96057 cumulative IPC: 1.95904 (Simulation time: 2 hr 9 min 2 sec) 
Heartbeat CPU 0 instructions: 50000000 cycles: 25527631 heartbeat IPC: 1.94026 cumulative IPC: 1.95866 (Simulation time: 2 hr 11 min 30 sec) 

Warmup complete CPU 0 instructions: 50000001 cycles: 25527632 (Simulation time: 2 hr 11 min 30 sec) 

Heartbeat CPU 0 instructions: 51000000 cycles: 26898787 heartbeat IPC: 0.729312 cumulative IPC: 0.729311 (Simulation time: 2 hr 14 min 17 sec) 
Heartbeat CPU 0 instructions: 52000000 cycles: 28280238 heartbeat IPC: 0.723877 cumulative IPC: 0.726584 (Simulation time: 2 hr 17 min 33 sec) 
Heartbeat CPU 0 instructions: 53000003 cycles: 29657675 heartbeat IPC: 0.725988 cumulative IPC: 0.726385 (Simulation time: 2 hr 20 min 49 sec) 
Heartbeat CPU 0 instructions: 54000000 cycles: 31037980 heartbeat IPC: 0.724475 cumulative IPC: 0.725907 (Simulation time: 2 hr 23 min 37 sec) 
Heartbeat CPU 0 instructions: 55000002 cycles: 32417142 heartbeat IPC: 0.725079 cumulative IPC: 0.725741 (Simulation time: 2 hr 26 min 5 sec) 
Heartbeat CPU 0 instructions: 56000000 cycles: 33795184 heartbeat IPC: 0.725666 cumulative IPC: 0.725729 (Simulation time: 2 hr 29 min 16 sec) 
Heartbeat CPU 0 instructions: 57000000 cycles: 35178153 heartbeat IPC: 0.723082 cumulative IPC: 0.725349 (Simulation time: 2 hr 31 min 49 sec) 
Heartbeat CPU 0 instructions: 58000000 cycles: 36561259 heartbeat IPC: 0.72301 cumulative IPC: 0.725056 (Simulation time: 2 hr 34 min 42 sec) 
Heartbeat CPU 0 instructions: 59000000 cycles: 37944102 heartbeat IPC: 0.723148 cumulative IPC: 0.724844 (Simulation time: 2 hr 37 min 42 sec) 
Heartbeat CPU 0 instructions: 60000000 cycles: 39325957 heartbeat IPC: 0.723665 cumulative IPC: 0.724726 (Simulation time: 2 hr 40 min 44 sec) 
Heartbeat CPU 0 instructions: 61000000 cycles: 40705347 heartbeat IPC: 0.724958 cumulative IPC: 0.724747 (Simulation time: 2 hr 43 min 55 sec) 
Heartbeat CPU 0 instructions: 62000000 cycles: 42089345 heartbeat IPC: 0.722544 cumulative IPC: 0.724563 (Simulation time: 2 hr 47 min 26 sec) 
Heartbeat CPU 0 instructions: 63000001 cycles: 43477522 heartbeat IPC: 0.72037 cumulative IPC: 0.724238 (Simulation time: 2 hr 51 min 26 sec) 
Heartbeat CPU 0 instructions: 64000000 cycles: 44868569 heartbeat IPC: 0.718882 cumulative IPC: 0.723853 (Simulation time: 2 hr 54 min 28 sec) 
Heartbeat CPU 0 instructions: 65000000 cycles: 46242006 heartbeat IPC: 0.7281 cumulative IPC: 0.724135 (Simulation time: 2 hr 57 min 38 sec) 
Heartbeat CPU 0 instructions: 66000001 cycles: 47626788 heartbeat IPC: 0.722136 cumulative IPC: 0.72401 (Simulation time: 3 hr 0 min 51 sec) 
Heartbeat CPU 0 instructions: 67000001 cycles: 48994292 heartbeat IPC: 0.731259 cumulative IPC: 0.724432 (Simulation time: 3 hr 3 min 52 sec) 
Heartbeat CPU 0 instructions: 68000000 cycles: 50359448 heartbeat IPC: 0.732516 cumulative IPC: 0.724876 (Simulation time: 3 hr 7 min 32 sec) 
Heartbeat CPU 0 instructions: 69000000 cycles: 51744966 heartbeat IPC: 0.721752 cumulative IPC: 0.724711 (Simulation time: 3 hr 10 min 25 sec) 
Heartbeat CPU 0 instructions: 70000002 cycles: 53111932 heartbeat IPC: 0.731549 cumulative IPC: 0.72505 (Simulation time: 3 hr 13 min 45 sec) 
Heartbeat CPU 0 instructions: 71000000 cycles: 54484770 heartbeat IPC: 0.728417 cumulative IPC: 0.72521 (Simulation time: 3 hr 16 min 47 sec) 
Heartbeat CPU 0 instructions: 72000000 cycles: 55847890 heartbeat IPC: 0.733611 cumulative IPC: 0.725587 (Simulation time: 3 hr 19 min 19 sec) 
Heartbeat CPU 0 instructions: 73000000 cycles: 57213012 heartbeat IPC: 0.732535 cumulative IPC: 0.725887 (Simulation time: 3 hr 23 min 12 sec) 
Heartbeat CPU 0 instructions: 74000000 cycles: 58589877 heartbeat IPC: 0.726288 cumulative IPC: 0.725904 (Simulation time: 3 hr 25 min 39 sec) 
Heartbeat CPU 0 instructions: 75000001 cycles: 59956372 heartbeat IPC: 0.7318 cumulative IPC: 0.726138 (Simulation time: 3 hr 29 min 23 sec) 
Heartbeat CPU 0 instructions: 76000000 cycles: 61341777 heartbeat IPC: 0.72181 cumulative IPC: 0.72597 (Simulation time: 3 hr 32 min 32 sec) 
Heartbeat CPU 0 instructions: 77000003 cycles: 62708285 heartbeat IPC: 0.731794 cumulative IPC: 0.726184 (Simulation time: 3 hr 35 min 21 sec) 
Heartbeat CPU 0 instructions: 78000000 cycles: 64085764 heartbeat IPC: 0.725962 cumulative IPC: 0.726176 (Simulation time: 3 hr 38 min 25 sec) 
Heartbeat CPU 0 instructions: 79000002 cycles: 65462652 heartbeat IPC: 0.726277 cumulative IPC: 0.72618 (Simulation time: 3 hr 41 min 19 sec) 
Heartbeat CPU 0 instructions: 80000000 cycles: 66846489 heartbeat IPC: 0.722627 cumulative IPC: 0.726061 (Simulation time: 3 hr 44 min 30 sec) 
Heartbeat CPU 0 instructions: 81000000 cycles: 68233401 heartbeat IPC: 0.721026 cumulative IPC: 0.725897 (Simulation time: 3 hr 48 min 35 sec) 
Heartbeat CPU 0 instructions: 82000000 cycles: 69614226 heartbeat IPC: 0.724205 cumulative IPC: 0.725844 (Simulation time: 3 hr 51 min 44 sec) 
Heartbeat CPU 0 instructions: 83000000 cycles: 70998137 heartbeat IPC: 0.72259 cumulative IPC: 0.725745 (Simulation time: 3 hr 54 min 48 sec) 
Heartbeat CPU 0 instructions: 84000000 cycles: 72379241 heartbeat IPC: 0.724058 cumulative IPC: 0.725695 (Simulation time: 3 hr 58 min 14 sec) 
Heartbeat CPU 0 instructions: 85000000 cycles: 73754329 heartbeat IPC: 0.727226 cumulative IPC: 0.725739 (Simulation time: 4 hr 1 min 43 sec) 
Heartbeat CPU 0 instructions: 86000001 cycles: 75135790 heartbeat IPC: 0.723872 cumulative IPC: 0.725687 (Simulation time: 4 hr 4 min 46 sec) 
Heartbeat CPU 0 instructions: 87000001 cycles: 76517858 heartbeat IPC: 0.723553 cumulative IPC: 0.725629 (Simulation time: 4 hr 7 min 44 sec) 
Heartbeat CPU 0 instructions: 88000000 cycles: 77897568 heartbeat IPC: 0.724789 cumulative IPC: 0.725607 (Simulation time: 4 hr 10 min 39 sec) 
Heartbeat CPU 0 instructions: 89000003 cycles: 79280119 heartbeat IPC: 0.723303 cumulative IPC: 0.725548 (Simulation time: 4 hr 14 min 11 sec) 
Heartbeat CPU 0 instructions: 90000000 cycles: 80656720 heartbeat IPC: 0.726425 cumulative IPC: 0.72557 (Simulation time: 4 hr 17 min 29 sec) 
Heartbeat CPU 0 instructions: 91000001 cycles: 82048122 heartbeat IPC: 0.7187 cumulative IPC: 0.725401 (Simulation time: 4 hr 20 min 14 sec) 
Heartbeat CPU 0 instructions: 92000000 cycles: 83432868 heartbeat IPC: 0.722153 cumulative IPC: 0.725323 (Simulation time: 4 hr 23 min 13 sec) 
Heartbeat CPU 0 instructions: 93000000 cycles: 84815805 heartbeat IPC: 0.723099 cumulative IPC: 0.725271 (Simulation time: 4 hr 25 min 57 sec) 
Heartbeat CPU 0 instructions: 94000002 cycles: 86194854 heartbeat IPC: 0.725139 cumulative IPC: 0.725268 (Simulation time: 4 hr 29 min 6 sec) 
Heartbeat CPU 0 instructions: 95000001 cycles: 87573356 heartbeat IPC: 0.725424 cumulative IPC: 0.725272 (Simulation time: 4 hr 32 min 5 sec) 
Heartbeat CPU 0 instructions: 96000000 cycles: 88941151 heartbeat IPC: 0.731103 cumulative IPC: 0.725397 (Simulation time: 4 hr 34 min 58 sec) 
Heartbeat CPU 0 instructions: 97000000 cycles: 90310610 heartbeat IPC: 0.730215 cumulative IPC: 0.725499 (Simulation time: 4 hr 37 min 43 sec) 
Heartbeat CPU 0 instructions: 98000003 cycles: 91679385 heartbeat IPC: 0.730582 cumulative IPC: 0.725604 (Simulation time: 4 hr 40 min 31 sec) 
Heartbeat CPU 0 instructions: 99000000 cycles: 93048035 heartbeat IPC: 0.730645 cumulative IPC: 0.725707 (Simulation time: 4 hr 43 min 8 sec) 
Heartbeat CPU 0 instructions: 100000000 cycles: 94410288 heartbeat IPC: 0.734078 cumulative IPC: 0.725872 (Simulation time: 4 hr 45 min 41 sec) 
Heartbeat CPU 0 instructions: 101000000 cycles: 95774736 heartbeat IPC: 0.732897 cumulative IPC: 0.726009 (Simulation time: 4 hr 48 min 18 sec) 
Heartbeat CPU 0 instructions: 102000002 cycles: 97153558 heartbeat IPC: 0.725258 cumulative IPC: 0.725994 (Simulation time: 4 hr 50 min 56 sec) 
Heartbeat CPU 0 instructions: 103000003 cycles: 98522293 heartbeat IPC: 0.730602 cumulative IPC: 0.726081 (Simulation time: 4 hr 53 min 46 sec) 
Heartbeat CPU 0 instructions: 104000000 cycles: 99899367 heartbeat IPC: 0.726175 cumulative IPC: 0.726082 (Simulation time: 4 hr 56 min 42 sec) 
Heartbeat CPU 0 instructions: 105000000 cycles: 101262891 heartbeat IPC: 0.733394 cumulative IPC: 0.726214 (Simulation time: 4 hr 59 min 31 sec) 
Heartbeat CPU 0 instructions: 106000001 cycles: 102643924 heartbeat IPC: 0.724096 cumulative IPC: 0.726176 (Simulation time: 5 hr 2 min 31 sec) 
Heartbeat CPU 0 instructions: 107000000 cycles: 104028850 heartbeat IPC: 0.722059 cumulative IPC: 0.726103 (Simulation time: 5 hr 5 min 12 sec) 
Heartbeat CPU 0 instructions: 108000000 cycles: 105410475 heartbeat IPC: 0.723785 cumulative IPC: 0.726063 (Simulation time: 5 hr 7 min 53 sec) 
Heartbeat CPU 0 instructions: 109000003 cycles: 106803935 heartbeat IPC: 0.71764 cumulative IPC: 0.725919 (Simulation time: 5 hr 10 min 35 sec) 
Heartbeat CPU 0 instructions: 110000001 cycles: 108185837 heartbeat IPC: 0.723639 cumulative IPC: 0.725881 (Simulation time: 5 hr 14 min 21 sec) 
Heartbeat CPU 0 instructions: 111000001 cycles: 109567284 heartbeat IPC: 0.723879 cumulative IPC: 0.725848 (Simulation time: 5 hr 17 min 32 sec) 
Heartbeat CPU 0 instructions: 112000000 cycles: 110949049 heartbeat IPC: 0.723711 cumulative IPC: 0.725813 (Simulation time: 5 hr 20 min 6 sec) 
Heartbeat CPU 0 instructions: 113000003 cycles: 112328175 heartbeat IPC: 0.725099 cumulative IPC: 0.725802 (Simulation time: 5 hr 23 min 1 sec) 
Heartbeat CPU 0 instructions: 114000000 cycles: 113711910 heartbeat IPC: 0.72268 cumulative IPC: 0.725753 (Simulation time: 5 hr 26 min 17 sec) 
Heartbeat CPU 0 instructions: 115000001 cycles: 115099197 heartbeat IPC: 0.720832 cumulative IPC: 0.725677 (Simulation time: 5 hr 29 min 12 sec) 
Heartbeat CPU 0 instructions: 116000000 cycles: 116480918 heartbeat IPC: 0.723734 cumulative IPC: 0.725647 (Simulation time: 5 hr 32 min 22 sec) 
Heartbeat CPU 0 instructions: 117000001 cycles: 117864609 heartbeat IPC: 0.722705 cumulative IPC: 0.725603 (Simulation time: 5 hr 35 min 41 sec) 
Heartbeat CPU 0 instructions: 118000001 cycles: 119245199 heartbeat IPC: 0.724328 cumulative IPC: 0.725584 (Simulation time: 5 hr 38 min 31 sec) 
Heartbeat CPU 0 instructions: 119000001 cycles: 120637432 heartbeat IPC: 0.718271 cumulative IPC: 0.725477 (Simulation time: 5 hr 41 min 7 sec) 
Heartbeat CPU 0 instructions: 120000000 cycles: 122022247 heartbeat IPC: 0.722117 cumulative IPC: 0.725429 (Simulation time: 5 hr 43 min 45 sec) 
Heartbeat CPU 0 instructions: 121000001 cycles: 123405286 heartbeat IPC: 0.723046 cumulative IPC: 0.725395 (Simulation time: 5 hr 46 min 28 sec) 
Heartbeat CPU 0 instructions: 122000001 cycles: 124792734 heartbeat IPC: 0.720748 cumulative IPC: 0.72533 (Simulation time: 5 hr 49 min 37 sec) 
Heartbeat CPU 0 instructions: 123000001 cycles: 126174309 heartbeat IPC: 0.723812 cumulative IPC: 0.72531 (Simulation time: 5 hr 52 min 49 sec) 
Heartbeat CPU 0 instructions: 124000000 cycles: 127550173 heartbeat IPC: 0.726815 cumulative IPC: 0.72533 (Simulation time: 5 hr 55 min 45 sec) 
Heartbeat CPU 0 instructions: 125000000 cycles: 128935840 heartbeat IPC: 0.721674 cumulative IPC: 0.725281 (Simulation time: 5 hr 58 min 34 sec) 
Heartbeat CPU 0 instructions: 126000000 cycles: 130316109 heartbeat IPC: 0.724496 cumulative IPC: 0.725271 (Simulation time: 6 hr 1 min 16 sec) 
Heartbeat CPU 0 instructions: 127000001 cycles: 131691186 heartbeat IPC: 0.727233 cumulative IPC: 0.725296 (Simulation time: 6 hr 3 min 52 sec) 
Heartbeat CPU 0 instructions: 128000000 cycles: 133081979 heartbeat IPC: 0.719014 cumulative IPC: 0.725215 (Simulation time: 6 hr 6 min 28 sec) 
Heartbeat CPU 0 instructions: 129000003 cycles: 134464763 heartbeat IPC: 0.723181 cumulative IPC: 0.725189 (Simulation time: 6 hr 9 min 30 sec) 
Heartbeat CPU 0 instructions: 130000003 cycles: 135844941 heartbeat IPC: 0.724544 cumulative IPC: 0.725181 (Simulation time: 6 hr 12 min 38 sec) 
Heartbeat CPU 0 instructions: 131000002 cycles: 137226156 heartbeat IPC: 0.724 cumulative IPC: 0.725166 (Simulation time: 6 hr 15 min 13 sec) 
Heartbeat CPU 0 instructions: 132000000 cycles: 138605103 heartbeat IPC: 0.72519 cumulative IPC: 0.725167 (Simulation time: 6 hr 17 min 51 sec) 
Heartbeat CPU 0 instructions: 133000000 cycles: 139985982 heartbeat IPC: 0.724176 cumulative IPC: 0.725155 (Simulation time: 6 hr 20 min 29 sec) 
Heartbeat CPU 0 instructions: 134000000 cycles: 141376172 heartbeat IPC: 0.719326 cumulative IPC: 0.725085 (Simulation time: 6 hr 23 min 0 sec) 
Heartbeat CPU 0 instructions: 135000001 cycles: 142753995 heartbeat IPC: 0.725783 cumulative IPC: 0.725093 (Simulation time: 6 hr 25 min 19 sec) 
Heartbeat CPU 0 instructions: 136000000 cycles: 144136648 heartbeat IPC: 0.723247 cumulative IPC: 0.725071 (Simulation time: 6 hr 27 min 47 sec) 
Heartbeat CPU 0 instructions: 137000000 cycles: 145529105 heartbeat IPC: 0.718155 cumulative IPC: 0.724991 (Simulation time: 6 hr 30 min 6 sec) 
Heartbeat CPU 0 instructions: 138000000 cycles: 146913773 heartbeat IPC: 0.722195 cumulative IPC: 0.724959 (Simulation time: 6 hr 32 min 24 sec) 
Heartbeat CPU 0 instructions: 139000000 cycles: 148297749 heartbeat IPC: 0.722556 cumulative IPC: 0.724932 (Simulation time: 6 hr 34 min 41 sec) 
Heartbeat CPU 0 instructions: 140000000 cycles: 149677839 heartbeat IPC: 0.72459 cumulative IPC: 0.724928 (Simulation time: 6 hr 36 min 55 sec) 
Heartbeat CPU 0 instructions: 141000003 cycles: 151068276 heartbeat IPC: 0.7192 cumulative IPC: 0.724865 (Simulation time: 6 hr 39 min 2 sec) 
Heartbeat CPU 0 instructions: 142000002 cycles: 152443144 heartbeat IPC: 0.727342 cumulative IPC: 0.724892 (Simulation time: 6 hr 40 min 57 sec) 
Heartbeat CPU 0 instructions: 143000001 cycles: 153816905 heartbeat IPC: 0.727928 cumulative IPC: 0.724924 (Simulation time: 6 hr 42 min 54 sec) 
Heartbeat CPU 0 instructions: 144000000 cycles: 155192658 heartbeat IPC: 0.726874 cumulative IPC: 0.724945 (Simulation time: 6 hr 44 min 36 sec) 
Heartbeat CPU 0 instructions: 145000001 cycles: 156556454 heartbeat IPC: 0.733248 cumulative IPC: 0.725031 (Simulation time: 6 hr 46 min 14 sec) 
Heartbeat CPU 0 instructions: 146000001 cycles: 157926047 heartbeat IPC: 0.730144 cumulative IPC: 0.725084 (Simulation time: 6 hr 47 min 55 sec) 
Heartbeat CPU 0 instructions: 147000001 cycles: 159308162 heartbeat IPC: 0.723529 cumulative IPC: 0.725068 (Simulation time: 6 hr 49 min 31 sec) 
Heartbeat CPU 0 instructions: 148000000 cycles: 160677081 heartbeat IPC: 0.730503 cumulative IPC: 0.725123 (Simulation time: 6 hr 51 min 1 sec) 
Heartbeat CPU 0 instructions: 149000000 cycles: 162056457 heartbeat IPC: 0.724966 cumulative IPC: 0.725122 (Simulation time: 6 hr 52 min 32 sec) 
Heartbeat CPU 0 instructions: 150000001 cycles: 163417219 heartbeat IPC: 0.734883 cumulative IPC: 0.725218 (Simulation time: 6 hr 53 min 56 sec) 
Finished CPU 0 instructions: 100000000 cycles: 137889587 cummulative IPC: 0.725218 (Simulation time: 6 hr 53 min 56 sec) 

ChampSim completed all CPUs

Region of Interest Statistics

CPU 0 cummulative IPC: 0.725218 instructions: 100000000 cycles: 137889587
LLC TOTAL     ACCESS:      43226  HIT:       6385  MISS:      36841
LLC LOAD      ACCESS:      13845  HIT:        558  MISS:      13287
LLC RFO       ACCESS:       3359  HIT:          7  MISS:       3352
LLC PREFETCH  ACCESS:      17994  HIT:        646  MISS:      17348
LLC WRITEBACK ACCESS:       8028  HIT:       5174  MISS:       2854
