
*** ChampSim Multicore Out-of-Order Simulator ***

Warmup Instructions: 50000000
Simulation Instructions: 100000000
Configuration: 2
Number of CPUs: 1
LLC sets: 2048
LLC ways: 16
Off-chip DRAM Channels: 1 Width: 64-bit Data Rate: 1600 MT/s

CPU 0 runs /datasets/cs240c-wi22-a00-public/data/Assignment2-gz/libquantum_1735B.trace.gz
CPU 0 L1D next line prefetcher
CPU 0 L2C IP-based stride prefetcher
Heartbeat CPU 0 instructions: 1000001 cycles: 333341 heartbeat IPC: 2.99993 cumulative IPC: 2.99993 (Simulation time: 0 hr 2 min 7 sec) 
Heartbeat CPU 0 instructions: 2000000 cycles: 666674 heartbeat IPC: 3 cumulative IPC: 2.99997 (Simulation time: 0 hr 4 min 12 sec) 
Heartbeat CPU 0 instructions: 3000000 cycles: 989045 heartbeat IPC: 3.10202 cumulative IPC: 3.03323 (Simulation time: 0 hr 6 min 27 sec) 
Heartbeat CPU 0 instructions: 4000000 cycles: 1290770 heartbeat IPC: 3.31428 cumulative IPC: 3.09893 (Simulation time: 0 hr 8 min 31 sec) 
Heartbeat CPU 0 instructions: 5000001 cycles: 1592495 heartbeat IPC: 3.31428 cumulative IPC: 3.13973 (Simulation time: 0 hr 11 min 9 sec) 
Heartbeat CPU 0 instructions: 6000001 cycles: 1894219 heartbeat IPC: 3.31429 cumulative IPC: 3.16753 (Simulation time: 0 hr 13 min 8 sec) 
Heartbeat CPU 0 instructions: 7000002 cycles: 2195942 heartbeat IPC: 3.3143 cumulative IPC: 3.1877 (Simulation time: 0 hr 15 min 20 sec) 
Heartbeat CPU 0 instructions: 8000000 cycles: 2501897 heartbeat IPC: 3.26845 cumulative IPC: 3.19757 (Simulation time: 0 hr 17 min 41 sec) 
Heartbeat CPU 0 instructions: 9000000 cycles: 2835230 heartbeat IPC: 3 cumulative IPC: 3.17435 (Simulation time: 0 hr 19 min 45 sec) 
Heartbeat CPU 0 instructions: 10000002 cycles: 3168564 heartbeat IPC: 3 cumulative IPC: 3.156 (Simulation time: 0 hr 21 min 50 sec) 
Heartbeat CPU 0 instructions: 11000001 cycles: 3501897 heartbeat IPC: 3 cumulative IPC: 3.14116 (Simulation time: 0 hr 23 min 52 sec) 
Heartbeat CPU 0 instructions: 12000000 cycles: 3835230 heartbeat IPC: 3 cumulative IPC: 3.12889 (Simulation time: 0 hr 25 min 57 sec) 
Heartbeat CPU 0 instructions: 13000000 cycles: 4159530 heartbeat IPC: 3.08356 cumulative IPC: 3.12535 (Simulation time: 0 hr 28 min 1 sec) 
Heartbeat CPU 0 instructions: 14000002 cycles: 4471102 heartbeat IPC: 3.20954 cumulative IPC: 3.13122 (Simulation time: 0 hr 30 min 9 sec) 
Heartbeat CPU 0 instructions: 15000000 cycles: 4782674 heartbeat IPC: 3.20952 cumulative IPC: 3.13632 (Simulation time: 0 hr 32 min 44 sec) 
Heartbeat CPU 0 instructions: 16000000 cycles: 5094247 heartbeat IPC: 3.20952 cumulative IPC: 3.1408 (Simulation time: 0 hr 35 min 8 sec) 
Heartbeat CPU 0 instructions: 17000000 cycles: 5405820 heartbeat IPC: 3.20952 cumulative IPC: 3.14476 (Simulation time: 0 hr 37 min 7 sec) 
Heartbeat CPU 0 instructions: 18000001 cycles: 5725379 heartbeat IPC: 3.12932 cumulative IPC: 3.1439 (Simulation time: 0 hr 39 min 12 sec) 
Heartbeat CPU 0 instructions: 19000000 cycles: 6058712 heartbeat IPC: 3 cumulative IPC: 3.13598 (Simulation time: 0 hr 41 min 12 sec) 
Heartbeat CPU 0 instructions: 20000000 cycles: 6392046 heartbeat IPC: 2.99999 cumulative IPC: 3.12889 (Simulation time: 0 hr 43 min 18 sec) 
Heartbeat CPU 0 instructions: 21000001 cycles: 6725379 heartbeat IPC: 3.00001 cumulative IPC: 3.1225 (Simulation time: 0 hr 45 min 18 sec) 
Heartbeat CPU 0 instructions: 22000000 cycles: 7058712 heartbeat IPC: 3 cumulative IPC: 3.11672 (Simulation time: 0 hr 47 min 28 sec) 
Heartbeat CPU 0 instructions: 23000001 cycles: 7377935 heartbeat IPC: 3.13261 cumulative IPC: 3.1174 (Simulation time: 0 hr 49 min 45 sec) 
Heartbeat CPU 0 instructions: 24000000 cycles: 7689508 heartbeat IPC: 3.20952 cumulative IPC: 3.12114 (Simulation time: 0 hr 51 min 40 sec) 
Heartbeat CPU 0 instructions: 25000002 cycles: 8001081 heartbeat IPC: 3.20953 cumulative IPC: 3.12458 (Simulation time: 0 hr 53 min 54 sec) 
Heartbeat CPU 0 instructions: 26000000 cycles: 8312653 heartbeat IPC: 3.20952 cumulative IPC: 3.12776 (Simulation time: 0 hr 56 min 4 sec) 
Heartbeat CPU 0 instructions: 27000003 cycles: 8624226 heartbeat IPC: 3.20953 cumulative IPC: 3.13072 (Simulation time: 0 hr 58 min 14 sec) 
Heartbeat CPU 0 instructions: 28000000 cycles: 8948866 heartbeat IPC: 3.08033 cumulative IPC: 3.12889 (Simulation time: 1 hr 0 min 35 sec) 
Heartbeat CPU 0 instructions: 29000000 cycles: 9282199 heartbeat IPC: 3 cumulative IPC: 3.12426 (Simulation time: 1 hr 2 min 40 sec) 
Heartbeat CPU 0 instructions: 30000001 cycles: 9615533 heartbeat IPC: 3 cumulative IPC: 3.11995 (Simulation time: 1 hr 5 min 2 sec) 
Heartbeat CPU 0 instructions: 31000000 cycles: 9948866 heartbeat IPC: 3 cumulative IPC: 3.11593 (Simulation time: 1 hr 7 min 15 sec) 
Heartbeat CPU 0 instructions: 32000000 cycles: 10282200 heartbeat IPC: 2.99999 cumulative IPC: 3.11217 (Simulation time: 1 hr 9 min 25 sec) 
Heartbeat CPU 0 instructions: 33000003 cycles: 10587669 heartbeat IPC: 3.27366 cumulative IPC: 3.11683 (Simulation time: 1 hr 11 min 39 sec) 
Heartbeat CPU 0 instructions: 34000002 cycles: 10889391 heartbeat IPC: 3.31431 cumulative IPC: 3.12231 (Simulation time: 1 hr 13 min 54 sec) 
Heartbeat CPU 0 instructions: 35000002 cycles: 11191114 heartbeat IPC: 3.3143 cumulative IPC: 3.12748 (Simulation time: 1 hr 16 min 23 sec) 
Heartbeat CPU 0 instructions: 36000000 cycles: 11492840 heartbeat IPC: 3.31426 cumulative IPC: 3.13239 (Simulation time: 1 hr 18 min 37 sec) 
Heartbeat CPU 0 instructions: 37000002 cycles: 11794564 heartbeat IPC: 3.31429 cumulative IPC: 3.13704 (Simulation time: 1 hr 20 min 48 sec) 
Heartbeat CPU 0 instructions: 38000003 cycles: 12117424 heartbeat IPC: 3.09732 cumulative IPC: 3.13598 (Simulation time: 1 hr 22 min 52 sec) 
Heartbeat CPU 0 instructions: 39000002 cycles: 12450757 heartbeat IPC: 3 cumulative IPC: 3.13234 (Simulation time: 1 hr 25 min 6 sec) 
Heartbeat CPU 0 instructions: 40000000 cycles: 12784090 heartbeat IPC: 3 cumulative IPC: 3.12889 (Simulation time: 1 hr 27 min 13 sec) 
Heartbeat CPU 0 instructions: 41000000 cycles: 13117423 heartbeat IPC: 3 cumulative IPC: 3.12561 (Simulation time: 1 hr 29 min 21 sec) 
Heartbeat CPU 0 instructions: 42000001 cycles: 13450757 heartbeat IPC: 3 cumulative IPC: 3.1225 (Simulation time: 1 hr 31 min 38 sec) 
Heartbeat CPU 0 instructions: 43000003 cycles: 13754059 heartbeat IPC: 3.29705 cumulative IPC: 3.12635 (Simulation time: 1 hr 33 min 35 sec) 
Heartbeat CPU 0 instructions: 44000000 cycles: 14055784 heartbeat IPC: 3.31427 cumulative IPC: 3.13038 (Simulation time: 1 hr 35 min 31 sec) 
Heartbeat CPU 0 instructions: 45000000 cycles: 14357508 heartbeat IPC: 3.31429 cumulative IPC: 3.13425 (Simulation time: 1 hr 37 min 53 sec) 
Heartbeat CPU 0 instructions: 46000002 cycles: 14659231 heartbeat IPC: 3.3143 cumulative IPC: 3.13795 (Simulation time: 1 hr 39 min 53 sec) 
Heartbeat CPU 0 instructions: 47000002 cycles: 14960955 heartbeat IPC: 3.31429 cumulative IPC: 3.14151 (Simulation time: 1 hr 42 min 25 sec) 
Heartbeat CPU 0 instructions: 48000000 cycles: 15285991 heartbeat IPC: 3.07658 cumulative IPC: 3.14013 (Simulation time: 1 hr 44 min 28 sec) 
Heartbeat CPU 0 instructions: 49000002 cycles: 15619325 heartbeat IPC: 3 cumulative IPC: 3.13714 (Simulation time: 1 hr 46 min 28 sec) 
Heartbeat CPU 0 instructions: 50000001 cycles: 15952658 heartbeat IPC: 3 cumulative IPC: 3.13427 (Simulation time: 1 hr 48 min 25 sec) 

Warmup complete CPU 0 instructions: 50000001 cycles: 15952658 (Simulation time: 1 hr 48 min 25 sec) 

Heartbeat CPU 0 instructions: 51000000 cycles: 17518318 heartbeat IPC: 0.638708 cumulative IPC: 0.638708 (Simulation time: 1 hr 50 min 49 sec) 
Heartbeat CPU 0 instructions: 52000000 cycles: 19063307 heartbeat IPC: 0.647254 cumulative IPC: 0.642952 (Simulation time: 1 hr 53 min 22 sec) 
Heartbeat CPU 0 instructions: 53000002 cycles: 20599093 heartbeat IPC: 0.651134 cumulative IPC: 0.645657 (Simulation time: 1 hr 55 min 39 sec) 
Heartbeat CPU 0 instructions: 54000001 cycles: 22132018 heartbeat IPC: 0.652347 cumulative IPC: 0.647316 (Simulation time: 1 hr 58 min 9 sec) 
Heartbeat CPU 0 instructions: 55000000 cycles: 23664789 heartbeat IPC: 0.652413 cumulative IPC: 0.648329 (Simulation time: 2 hr 0 min 28 sec) 
Heartbeat CPU 0 instructions: 56000000 cycles: 25196026 heartbeat IPC: 0.653067 cumulative IPC: 0.649114 (Simulation time: 2 hr 2 min 47 sec) 
Heartbeat CPU 0 instructions: 57000000 cycles: 26725676 heartbeat IPC: 0.653744 cumulative IPC: 0.649771 (Simulation time: 2 hr 5 min 9 sec) 
Heartbeat CPU 0 instructions: 58000002 cycles: 28254243 heartbeat IPC: 0.654209 cumulative IPC: 0.650323 (Simulation time: 2 hr 7 min 33 sec) 
Heartbeat CPU 0 instructions: 59000001 cycles: 29782555 heartbeat IPC: 0.654316 cumulative IPC: 0.650764 (Simulation time: 2 hr 10 min 6 sec) 
Heartbeat CPU 0 instructions: 60000000 cycles: 31310066 heartbeat IPC: 0.654659 cumulative IPC: 0.651151 (Simulation time: 2 hr 12 min 39 sec) 
Heartbeat CPU 0 instructions: 61000003 cycles: 32837135 heartbeat IPC: 0.654851 cumulative IPC: 0.651486 (Simulation time: 2 hr 15 min 42 sec) 
Heartbeat CPU 0 instructions: 62000002 cycles: 34364974 heartbeat IPC: 0.654519 cumulative IPC: 0.651738 (Simulation time: 2 hr 18 min 27 sec) 
Heartbeat CPU 0 instructions: 63000001 cycles: 35892358 heartbeat IPC: 0.654714 cumulative IPC: 0.651966 (Simulation time: 2 hr 20 min 51 sec) 
Heartbeat CPU 0 instructions: 64000000 cycles: 37418656 heartbeat IPC: 0.655179 cumulative IPC: 0.652194 (Simulation time: 2 hr 23 min 4 sec) 
Heartbeat CPU 0 instructions: 65000001 cycles: 38943045 heartbeat IPC: 0.656001 cumulative IPC: 0.652447 (Simulation time: 2 hr 24 min 59 sec) 
Heartbeat CPU 0 instructions: 66000000 cycles: 40454550 heartbeat IPC: 0.661592 cumulative IPC: 0.653011 (Simulation time: 2 hr 27 min 20 sec) 
Heartbeat CPU 0 instructions: 67000001 cycles: 41948204 heartbeat IPC: 0.6695 cumulative IPC: 0.653958 (Simulation time: 2 hr 29 min 52 sec) 
Heartbeat CPU 0 instructions: 68000000 cycles: 43440327 heartbeat IPC: 0.670185 cumulative IPC: 0.654839 (Simulation time: 2 hr 32 min 18 sec) 
Heartbeat CPU 0 instructions: 69000002 cycles: 44932474 heartbeat IPC: 0.670177 cumulative IPC: 0.655629 (Simulation time: 2 hr 34 min 24 sec) 
Heartbeat CPU 0 instructions: 70000001 cycles: 46424695 heartbeat IPC: 0.670141 cumulative IPC: 0.656339 (Simulation time: 2 hr 36 min 39 sec) 
Heartbeat CPU 0 instructions: 71000003 cycles: 47975328 heartbeat IPC: 0.644899 cumulative IPC: 0.655786 (Simulation time: 2 hr 38 min 46 sec) 
Heartbeat CPU 0 instructions: 72000000 cycles: 49905094 heartbeat IPC: 0.518196 cumulative IPC: 0.647965 (Simulation time: 2 hr 40 min 58 sec) 
Heartbeat CPU 0 instructions: 73000000 cycles: 52166609 heartbeat IPC: 0.442181 cumulative IPC: 0.635114 (Simulation time: 2 hr 43 min 16 sec) 
Heartbeat CPU 0 instructions: 74000000 cycles: 54558643 heartbeat IPC: 0.418054 cumulative IPC: 0.621665 (Simulation time: 2 hr 45 min 32 sec) 
Heartbeat CPU 0 instructions: 75000000 cycles: 56953591 heartbeat IPC: 0.417546 cumulative IPC: 0.609742 (Simulation time: 2 hr 47 min 44 sec) 
Heartbeat CPU 0 instructions: 76000000 cycles: 59367034 heartbeat IPC: 0.414346 cumulative IPC: 0.59888 (Simulation time: 2 hr 50 min 9 sec) 
Heartbeat CPU 0 instructions: 77000001 cycles: 61086527 heartbeat IPC: 0.581567 cumulative IPC: 0.59822 (Simulation time: 2 hr 52 min 39 sec) 
Heartbeat CPU 0 instructions: 78000000 cycles: 62683245 heartbeat IPC: 0.626284 cumulative IPC: 0.599179 (Simulation time: 2 hr 54 min 40 sec) 
Heartbeat CPU 0 instructions: 79000001 cycles: 64261620 heartbeat IPC: 0.633564 cumulative IPC: 0.600303 (Simulation time: 2 hr 57 min 36 sec) 
Heartbeat CPU 0 instructions: 80000000 cycles: 65809372 heartbeat IPC: 0.646098 cumulative IPC: 0.601724 (Simulation time: 2 hr 59 min 46 sec) 
Heartbeat CPU 0 instructions: 81000002 cycles: 67424663 heartbeat IPC: 0.619085 cumulative IPC: 0.602269 (Simulation time: 3 hr 2 min 59 sec) 
Heartbeat CPU 0 instructions: 82000003 cycles: 69471397 heartbeat IPC: 0.488584 cumulative IPC: 0.597921 (Simulation time: 3 hr 5 min 48 sec) 
Heartbeat CPU 0 instructions: 83000000 cycles: 71824877 heartbeat IPC: 0.424901 cumulative IPC: 0.590633 (Simulation time: 3 hr 8 min 12 sec) 
Heartbeat CPU 0 instructions: 84000000 cycles: 74223534 heartbeat IPC: 0.4169 cumulative IPC: 0.583482 (Simulation time: 3 hr 10 min 57 sec) 
Heartbeat CPU 0 instructions: 85000002 cycles: 76611730 heartbeat IPC: 0.418727 cumulative IPC: 0.576995 (Simulation time: 3 hr 13 min 48 sec) 
Heartbeat CPU 0 instructions: 86000002 cycles: 79017856 heartbeat IPC: 0.415606 cumulative IPC: 0.570838 (Simulation time: 3 hr 16 min 31 sec) 
Heartbeat CPU 0 instructions: 87000002 cycles: 80772718 heartbeat IPC: 0.569845 cumulative IPC: 0.570811 (Simulation time: 3 hr 19 min 11 sec) 
Heartbeat CPU 0 instructions: 88000000 cycles: 82452936 heartbeat IPC: 0.59516 cumulative IPC: 0.571426 (Simulation time: 3 hr 21 min 42 sec) 
Heartbeat CPU 0 instructions: 89000000 cycles: 84091257 heartbeat IPC: 0.610381 cumulative IPC: 0.572363 (Simulation time: 3 hr 24 min 20 sec) 
Heartbeat CPU 0 instructions: 90000000 cycles: 85989247 heartbeat IPC: 0.526873 cumulative IPC: 0.57113 (Simulation time: 3 hr 27 min 24 sec) 
Heartbeat CPU 0 instructions: 91000001 cycles: 88767305 heartbeat IPC: 0.359964 cumulative IPC: 0.563074 (Simulation time: 3 hr 30 min 15 sec) 
Heartbeat CPU 0 instructions: 92000000 cycles: 91827443 heartbeat IPC: 0.326782 cumulative IPC: 0.553544 (Simulation time: 3 hr 32 min 51 sec) 
Heartbeat CPU 0 instructions: 93000001 cycles: 94895539 heartbeat IPC: 0.325935 cumulative IPC: 0.544698 (Simulation time: 3 hr 36 min 24 sec) 
Heartbeat CPU 0 instructions: 94000001 cycles: 97737810 heartbeat IPC: 0.351831 cumulative IPC: 0.537995 (Simulation time: 3 hr 39 min 43 sec) 
Heartbeat CPU 0 instructions: 95000000 cycles: 99438372 heartbeat IPC: 0.58804 cumulative IPC: 0.539014 (Simulation time: 3 hr 42 min 51 sec) 
Heartbeat CPU 0 instructions: 96000000 cycles: 101108696 heartbeat IPC: 0.598686 cumulative IPC: 0.540185 (Simulation time: 3 hr 45 min 46 sec) 
Heartbeat CPU 0 instructions: 97000002 cycles: 102731698 heartbeat IPC: 0.616143 cumulative IPC: 0.541605 (Simulation time: 3 hr 50 min 26 sec) 
Heartbeat CPU 0 instructions: 98000001 cycles: 104801437 heartbeat IPC: 0.483152 cumulative IPC: 0.540244 (Simulation time: 3 hr 53 min 32 sec) 
Heartbeat CPU 0 instructions: 99000003 cycles: 107653691 heartbeat IPC: 0.350601 cumulative IPC: 0.534345 (Simulation time: 3 hr 56 min 21 sec) 
Heartbeat CPU 0 instructions: 100000000 cycles: 110680355 heartbeat IPC: 0.330396 cumulative IPC: 0.527829 (Simulation time: 3 hr 59 min 31 sec) 
Heartbeat CPU 0 instructions: 101000000 cycles: 113705941 heartbeat IPC: 0.330514 cumulative IPC: 0.521722 (Simulation time: 4 hr 2 min 8 sec) 
Heartbeat CPU 0 instructions: 102000000 cycles: 116199979 heartbeat IPC: 0.400956 cumulative IPC: 0.518717 (Simulation time: 4 hr 4 min 51 sec) 
Heartbeat CPU 0 instructions: 103000002 cycles: 117770574 heartbeat IPC: 0.636703 cumulative IPC: 0.520537 (Simulation time: 4 hr 7 min 42 sec) 
Heartbeat CPU 0 instructions: 104000000 cycles: 119324734 heartbeat IPC: 0.643433 cumulative IPC: 0.522385 (Simulation time: 4 hr 10 min 32 sec) 
Heartbeat CPU 0 instructions: 105000000 cycles: 120852647 heartbeat IPC: 0.654488 cumulative IPC: 0.524309 (Simulation time: 4 hr 13 min 1 sec) 
Heartbeat CPU 0 instructions: 106000003 cycles: 122357902 heartbeat IPC: 0.664341 cumulative IPC: 0.52629 (Simulation time: 4 hr 15 min 35 sec) 
Heartbeat CPU 0 instructions: 107000000 cycles: 124425750 heartbeat IPC: 0.483593 cumulative IPC: 0.525476 (Simulation time: 4 hr 18 min 22 sec) 
Heartbeat CPU 0 instructions: 108000000 cycles: 126889739 heartbeat IPC: 0.405846 cumulative IPC: 0.522819 (Simulation time: 4 hr 20 min 39 sec) 
Heartbeat CPU 0 instructions: 109000002 cycles: 129518025 heartbeat IPC: 0.380477 cumulative IPC: 0.519525 (Simulation time: 4 hr 23 min 16 sec) 
Heartbeat CPU 0 instructions: 110000002 cycles: 132162942 heartbeat IPC: 0.378084 cumulative IPC: 0.516305 (Simulation time: 4 hr 25 min 28 sec) 
Heartbeat CPU 0 instructions: 111000001 cycles: 134803467 heartbeat IPC: 0.378712 cumulative IPC: 0.513249 (Simulation time: 4 hr 28 min 0 sec) 
Heartbeat CPU 0 instructions: 112000000 cycles: 136804958 heartbeat IPC: 0.499627 cumulative IPC: 0.513023 (Simulation time: 4 hr 30 min 28 sec) 
Heartbeat CPU 0 instructions: 113000002 cycles: 138395803 heartbeat IPC: 0.628598 cumulative IPC: 0.514525 (Simulation time: 4 hr 33 min 0 sec) 
Heartbeat CPU 0 instructions: 114000001 cycles: 139974638 heartbeat IPC: 0.633378 cumulative IPC: 0.516038 (Simulation time: 4 hr 35 min 23 sec) 
Heartbeat CPU 0 instructions: 115000000 cycles: 141521920 heartbeat IPC: 0.646294 cumulative IPC: 0.517643 (Simulation time: 4 hr 37 min 45 sec) 
Heartbeat CPU 0 instructions: 116000000 cycles: 143048089 heartbeat IPC: 0.655235 cumulative IPC: 0.519295 (Simulation time: 4 hr 40 min 6 sec) 
Heartbeat CPU 0 instructions: 117000000 cycles: 145463380 heartbeat IPC: 0.414029 cumulative IPC: 0.517332 (Simulation time: 4 hr 42 min 22 sec) 
Heartbeat CPU 0 instructions: 118000001 cycles: 148175986 heartbeat IPC: 0.36865 cumulative IPC: 0.514281 (Simulation time: 4 hr 44 min 41 sec) 
Heartbeat CPU 0 instructions: 119000001 cycles: 150986613 heartbeat IPC: 0.355792 cumulative IPC: 0.510983 (Simulation time: 4 hr 47 min 18 sec) 
Heartbeat CPU 0 instructions: 120000000 cycles: 153795162 heartbeat IPC: 0.356055 cumulative IPC: 0.507826 (Simulation time: 4 hr 49 min 47 sec) 
Heartbeat CPU 0 instructions: 121000000 cycles: 156616872 heartbeat IPC: 0.354395 cumulative IPC: 0.504748 (Simulation time: 4 hr 52 min 38 sec) 
Heartbeat CPU 0 instructions: 122000000 cycles: 158368273 heartbeat IPC: 0.570971 cumulative IPC: 0.505563 (Simulation time: 4 hr 55 min 21 sec) 
Heartbeat CPU 0 instructions: 123000001 cycles: 159923974 heartbeat IPC: 0.642798 cumulative IPC: 0.507045 (Simulation time: 4 hr 58 min 7 sec) 
Heartbeat CPU 0 instructions: 124000000 cycles: 161457101 heartbeat IPC: 0.652261 cumulative IPC: 0.508575 (Simulation time: 5 hr 1 min 7 sec) 
Heartbeat CPU 0 instructions: 125000002 cycles: 162966638 heartbeat IPC: 0.662456 cumulative IPC: 0.510156 (Simulation time: 5 hr 4 min 0 sec) 
Heartbeat CPU 0 instructions: 126000001 cycles: 164532030 heartbeat IPC: 0.638817 cumulative IPC: 0.511511 (Simulation time: 5 hr 6 min 30 sec) 
Heartbeat CPU 0 instructions: 127000000 cycles: 166587656 heartbeat IPC: 0.486469 cumulative IPC: 0.511169 (Simulation time: 5 hr 9 min 26 sec) 
Heartbeat CPU 0 instructions: 128000000 cycles: 168952457 heartbeat IPC: 0.422869 cumulative IPC: 0.509805 (Simulation time: 5 hr 12 min 2 sec) 
Heartbeat CPU 0 instructions: 129000002 cycles: 171348396 heartbeat IPC: 0.417374 cumulative IPC: 0.508379 (Simulation time: 5 hr 14 min 15 sec) 
Heartbeat CPU 0 instructions: 130000003 cycles: 173748671 heartbeat IPC: 0.416619 cumulative IPC: 0.506984 (Simulation time: 5 hr 17 min 7 sec) 
Heartbeat CPU 0 instructions: 131000001 cycles: 176154853 heartbeat IPC: 0.415595 cumulative IPC: 0.505611 (Simulation time: 5 hr 19 min 46 sec) 
Heartbeat CPU 0 instructions: 132000000 cycles: 177817843 heartbeat IPC: 0.601326 cumulative IPC: 0.506594 (Simulation time: 5 hr 22 min 11 sec) 
Heartbeat CPU 0 instructions: 133000001 cycles: 179375753 heartbeat IPC: 0.641886 cumulative IPC: 0.507884 (Simulation time: 5 hr 25 min 1 sec) 
Heartbeat CPU 0 instructions: 134000000 cycles: 180905613 heartbeat IPC: 0.653654 cumulative IPC: 0.509236 (Simulation time: 5 hr 27 min 16 sec) 
Heartbeat CPU 0 instructions: 135000001 cycles: 182410331 heartbeat IPC: 0.664577 cumulative IPC: 0.51064 (Simulation time: 5 hr 30 min 35 sec) 
Heartbeat CPU 0 instructions: 136000000 cycles: 184007625 heartbeat IPC: 0.626058 cumulative IPC: 0.511737 (Simulation time: 5 hr 33 min 12 sec) 
Heartbeat CPU 0 instructions: 137000001 cycles: 186084851 heartbeat IPC: 0.481412 cumulative IPC: 0.511367 (Simulation time: 5 hr 35 min 48 sec) 
Heartbeat CPU 0 instructions: 138000001 cycles: 188463476 heartbeat IPC: 0.420411 cumulative IPC: 0.510113 (Simulation time: 5 hr 38 min 4 sec) 
Heartbeat CPU 0 instructions: 139000000 cycles: 190871915 heartbeat IPC: 0.415206 cumulative IPC: 0.508806 (Simulation time: 5 hr 41 min 19 sec) 
Heartbeat CPU 0 instructions: 140000000 cycles: 193277929 heartbeat IPC: 0.415625 cumulative IPC: 0.507542 (Simulation time: 5 hr 44 min 14 sec) 
Heartbeat CPU 0 instructions: 141000000 cycles: 195689226 heartbeat IPC: 0.414715 cumulative IPC: 0.506297 (Simulation time: 5 hr 47 min 4 sec) 
Heartbeat CPU 0 instructions: 142000002 cycles: 197273512 heartbeat IPC: 0.6312 cumulative IPC: 0.507388 (Simulation time: 5 hr 50 min 1 sec) 
Heartbeat CPU 0 instructions: 143000001 cycles: 198793113 heartbeat IPC: 0.658067 cumulative IPC: 0.50864 (Simulation time: 5 hr 52 min 40 sec) 
Heartbeat CPU 0 instructions: 144000000 cycles: 200292743 heartbeat IPC: 0.66683 cumulative IPC: 0.509927 (Simulation time: 5 hr 55 min 23 sec) 
Heartbeat CPU 0 instructions: 145000003 cycles: 201759811 heartbeat IPC: 0.681634 cumulative IPC: 0.511283 (Simulation time: 5 hr 57 min 53 sec) 
Heartbeat CPU 0 instructions: 146000002 cycles: 203212746 heartbeat IPC: 0.688261 cumulative IPC: 0.512656 (Simulation time: 6 hr 0 min 34 sec) 
Heartbeat CPU 0 instructions: 147000001 cycles: 204658172 heartbeat IPC: 0.691837 cumulative IPC: 0.514028 (Simulation time: 6 hr 2 min 45 sec) 
Heartbeat CPU 0 instructions: 148000000 cycles: 206099653 heartbeat IPC: 0.69373 cumulative IPC: 0.515391 (Simulation time: 6 hr 5 min 3 sec) 
Heartbeat CPU 0 instructions: 149000001 cycles: 207540200 heartbeat IPC: 0.694181 cumulative IPC: 0.516735 (Simulation time: 6 hr 7 min 33 sec) 
Heartbeat CPU 0 instructions: 150000000 cycles: 208979712 heartbeat IPC: 0.694679 cumulative IPC: 0.518062 (Simulation time: 6 hr 9 min 49 sec) 
Finished CPU 0 instructions: 100000002 cycles: 193027055 cummulative IPC: 0.518062 (Simulation time: 6 hr 9 min 49 sec) 

ChampSim completed all CPUs

Region of Interest Statistics

CPU 0 cummulative IPC: 0.518062 instructions: 100000002 cycles: 193027055
LLC TOTAL     ACCESS:    3739906  HIT:     190829  MISS:    3549077
LLC LOAD      ACCESS:     679369  HIT:       1632  MISS:     677737
LLC RFO       ACCESS:         20  HIT:         11  MISS:          9
LLC PREFETCH  ACCESS:    2116770  HIT:       4828  MISS:    2111942
LLC WRITEBACK ACCESS:     943747  HIT:     184358  MISS:     759389
