
*** ChampSim Multicore Out-of-Order Simulator ***

Warmup Instructions: 50000000
Simulation Instructions: 100000000
Configuration: 2
Number of CPUs: 1
LLC sets: 2048
LLC ways: 16
Off-chip DRAM Channels: 1 Width: 64-bit Data Rate: 1600 MT/s

CPU 0 runs /datasets/cs240c-wi22-a00-public/data/Assignment2-gz/bzip2_281B.trace.gz
CPU 0 L1D next line prefetcher
CPU 0 L2C IP-based stride prefetcher
Heartbeat CPU 0 instructions: 1000000 cycles: 445877 heartbeat IPC: 2.24277 cumulative IPC: 2.24277 (Simulation time: 0 hr 2 min 34 sec) 
Heartbeat CPU 0 instructions: 2000003 cycles: 900175 heartbeat IPC: 2.20121 cumulative IPC: 2.22179 (Simulation time: 0 hr 4 min 53 sec) 
Heartbeat CPU 0 instructions: 3000002 cycles: 1315034 heartbeat IPC: 2.41046 cumulative IPC: 2.28131 (Simulation time: 0 hr 7 min 23 sec) 
Heartbeat CPU 0 instructions: 4000000 cycles: 1753512 heartbeat IPC: 2.28061 cumulative IPC: 2.28114 (Simulation time: 0 hr 9 min 52 sec) 
Heartbeat CPU 0 instructions: 5000002 cycles: 2175492 heartbeat IPC: 2.36979 cumulative IPC: 2.29833 (Simulation time: 0 hr 12 min 7 sec) 
Heartbeat CPU 0 instructions: 6000000 cycles: 2666156 heartbeat IPC: 2.03805 cumulative IPC: 2.25043 (Simulation time: 0 hr 14 min 24 sec) 
Heartbeat CPU 0 instructions: 7000001 cycles: 3193379 heartbeat IPC: 1.89673 cumulative IPC: 2.19204 (Simulation time: 0 hr 17 min 10 sec) 
Heartbeat CPU 0 instructions: 8000000 cycles: 3725927 heartbeat IPC: 1.87776 cumulative IPC: 2.14712 (Simulation time: 0 hr 19 min 43 sec) 
Heartbeat CPU 0 instructions: 9000000 cycles: 4232236 heartbeat IPC: 1.97508 cumulative IPC: 2.12654 (Simulation time: 0 hr 22 min 14 sec) 
Heartbeat CPU 0 instructions: 10000002 cycles: 4685181 heartbeat IPC: 2.20778 cumulative IPC: 2.13439 (Simulation time: 0 hr 24 min 28 sec) 
Heartbeat CPU 0 instructions: 11000000 cycles: 5132609 heartbeat IPC: 2.23499 cumulative IPC: 2.14316 (Simulation time: 0 hr 26 min 37 sec) 
Heartbeat CPU 0 instructions: 12000000 cycles: 5613628 heartbeat IPC: 2.07892 cumulative IPC: 2.13766 (Simulation time: 0 hr 28 min 54 sec) 
Heartbeat CPU 0 instructions: 13000001 cycles: 6025204 heartbeat IPC: 2.42969 cumulative IPC: 2.1576 (Simulation time: 0 hr 31 min 9 sec) 
Heartbeat CPU 0 instructions: 14000003 cycles: 6483632 heartbeat IPC: 2.18137 cumulative IPC: 2.15928 (Simulation time: 0 hr 33 min 37 sec) 
Heartbeat CPU 0 instructions: 15000003 cycles: 6944029 heartbeat IPC: 2.17204 cumulative IPC: 2.16013 (Simulation time: 0 hr 35 min 49 sec) 
Heartbeat CPU 0 instructions: 16000000 cycles: 7340162 heartbeat IPC: 2.5244 cumulative IPC: 2.17979 (Simulation time: 0 hr 38 min 40 sec) 
Heartbeat CPU 0 instructions: 17000000 cycles: 7729308 heartbeat IPC: 2.56973 cumulative IPC: 2.19942 (Simulation time: 0 hr 41 min 15 sec) 
Heartbeat CPU 0 instructions: 18000002 cycles: 8185223 heartbeat IPC: 2.1934 cumulative IPC: 2.19908 (Simulation time: 0 hr 43 min 47 sec) 
Heartbeat CPU 0 instructions: 19000000 cycles: 8631166 heartbeat IPC: 2.24243 cumulative IPC: 2.20132 (Simulation time: 0 hr 46 min 14 sec) 
Heartbeat CPU 0 instructions: 20000000 cycles: 9076217 heartbeat IPC: 2.24693 cumulative IPC: 2.20356 (Simulation time: 0 hr 48 min 43 sec) 
Heartbeat CPU 0 instructions: 21000000 cycles: 9463283 heartbeat IPC: 2.58354 cumulative IPC: 2.2191 (Simulation time: 0 hr 51 min 11 sec) 
Heartbeat CPU 0 instructions: 22000003 cycles: 9838865 heartbeat IPC: 2.66254 cumulative IPC: 2.23603 (Simulation time: 0 hr 53 min 58 sec) 
Heartbeat CPU 0 instructions: 23000001 cycles: 10291839 heartbeat IPC: 2.20763 cumulative IPC: 2.23478 (Simulation time: 0 hr 56 min 25 sec) 
Heartbeat CPU 0 instructions: 24000000 cycles: 10746346 heartbeat IPC: 2.20018 cumulative IPC: 2.23332 (Simulation time: 0 hr 58 min 29 sec) 
Heartbeat CPU 0 instructions: 25000001 cycles: 11090078 heartbeat IPC: 2.90925 cumulative IPC: 2.25427 (Simulation time: 1 hr 0 min 59 sec) 
Heartbeat CPU 0 instructions: 26000003 cycles: 11527734 heartbeat IPC: 2.2849 cumulative IPC: 2.25543 (Simulation time: 1 hr 3 min 55 sec) 
Heartbeat CPU 0 instructions: 27000003 cycles: 12000352 heartbeat IPC: 2.11587 cumulative IPC: 2.24993 (Simulation time: 1 hr 6 min 34 sec) 
Heartbeat CPU 0 instructions: 28000000 cycles: 12326919 heartbeat IPC: 3.06215 cumulative IPC: 2.27145 (Simulation time: 1 hr 8 min 30 sec) 
Heartbeat CPU 0 instructions: 29000001 cycles: 12623796 heartbeat IPC: 3.3684 cumulative IPC: 2.29725 (Simulation time: 1 hr 10 min 40 sec) 
Heartbeat CPU 0 instructions: 30000000 cycles: 12920670 heartbeat IPC: 3.36843 cumulative IPC: 2.32186 (Simulation time: 1 hr 12 min 29 sec) 
Heartbeat CPU 0 instructions: 31000000 cycles: 13263069 heartbeat IPC: 2.92057 cumulative IPC: 2.33732 (Simulation time: 1 hr 14 min 34 sec) 
Heartbeat CPU 0 instructions: 32000000 cycles: 13609601 heartbeat IPC: 2.88574 cumulative IPC: 2.35128 (Simulation time: 1 hr 16 min 28 sec) 
Heartbeat CPU 0 instructions: 33000001 cycles: 13968096 heartbeat IPC: 2.78944 cumulative IPC: 2.36253 (Simulation time: 1 hr 19 min 12 sec) 
Heartbeat CPU 0 instructions: 34000001 cycles: 14311690 heartbeat IPC: 2.91041 cumulative IPC: 2.37568 (Simulation time: 1 hr 20 min 47 sec) 
Heartbeat CPU 0 instructions: 35000003 cycles: 14652777 heartbeat IPC: 2.93181 cumulative IPC: 2.38863 (Simulation time: 1 hr 23 min 0 sec) 
Heartbeat CPU 0 instructions: 36000000 cycles: 14991145 heartbeat IPC: 2.95535 cumulative IPC: 2.40142 (Simulation time: 1 hr 25 min 1 sec) 
Heartbeat CPU 0 instructions: 37000000 cycles: 15330243 heartbeat IPC: 2.949 cumulative IPC: 2.41353 (Simulation time: 1 hr 27 min 14 sec) 
Heartbeat CPU 0 instructions: 38000002 cycles: 15672288 heartbeat IPC: 2.9236 cumulative IPC: 2.42466 (Simulation time: 1 hr 29 min 40 sec) 
Heartbeat CPU 0 instructions: 39000001 cycles: 16011991 heartbeat IPC: 2.94374 cumulative IPC: 2.43567 (Simulation time: 1 hr 31 min 53 sec) 
Heartbeat CPU 0 instructions: 40000000 cycles: 16368358 heartbeat IPC: 2.80609 cumulative IPC: 2.44374 (Simulation time: 1 hr 34 min 11 sec) 
Heartbeat CPU 0 instructions: 41000000 cycles: 16711827 heartbeat IPC: 2.91147 cumulative IPC: 2.45335 (Simulation time: 1 hr 36 min 47 sec) 
Heartbeat CPU 0 instructions: 42000002 cycles: 17053429 heartbeat IPC: 2.92739 cumulative IPC: 2.46285 (Simulation time: 1 hr 38 min 48 sec) 
Heartbeat CPU 0 instructions: 43000000 cycles: 17389456 heartbeat IPC: 2.97595 cumulative IPC: 2.47276 (Simulation time: 1 hr 41 min 0 sec) 
Heartbeat CPU 0 instructions: 44000000 cycles: 17730214 heartbeat IPC: 2.93463 cumulative IPC: 2.48164 (Simulation time: 1 hr 42 min 53 sec) 
Heartbeat CPU 0 instructions: 45000001 cycles: 18066824 heartbeat IPC: 2.9708 cumulative IPC: 2.49075 (Simulation time: 1 hr 44 min 49 sec) 
Heartbeat CPU 0 instructions: 46000000 cycles: 18420267 heartbeat IPC: 2.82931 cumulative IPC: 2.49725 (Simulation time: 1 hr 46 min 41 sec) 
Heartbeat CPU 0 instructions: 47000003 cycles: 18769936 heartbeat IPC: 2.85986 cumulative IPC: 2.504 (Simulation time: 1 hr 48 min 35 sec) 
Heartbeat CPU 0 instructions: 48000000 cycles: 19119867 heartbeat IPC: 2.8577 cumulative IPC: 2.51048 (Simulation time: 1 hr 50 min 41 sec) 
Heartbeat CPU 0 instructions: 49000003 cycles: 19475277 heartbeat IPC: 2.81366 cumulative IPC: 2.51601 (Simulation time: 1 hr 52 min 58 sec) 
Heartbeat CPU 0 instructions: 50000003 cycles: 19823548 heartbeat IPC: 2.87133 cumulative IPC: 2.52225 (Simulation time: 1 hr 55 min 4 sec) 

Warmup complete CPU 0 instructions: 50000003 cycles: 19823548 (Simulation time: 1 hr 55 min 4 sec) 

Heartbeat CPU 0 instructions: 51000002 cycles: 20780549 heartbeat IPC: 1.04493 cumulative IPC: 1.04493 (Simulation time: 1 hr 57 min 11 sec) 
Heartbeat CPU 0 instructions: 52000000 cycles: 21745782 heartbeat IPC: 1.03602 cumulative IPC: 1.04045 (Simulation time: 1 hr 59 min 32 sec) 
Heartbeat CPU 0 instructions: 53000001 cycles: 22723856 heartbeat IPC: 1.02242 cumulative IPC: 1.03437 (Simulation time: 2 hr 1 min 31 sec) 
Heartbeat CPU 0 instructions: 54000003 cycles: 23704735 heartbeat IPC: 1.0195 cumulative IPC: 1.03061 (Simulation time: 2 hr 3 min 27 sec) 
Heartbeat CPU 0 instructions: 55000000 cycles: 24669006 heartbeat IPC: 1.03705 cumulative IPC: 1.03189 (Simulation time: 2 hr 5 min 47 sec) 
Heartbeat CPU 0 instructions: 56000000 cycles: 25645287 heartbeat IPC: 1.0243 cumulative IPC: 1.03062 (Simulation time: 2 hr 8 min 5 sec) 
Heartbeat CPU 0 instructions: 57000002 cycles: 26612652 heartbeat IPC: 1.03374 cumulative IPC: 1.03106 (Simulation time: 2 hr 10 min 20 sec) 
Heartbeat CPU 0 instructions: 58000003 cycles: 27585533 heartbeat IPC: 1.02788 cumulative IPC: 1.03066 (Simulation time: 2 hr 12 min 32 sec) 
Heartbeat CPU 0 instructions: 59000003 cycles: 28614266 heartbeat IPC: 0.97207 cumulative IPC: 1.02381 (Simulation time: 2 hr 14 min 54 sec) 
Heartbeat CPU 0 instructions: 60000000 cycles: 29823142 heartbeat IPC: 0.827212 cumulative IPC: 1.00004 (Simulation time: 2 hr 17 min 36 sec) 
Heartbeat CPU 0 instructions: 61000000 cycles: 31030583 heartbeat IPC: 0.828198 cumulative IPC: 0.981526 (Simulation time: 2 hr 20 min 9 sec) 
Heartbeat CPU 0 instructions: 62000003 cycles: 32254403 heartbeat IPC: 0.817116 cumulative IPC: 0.96534 (Simulation time: 2 hr 22 min 49 sec) 
Heartbeat CPU 0 instructions: 63000001 cycles: 33485746 heartbeat IPC: 0.81212 cumulative IPC: 0.951531 (Simulation time: 2 hr 25 min 2 sec) 
Heartbeat CPU 0 instructions: 64000000 cycles: 34807738 heartbeat IPC: 0.756433 cumulative IPC: 0.934318 (Simulation time: 2 hr 27 min 47 sec) 
Heartbeat CPU 0 instructions: 65000001 cycles: 36012921 heartbeat IPC: 0.82975 cumulative IPC: 0.926534 (Simulation time: 2 hr 30 min 21 sec) 
Heartbeat CPU 0 instructions: 66000003 cycles: 37215619 heartbeat IPC: 0.831466 cumulative IPC: 0.919959 (Simulation time: 2 hr 32 min 45 sec) 
Heartbeat CPU 0 instructions: 67000000 cycles: 38427310 heartbeat IPC: 0.82529 cumulative IPC: 0.913794 (Simulation time: 2 hr 35 min 16 sec) 
Heartbeat CPU 0 instructions: 68000000 cycles: 39742122 heartbeat IPC: 0.760565 cumulative IPC: 0.903679 (Simulation time: 2 hr 37 min 26 sec) 
Heartbeat CPU 0 instructions: 69000000 cycles: 40939723 heartbeat IPC: 0.835003 cumulative IPC: 0.899784 (Simulation time: 2 hr 40 min 8 sec) 
Heartbeat CPU 0 instructions: 70000002 cycles: 42142959 heartbeat IPC: 0.831094 cumulative IPC: 0.896081 (Simulation time: 2 hr 42 min 54 sec) 
Heartbeat CPU 0 instructions: 71000003 cycles: 43350237 heartbeat IPC: 0.82831 cumulative IPC: 0.892603 (Simulation time: 2 hr 45 min 37 sec) 
Heartbeat CPU 0 instructions: 72000000 cycles: 44559330 heartbeat IPC: 0.827064 cumulative IPC: 0.8894 (Simulation time: 2 hr 48 min 46 sec) 
Heartbeat CPU 0 instructions: 73000002 cycles: 45864031 heartbeat IPC: 0.766461 cumulative IPC: 0.88324 (Simulation time: 2 hr 51 min 44 sec) 
Heartbeat CPU 0 instructions: 74000000 cycles: 47064542 heartbeat IPC: 0.832977 cumulative IPC: 0.881025 (Simulation time: 2 hr 54 min 32 sec) 
Heartbeat CPU 0 instructions: 75000001 cycles: 48266648 heartbeat IPC: 0.831874 cumulative IPC: 0.878948 (Simulation time: 2 hr 56 min 52 sec) 
Heartbeat CPU 0 instructions: 76000000 cycles: 49476284 heartbeat IPC: 0.826694 cumulative IPC: 0.876816 (Simulation time: 3 hr 0 min 3 sec) 
Heartbeat CPU 0 instructions: 77000001 cycles: 50734283 heartbeat IPC: 0.794914 cumulative IPC: 0.873483 (Simulation time: 3 hr 3 min 23 sec) 
Heartbeat CPU 0 instructions: 78000003 cycles: 51900906 heartbeat IPC: 0.857177 cumulative IPC: 0.87289 (Simulation time: 3 hr 6 min 10 sec) 
Heartbeat CPU 0 instructions: 79000000 cycles: 52822762 heartbeat IPC: 1.08476 cumulative IPC: 0.878809 (Simulation time: 3 hr 8 min 46 sec) 
Heartbeat CPU 0 instructions: 80000000 cycles: 53728052 heartbeat IPC: 1.10462 cumulative IPC: 0.884838 (Simulation time: 3 hr 11 min 33 sec) 
Heartbeat CPU 0 instructions: 81000000 cycles: 54575590 heartbeat IPC: 1.17989 cumulative IPC: 0.892034 (Simulation time: 3 hr 14 min 24 sec) 
Heartbeat CPU 0 instructions: 82000001 cycles: 55468705 heartbeat IPC: 1.11968 cumulative IPC: 0.897738 (Simulation time: 3 hr 16 min 45 sec) 
Heartbeat CPU 0 instructions: 83000000 cycles: 56393289 heartbeat IPC: 1.08157 cumulative IPC: 0.902385 (Simulation time: 3 hr 18 min 57 sec) 
Heartbeat CPU 0 instructions: 84000000 cycles: 57312452 heartbeat IPC: 1.08795 cumulative IPC: 0.906935 (Simulation time: 3 hr 22 min 3 sec) 
Heartbeat CPU 0 instructions: 85000002 cycles: 58248857 heartbeat IPC: 1.06792 cumulative IPC: 0.910858 (Simulation time: 3 hr 24 min 17 sec) 
Heartbeat CPU 0 instructions: 86000002 cycles: 59178604 heartbeat IPC: 1.07556 cumulative IPC: 0.914749 (Simulation time: 3 hr 27 min 25 sec) 
Heartbeat CPU 0 instructions: 87000002 cycles: 60108160 heartbeat IPC: 1.07578 cumulative IPC: 0.918465 (Simulation time: 3 hr 30 min 1 sec) 
Heartbeat CPU 0 instructions: 88000000 cycles: 61156812 heartbeat IPC: 0.953603 cumulative IPC: 0.919356 (Simulation time: 3 hr 32 min 50 sec) 
Heartbeat CPU 0 instructions: 89000002 cycles: 62248282 heartbeat IPC: 0.916197 cumulative IPC: 0.919275 (Simulation time: 3 hr 36 min 28 sec) 
Heartbeat CPU 0 instructions: 90000001 cycles: 63338180 heartbeat IPC: 0.917516 cumulative IPC: 0.919231 (Simulation time: 3 hr 39 min 2 sec) 
Heartbeat CPU 0 instructions: 91000001 cycles: 64435587 heartbeat IPC: 0.911239 cumulative IPC: 0.919034 (Simulation time: 3 hr 41 min 43 sec) 
Heartbeat CPU 0 instructions: 92000000 cycles: 65521961 heartbeat IPC: 0.920492 cumulative IPC: 0.919069 (Simulation time: 3 hr 44 min 35 sec) 
Heartbeat CPU 0 instructions: 93000001 cycles: 66608628 heartbeat IPC: 0.920246 cumulative IPC: 0.919096 (Simulation time: 3 hr 47 min 43 sec) 
Heartbeat CPU 0 instructions: 94000001 cycles: 67690109 heartbeat IPC: 0.924658 cumulative IPC: 0.919222 (Simulation time: 3 hr 50 min 5 sec) 
Heartbeat CPU 0 instructions: 95000000 cycles: 68775059 heartbeat IPC: 0.921701 cumulative IPC: 0.919277 (Simulation time: 3 hr 52 min 20 sec) 
Heartbeat CPU 0 instructions: 96000000 cycles: 69856174 heartbeat IPC: 0.924971 cumulative IPC: 0.9194 (Simulation time: 3 hr 55 min 5 sec) 
Heartbeat CPU 0 instructions: 97000002 cycles: 70938908 heartbeat IPC: 0.92359 cumulative IPC: 0.919489 (Simulation time: 3 hr 58 min 10 sec) 
Heartbeat CPU 0 instructions: 98000002 cycles: 72021458 heartbeat IPC: 0.923745 cumulative IPC: 0.919577 (Simulation time: 4 hr 0 min 49 sec) 
Heartbeat CPU 0 instructions: 99000000 cycles: 73103638 heartbeat IPC: 0.924059 cumulative IPC: 0.919668 (Simulation time: 4 hr 3 min 36 sec) 
Heartbeat CPU 0 instructions: 100000000 cycles: 74189570 heartbeat IPC: 0.920868 cumulative IPC: 0.919692 (Simulation time: 4 hr 5 min 59 sec) 
Heartbeat CPU 0 instructions: 101000000 cycles: 75277466 heartbeat IPC: 0.919205 cumulative IPC: 0.919683 (Simulation time: 4 hr 8 min 24 sec) 
Heartbeat CPU 0 instructions: 102000000 cycles: 76368085 heartbeat IPC: 0.91691 cumulative IPC: 0.919629 (Simulation time: 4 hr 10 min 54 sec) 
Heartbeat CPU 0 instructions: 103000002 cycles: 77457684 heartbeat IPC: 0.917771 cumulative IPC: 0.919594 (Simulation time: 4 hr 13 min 48 sec) 
Heartbeat CPU 0 instructions: 104000000 cycles: 78546969 heartbeat IPC: 0.918032 cumulative IPC: 0.919565 (Simulation time: 4 hr 16 min 33 sec) 
Heartbeat CPU 0 instructions: 105000003 cycles: 79641996 heartbeat IPC: 0.913222 cumulative IPC: 0.919449 (Simulation time: 4 hr 19 min 11 sec) 
Heartbeat CPU 0 instructions: 106000002 cycles: 80738181 heartbeat IPC: 0.912254 cumulative IPC: 0.919319 (Simulation time: 4 hr 21 min 59 sec) 
Heartbeat CPU 0 instructions: 107000001 cycles: 81822575 heartbeat IPC: 0.922173 cumulative IPC: 0.919369 (Simulation time: 4 hr 24 min 28 sec) 
Heartbeat CPU 0 instructions: 108000000 cycles: 82917081 heartbeat IPC: 0.913653 cumulative IPC: 0.91927 (Simulation time: 4 hr 27 min 20 sec) 
Heartbeat CPU 0 instructions: 109000001 cycles: 84013068 heartbeat IPC: 0.912421 cumulative IPC: 0.919153 (Simulation time: 4 hr 30 min 11 sec) 
Heartbeat CPU 0 instructions: 110000002 cycles: 85112630 heartbeat IPC: 0.909454 cumulative IPC: 0.91899 (Simulation time: 4 hr 33 min 14 sec) 
Heartbeat CPU 0 instructions: 111000000 cycles: 86200383 heartbeat IPC: 0.919325 cumulative IPC: 0.918995 (Simulation time: 4 hr 36 min 3 sec) 
Heartbeat CPU 0 instructions: 112000000 cycles: 87290572 heartbeat IPC: 0.917272 cumulative IPC: 0.918967 (Simulation time: 4 hr 38 min 32 sec) 
Heartbeat CPU 0 instructions: 113000002 cycles: 88381327 heartbeat IPC: 0.916798 cumulative IPC: 0.918933 (Simulation time: 4 hr 40 min 55 sec) 
Heartbeat CPU 0 instructions: 114000001 cycles: 89474949 heartbeat IPC: 0.914392 cumulative IPC: 0.918862 (Simulation time: 4 hr 43 min 30 sec) 
Heartbeat CPU 0 instructions: 115000001 cycles: 90563091 heartbeat IPC: 0.918998 cumulative IPC: 0.918864 (Simulation time: 4 hr 45 min 57 sec) 
Heartbeat CPU 0 instructions: 116000000 cycles: 91650741 heartbeat IPC: 0.919412 cumulative IPC: 0.918872 (Simulation time: 4 hr 49 min 1 sec) 
Heartbeat CPU 0 instructions: 117000001 cycles: 92737450 heartbeat IPC: 0.92021 cumulative IPC: 0.918892 (Simulation time: 4 hr 51 min 55 sec) 
Heartbeat CPU 0 instructions: 118000000 cycles: 93824272 heartbeat IPC: 0.920113 cumulative IPC: 0.91891 (Simulation time: 4 hr 54 min 24 sec) 
Heartbeat CPU 0 instructions: 119000000 cycles: 94912786 heartbeat IPC: 0.918684 cumulative IPC: 0.918907 (Simulation time: 4 hr 57 min 3 sec) 
Heartbeat CPU 0 instructions: 120000000 cycles: 96002247 heartbeat IPC: 0.917885 cumulative IPC: 0.918892 (Simulation time: 4 hr 59 min 40 sec) 
Heartbeat CPU 0 instructions: 121000000 cycles: 97090507 heartbeat IPC: 0.918898 cumulative IPC: 0.918892 (Simulation time: 5 hr 1 min 53 sec) 
Heartbeat CPU 0 instructions: 122000000 cycles: 98182787 heartbeat IPC: 0.915516 cumulative IPC: 0.918845 (Simulation time: 5 hr 4 min 24 sec) 
Heartbeat CPU 0 instructions: 123000001 cycles: 99276872 heartbeat IPC: 0.914007 cumulative IPC: 0.918778 (Simulation time: 5 hr 6 min 48 sec) 
Heartbeat CPU 0 instructions: 124000000 cycles: 100372187 heartbeat IPC: 0.912978 cumulative IPC: 0.9187 (Simulation time: 5 hr 9 min 35 sec) 
Heartbeat CPU 0 instructions: 125000002 cycles: 101464786 heartbeat IPC: 0.915251 cumulative IPC: 0.918653 (Simulation time: 5 hr 12 min 5 sec) 
Heartbeat CPU 0 instructions: 126000002 cycles: 102554133 heartbeat IPC: 0.917981 cumulative IPC: 0.918645 (Simulation time: 5 hr 14 min 44 sec) 
Heartbeat CPU 0 instructions: 127000003 cycles: 103642956 heartbeat IPC: 0.918424 cumulative IPC: 0.918642 (Simulation time: 5 hr 17 min 10 sec) 
Heartbeat CPU 0 instructions: 128000000 cycles: 104731388 heartbeat IPC: 0.91875 cumulative IPC: 0.918643 (Simulation time: 5 hr 19 min 54 sec) 
Heartbeat CPU 0 instructions: 129000001 cycles: 105819291 heartbeat IPC: 0.919201 cumulative IPC: 0.91865 (Simulation time: 5 hr 22 min 33 sec) 
Heartbeat CPU 0 instructions: 130000001 cycles: 106906223 heartbeat IPC: 0.920021 cumulative IPC: 0.918667 (Simulation time: 5 hr 25 min 16 sec) 
Heartbeat CPU 0 instructions: 131000001 cycles: 107995041 heartbeat IPC: 0.918427 cumulative IPC: 0.918664 (Simulation time: 5 hr 27 min 32 sec) 
Heartbeat CPU 0 instructions: 132000000 cycles: 109086930 heartbeat IPC: 0.915843 cumulative IPC: 0.91863 (Simulation time: 5 hr 30 min 51 sec) 
Heartbeat CPU 0 instructions: 133000002 cycles: 110191065 heartbeat IPC: 0.905688 cumulative IPC: 0.918472 (Simulation time: 5 hr 33 min 13 sec) 
Heartbeat CPU 0 instructions: 134000000 cycles: 111285621 heartbeat IPC: 0.913611 cumulative IPC: 0.918413 (Simulation time: 5 hr 35 min 16 sec) 
Heartbeat CPU 0 instructions: 135000003 cycles: 112385055 heartbeat IPC: 0.909562 cumulative IPC: 0.918308 (Simulation time: 5 hr 37 min 12 sec) 
Heartbeat CPU 0 instructions: 136000000 cycles: 113484702 heartbeat IPC: 0.90938 cumulative IPC: 0.918203 (Simulation time: 5 hr 39 min 51 sec) 
Heartbeat CPU 0 instructions: 137000001 cycles: 114580623 heartbeat IPC: 0.912475 cumulative IPC: 0.918137 (Simulation time: 5 hr 42 min 36 sec) 
Heartbeat CPU 0 instructions: 138000000 cycles: 115673555 heartbeat IPC: 0.914969 cumulative IPC: 0.918101 (Simulation time: 5 hr 45 min 18 sec) 
Heartbeat CPU 0 instructions: 139000002 cycles: 116316831 heartbeat IPC: 1.55455 cumulative IPC: 0.922344 (Simulation time: 5 hr 47 min 43 sec) 
Heartbeat CPU 0 instructions: 140000000 cycles: 116953486 heartbeat IPC: 1.57071 cumulative IPC: 0.926594 (Simulation time: 5 hr 49 min 55 sec) 
Heartbeat CPU 0 instructions: 141000000 cycles: 117589922 heartbeat IPC: 1.57125 cumulative IPC: 0.93079 (Simulation time: 5 hr 52 min 37 sec) 
Heartbeat CPU 0 instructions: 142000002 cycles: 118225506 heartbeat IPC: 1.57336 cumulative IPC: 0.934941 (Simulation time: 5 hr 54 min 34 sec) 
Heartbeat CPU 0 instructions: 143000002 cycles: 118863033 heartbeat IPC: 1.56856 cumulative IPC: 0.939019 (Simulation time: 5 hr 56 min 38 sec) 
Heartbeat CPU 0 instructions: 144000000 cycles: 119501563 heartbeat IPC: 1.56609 cumulative IPC: 0.943036 (Simulation time: 5 hr 58 min 56 sec) 
Heartbeat CPU 0 instructions: 145000001 cycles: 120137896 heartbeat IPC: 1.57151 cumulative IPC: 0.947023 (Simulation time: 6 hr 1 min 12 sec) 
Heartbeat CPU 0 instructions: 146000002 cycles: 120769897 heartbeat IPC: 1.58228 cumulative IPC: 0.951 (Simulation time: 6 hr 3 min 39 sec) 
Heartbeat CPU 0 instructions: 147000002 cycles: 122106943 heartbeat IPC: 0.747917 cumulative IPC: 0.948346 (Simulation time: 6 hr 6 min 25 sec) 
Heartbeat CPU 0 instructions: 148000000 cycles: 122622060 heartbeat IPC: 1.9413 cumulative IPC: 0.953321 (Simulation time: 6 hr 8 min 45 sec) 
Heartbeat CPU 0 instructions: 149000000 cycles: 123133122 heartbeat IPC: 1.95671 cumulative IPC: 0.958285 (Simulation time: 6 hr 10 min 53 sec) 
Heartbeat CPU 0 instructions: 150000003 cycles: 123641409 heartbeat IPC: 1.9674 cumulative IPC: 0.963225 (Simulation time: 6 hr 13 min 1 sec) 
Finished CPU 0 instructions: 100000000 cycles: 103817861 cummulative IPC: 0.963225 (Simulation time: 6 hr 13 min 1 sec) 

ChampSim completed all CPUs

Region of Interest Statistics

CPU 0 cummulative IPC: 0.963225 instructions: 100000000 cycles: 103817861
LLC TOTAL     ACCESS:     678823  HIT:     516785  MISS:     162038
LLC LOAD      ACCESS:     201697  HIT:     199833  MISS:       1864
LLC RFO       ACCESS:      77433  HIT:      29969  MISS:      47464
LLC PREFETCH  ACCESS:     319026  HIT:     250909  MISS:      68117
LLC WRITEBACK ACCESS:      80667  HIT:      36074  MISS:      44593
