
*** ChampSim Multicore Out-of-Order Simulator ***

Warmup Instructions: 50000000
Simulation Instructions: 100000000
Configuration: 2
Number of CPUs: 1
LLC sets: 2048
LLC ways: 16
Off-chip DRAM Channels: 1 Width: 64-bit Data Rate: 1600 MT/s

CPU 0 runs /datasets/cs240c-wi22-a00-public/data/Assignment2-gz/wrf_1650B.trace.gz
CPU 0 L1D next line prefetcher
CPU 0 L2C IP-based stride prefetcher
Heartbeat CPU 0 instructions: 1000000 cycles: 514299 heartbeat IPC: 1.94439 cumulative IPC: 1.94439 (Simulation time: 0 hr 2 min 28 sec) 
Heartbeat CPU 0 instructions: 2000000 cycles: 1028473 heartbeat IPC: 1.94487 cumulative IPC: 1.94463 (Simulation time: 0 hr 4 min 51 sec) 
Heartbeat CPU 0 instructions: 3000001 cycles: 1546184 heartbeat IPC: 1.93158 cumulative IPC: 1.94026 (Simulation time: 0 hr 7 min 10 sec) 
Heartbeat CPU 0 instructions: 4000000 cycles: 2063940 heartbeat IPC: 1.93141 cumulative IPC: 1.93804 (Simulation time: 0 hr 9 min 45 sec) 
Heartbeat CPU 0 instructions: 5000001 cycles: 2581687 heartbeat IPC: 1.93145 cumulative IPC: 1.93672 (Simulation time: 0 hr 11 min 49 sec) 
Heartbeat CPU 0 instructions: 6000003 cycles: 3099505 heartbeat IPC: 1.93118 cumulative IPC: 1.93579 (Simulation time: 0 hr 14 min 7 sec) 
Heartbeat CPU 0 instructions: 7000000 cycles: 3617214 heartbeat IPC: 1.93158 cumulative IPC: 1.93519 (Simulation time: 0 hr 16 min 21 sec) 
Heartbeat CPU 0 instructions: 8000000 cycles: 4135023 heartbeat IPC: 1.93121 cumulative IPC: 1.93469 (Simulation time: 0 hr 18 min 29 sec) 
Heartbeat CPU 0 instructions: 9000001 cycles: 4649336 heartbeat IPC: 1.94434 cumulative IPC: 1.93576 (Simulation time: 0 hr 20 min 57 sec) 
Heartbeat CPU 0 instructions: 10000001 cycles: 5163453 heartbeat IPC: 1.94508 cumulative IPC: 1.93669 (Simulation time: 0 hr 23 min 24 sec) 
Heartbeat CPU 0 instructions: 11000001 cycles: 5677587 heartbeat IPC: 1.94502 cumulative IPC: 1.93744 (Simulation time: 0 hr 25 min 33 sec) 
Heartbeat CPU 0 instructions: 12000000 cycles: 6193737 heartbeat IPC: 1.93742 cumulative IPC: 1.93744 (Simulation time: 0 hr 27 min 54 sec) 
Heartbeat CPU 0 instructions: 13000002 cycles: 6711432 heartbeat IPC: 1.93164 cumulative IPC: 1.93699 (Simulation time: 0 hr 30 min 4 sec) 
Heartbeat CPU 0 instructions: 14000002 cycles: 7229229 heartbeat IPC: 1.93126 cumulative IPC: 1.93658 (Simulation time: 0 hr 32 min 37 sec) 
Heartbeat CPU 0 instructions: 15000001 cycles: 7746913 heartbeat IPC: 1.93168 cumulative IPC: 1.93626 (Simulation time: 0 hr 34 min 49 sec) 
Heartbeat CPU 0 instructions: 16000000 cycles: 8264628 heartbeat IPC: 1.93156 cumulative IPC: 1.93596 (Simulation time: 0 hr 37 min 17 sec) 
Heartbeat CPU 0 instructions: 17000000 cycles: 8782346 heartbeat IPC: 1.93155 cumulative IPC: 1.9357 (Simulation time: 0 hr 39 min 31 sec) 
Heartbeat CPU 0 instructions: 18000001 cycles: 9298211 heartbeat IPC: 1.93849 cumulative IPC: 1.93586 (Simulation time: 0 hr 42 min 8 sec) 
Heartbeat CPU 0 instructions: 19000003 cycles: 9812269 heartbeat IPC: 1.94531 cumulative IPC: 1.93635 (Simulation time: 0 hr 44 min 25 sec) 
Heartbeat CPU 0 instructions: 20000000 cycles: 10326480 heartbeat IPC: 1.94472 cumulative IPC: 1.93677 (Simulation time: 0 hr 46 min 43 sec) 
Heartbeat CPU 0 instructions: 21000000 cycles: 10841175 heartbeat IPC: 1.9429 cumulative IPC: 1.93706 (Simulation time: 0 hr 48 min 49 sec) 
Heartbeat CPU 0 instructions: 22000000 cycles: 11358990 heartbeat IPC: 1.93119 cumulative IPC: 1.93679 (Simulation time: 0 hr 51 min 6 sec) 
Heartbeat CPU 0 instructions: 23000003 cycles: 11876757 heartbeat IPC: 1.93138 cumulative IPC: 1.93656 (Simulation time: 0 hr 53 min 34 sec) 
Heartbeat CPU 0 instructions: 24000000 cycles: 12394524 heartbeat IPC: 1.93136 cumulative IPC: 1.93634 (Simulation time: 0 hr 55 min 57 sec) 
Heartbeat CPU 0 instructions: 25000000 cycles: 12912214 heartbeat IPC: 1.93166 cumulative IPC: 1.93615 (Simulation time: 0 hr 58 min 53 sec) 
Heartbeat CPU 0 instructions: 26000001 cycles: 13429933 heartbeat IPC: 1.93155 cumulative IPC: 1.93597 (Simulation time: 1 hr 1 min 2 sec) 
Heartbeat CPU 0 instructions: 27000002 cycles: 13947348 heartbeat IPC: 1.93269 cumulative IPC: 1.93585 (Simulation time: 1 hr 3 min 30 sec) 
Heartbeat CPU 0 instructions: 28000000 cycles: 14461488 heartbeat IPC: 1.94499 cumulative IPC: 1.93618 (Simulation time: 1 hr 5 min 41 sec) 
Heartbeat CPU 0 instructions: 29000003 cycles: 14975725 heartbeat IPC: 1.94463 cumulative IPC: 1.93647 (Simulation time: 1 hr 8 min 9 sec) 
Heartbeat CPU 0 instructions: 30000002 cycles: 15489912 heartbeat IPC: 1.94482 cumulative IPC: 1.93674 (Simulation time: 1 hr 10 min 39 sec) 
Heartbeat CPU 0 instructions: 31000001 cycles: 16006549 heartbeat IPC: 1.93559 cumulative IPC: 1.93671 (Simulation time: 1 hr 13 min 8 sec) 
Heartbeat CPU 0 instructions: 32000000 cycles: 16524170 heartbeat IPC: 1.93191 cumulative IPC: 1.93656 (Simulation time: 1 hr 15 min 38 sec) 
Heartbeat CPU 0 instructions: 33000001 cycles: 17041842 heartbeat IPC: 1.93173 cumulative IPC: 1.93641 (Simulation time: 1 hr 18 min 6 sec) 
Heartbeat CPU 0 instructions: 34000002 cycles: 17559440 heartbeat IPC: 1.932 cumulative IPC: 1.93628 (Simulation time: 1 hr 20 min 45 sec) 
Heartbeat CPU 0 instructions: 35000001 cycles: 18077270 heartbeat IPC: 1.93113 cumulative IPC: 1.93613 (Simulation time: 1 hr 23 min 5 sec) 
Heartbeat CPU 0 instructions: 36000000 cycles: 18594991 heartbeat IPC: 1.93154 cumulative IPC: 1.93601 (Simulation time: 1 hr 25 min 0 sec) 
Heartbeat CPU 0 instructions: 37000003 cycles: 19110667 heartbeat IPC: 1.93921 cumulative IPC: 1.93609 (Simulation time: 1 hr 27 min 15 sec) 
Heartbeat CPU 0 instructions: 38000000 cycles: 19624818 heartbeat IPC: 1.94495 cumulative IPC: 1.93632 (Simulation time: 1 hr 29 min 33 sec) 
Heartbeat CPU 0 instructions: 39000001 cycles: 20138999 heartbeat IPC: 1.94484 cumulative IPC: 1.93654 (Simulation time: 1 hr 31 min 56 sec) 
Heartbeat CPU 0 instructions: 40000000 cycles: 20654040 heartbeat IPC: 1.94159 cumulative IPC: 1.93667 (Simulation time: 1 hr 33 min 45 sec) 
Heartbeat CPU 0 instructions: 41000000 cycles: 21171690 heartbeat IPC: 1.93181 cumulative IPC: 1.93655 (Simulation time: 1 hr 35 min 51 sec) 
Heartbeat CPU 0 instructions: 42000003 cycles: 21689691 heartbeat IPC: 1.9305 cumulative IPC: 1.9364 (Simulation time: 1 hr 38 min 15 sec) 
Heartbeat CPU 0 instructions: 43000001 cycles: 22207425 heartbeat IPC: 1.93149 cumulative IPC: 1.93629 (Simulation time: 1 hr 40 min 44 sec) 
Heartbeat CPU 0 instructions: 44000000 cycles: 22725175 heartbeat IPC: 1.93143 cumulative IPC: 1.93618 (Simulation time: 1 hr 42 min 53 sec) 
Heartbeat CPU 0 instructions: 45000000 cycles: 23242894 heartbeat IPC: 1.93155 cumulative IPC: 1.93608 (Simulation time: 1 hr 45 min 26 sec) 
Heartbeat CPU 0 instructions: 46000003 cycles: 23740914 heartbeat IPC: 2.00796 cumulative IPC: 1.93758 (Simulation time: 1 hr 48 min 19 sec) 
Heartbeat CPU 0 instructions: 47000002 cycles: 24391825 heartbeat IPC: 1.53631 cumulative IPC: 1.92688 (Simulation time: 1 hr 51 min 19 sec) 
Heartbeat CPU 0 instructions: 48000000 cycles: 25044180 heartbeat IPC: 1.5329 cumulative IPC: 1.91661 (Simulation time: 1 hr 54 min 6 sec) 
Heartbeat CPU 0 instructions: 49000001 cycles: 25692694 heartbeat IPC: 1.54199 cumulative IPC: 1.90716 (Simulation time: 1 hr 56 min 41 sec) 
Heartbeat CPU 0 instructions: 50000000 cycles: 26341348 heartbeat IPC: 1.54165 cumulative IPC: 1.89816 (Simulation time: 1 hr 59 min 41 sec) 

Warmup complete CPU 0 instructions: 50000001 cycles: 26341351 (Simulation time: 1 hr 59 min 41 sec) 

Heartbeat CPU 0 instructions: 51000000 cycles: 28129800 heartbeat IPC: 0.559143 cumulative IPC: 0.559143 (Simulation time: 2 hr 2 min 41 sec) 
Heartbeat CPU 0 instructions: 52000000 cycles: 29892430 heartbeat IPC: 0.567334 cumulative IPC: 0.563209 (Simulation time: 2 hr 5 min 32 sec) 
Heartbeat CPU 0 instructions: 53000002 cycles: 30927022 heartbeat IPC: 0.966567 cumulative IPC: 0.654212 (Simulation time: 2 hr 7 min 47 sec) 
Heartbeat CPU 0 instructions: 54000001 cycles: 31829035 heartbeat IPC: 1.10863 cumulative IPC: 0.728905 (Simulation time: 2 hr 10 min 10 sec) 
Heartbeat CPU 0 instructions: 55000000 cycles: 32728735 heartbeat IPC: 1.11148 cumulative IPC: 0.782793 (Simulation time: 2 hr 12 min 44 sec) 
Heartbeat CPU 0 instructions: 56000000 cycles: 33613026 heartbeat IPC: 1.13085 cumulative IPC: 0.825119 (Simulation time: 2 hr 15 min 25 sec) 
Heartbeat CPU 0 instructions: 57000001 cycles: 34503967 heartbeat IPC: 1.12241 cumulative IPC: 0.857568 (Simulation time: 2 hr 17 min 45 sec) 
Heartbeat CPU 0 instructions: 58000002 cycles: 35389627 heartbeat IPC: 1.1291 cumulative IPC: 0.884146 (Simulation time: 2 hr 19 min 58 sec) 
Heartbeat CPU 0 instructions: 59000003 cycles: 36280623 heartbeat IPC: 1.12234 cumulative IPC: 0.905499 (Simulation time: 2 hr 22 min 19 sec) 
Heartbeat CPU 0 instructions: 60000000 cycles: 37171669 heartbeat IPC: 1.12227 cumulative IPC: 0.923334 (Simulation time: 2 hr 25 min 5 sec) 
Heartbeat CPU 0 instructions: 61000003 cycles: 38467274 heartbeat IPC: 0.771842 cumulative IPC: 0.907148 (Simulation time: 2 hr 27 min 14 sec) 
Heartbeat CPU 0 instructions: 62000002 cycles: 39955144 heartbeat IPC: 0.672101 cumulative IPC: 0.881459 (Simulation time: 2 hr 29 min 40 sec) 
Heartbeat CPU 0 instructions: 63000002 cycles: 41441070 heartbeat IPC: 0.672981 cumulative IPC: 0.860943 (Simulation time: 2 hr 32 min 33 sec) 
Heartbeat CPU 0 instructions: 64000000 cycles: 42927881 heartbeat IPC: 0.672579 cumulative IPC: 0.844058 (Simulation time: 2 hr 35 min 21 sec) 
Heartbeat CPU 0 instructions: 65000001 cycles: 44415852 heartbeat IPC: 0.672057 cumulative IPC: 0.829898 (Simulation time: 2 hr 38 min 9 sec) 
Heartbeat CPU 0 instructions: 66000000 cycles: 45901520 heartbeat IPC: 0.673097 cumulative IPC: 0.817989 (Simulation time: 2 hr 40 min 44 sec) 
Heartbeat CPU 0 instructions: 67000001 cycles: 47391002 heartbeat IPC: 0.671375 cumulative IPC: 0.807614 (Simulation time: 2 hr 42 min 53 sec) 
Heartbeat CPU 0 instructions: 68000000 cycles: 48877346 heartbeat IPC: 0.672791 cumulative IPC: 0.798722 (Simulation time: 2 hr 45 min 21 sec) 
Heartbeat CPU 0 instructions: 69000002 cycles: 50362779 heartbeat IPC: 0.673206 cumulative IPC: 0.79096 (Simulation time: 2 hr 48 min 11 sec) 
Heartbeat CPU 0 instructions: 70000000 cycles: 51850116 heartbeat IPC: 0.672341 cumulative IPC: 0.784044 (Simulation time: 2 hr 50 min 40 sec) 
Heartbeat CPU 0 instructions: 71000001 cycles: 53338036 heartbeat IPC: 0.67208 cumulative IPC: 0.777873 (Simulation time: 2 hr 53 min 25 sec) 
Heartbeat CPU 0 instructions: 72000000 cycles: 54825623 heartbeat IPC: 0.672229 cumulative IPC: 0.772356 (Simulation time: 2 hr 56 min 25 sec) 
Heartbeat CPU 0 instructions: 73000000 cycles: 56311462 heartbeat IPC: 0.67302 cumulative IPC: 0.767431 (Simulation time: 3 hr 0 min 4 sec) 
Heartbeat CPU 0 instructions: 74000003 cycles: 57796831 heartbeat IPC: 0.673235 cumulative IPC: 0.762983 (Simulation time: 3 hr 2 min 21 sec) 
Heartbeat CPU 0 instructions: 75000003 cycles: 59283171 heartbeat IPC: 0.672794 cumulative IPC: 0.758914 (Simulation time: 3 hr 4 min 53 sec) 
Heartbeat CPU 0 instructions: 76000000 cycles: 60768837 heartbeat IPC: 0.673097 cumulative IPC: 0.755211 (Simulation time: 3 hr 7 min 49 sec) 
Heartbeat CPU 0 instructions: 77000002 cycles: 62257798 heartbeat IPC: 0.671611 cumulative IPC: 0.751745 (Simulation time: 3 hr 9 min 50 sec) 
Heartbeat CPU 0 instructions: 78000001 cycles: 63744468 heartbeat IPC: 0.672644 cumulative IPC: 0.748601 (Simulation time: 3 hr 12 min 17 sec) 
Heartbeat CPU 0 instructions: 79000001 cycles: 65233171 heartbeat IPC: 0.671726 cumulative IPC: 0.745658 (Simulation time: 3 hr 15 min 38 sec) 
Heartbeat CPU 0 instructions: 80000000 cycles: 66719608 heartbeat IPC: 0.672749 cumulative IPC: 0.742974 (Simulation time: 3 hr 18 min 47 sec) 
Heartbeat CPU 0 instructions: 81000000 cycles: 68207056 heartbeat IPC: 0.672292 cumulative IPC: 0.740463 (Simulation time: 3 hr 21 min 25 sec) 
Heartbeat CPU 0 instructions: 82000003 cycles: 69692689 heartbeat IPC: 0.673116 cumulative IPC: 0.738155 (Simulation time: 3 hr 24 min 0 sec) 
Heartbeat CPU 0 instructions: 83000003 cycles: 71182991 heartbeat IPC: 0.671005 cumulative IPC: 0.735923 (Simulation time: 3 hr 26 min 19 sec) 
Heartbeat CPU 0 instructions: 84000000 cycles: 72668468 heartbeat IPC: 0.673182 cumulative IPC: 0.733911 (Simulation time: 3 hr 28 min 22 sec) 
Heartbeat CPU 0 instructions: 85000002 cycles: 74155342 heartbeat IPC: 0.672553 cumulative IPC: 0.732003 (Simulation time: 3 hr 30 min 50 sec) 
Heartbeat CPU 0 instructions: 86000001 cycles: 75640659 heartbeat IPC: 0.673256 cumulative IPC: 0.730233 (Simulation time: 3 hr 33 min 12 sec) 
Heartbeat CPU 0 instructions: 87000001 cycles: 77126686 heartbeat IPC: 0.672935 cumulative IPC: 0.728557 (Simulation time: 3 hr 36 min 1 sec) 
Heartbeat CPU 0 instructions: 88000000 cycles: 78640792 heartbeat IPC: 0.660455 cumulative IPC: 0.726585 (Simulation time: 3 hr 39 min 20 sec) 
Heartbeat CPU 0 instructions: 89000003 cycles: 80154279 heartbeat IPC: 0.660728 cumulative IPC: 0.724733 (Simulation time: 3 hr 42 min 35 sec) 
Heartbeat CPU 0 instructions: 90000003 cycles: 81671446 heartbeat IPC: 0.659123 cumulative IPC: 0.722934 (Simulation time: 3 hr 45 min 45 sec) 
Heartbeat CPU 0 instructions: 91000001 cycles: 83185615 heartbeat IPC: 0.660427 cumulative IPC: 0.721269 (Simulation time: 3 hr 49 min 8 sec) 
Heartbeat CPU 0 instructions: 92000000 cycles: 84697349 heartbeat IPC: 0.661491 cumulative IPC: 0.71972 (Simulation time: 3 hr 52 min 31 sec) 
Heartbeat CPU 0 instructions: 93000001 cycles: 86213998 heartbeat IPC: 0.659349 cumulative IPC: 0.718191 (Simulation time: 3 hr 55 min 35 sec) 
Heartbeat CPU 0 instructions: 94000001 cycles: 87727202 heartbeat IPC: 0.660849 cumulative IPC: 0.716778 (Simulation time: 3 hr 59 min 11 sec) 
Heartbeat CPU 0 instructions: 95000001 cycles: 89237356 heartbeat IPC: 0.662184 cumulative IPC: 0.715467 (Simulation time: 4 hr 2 min 44 sec) 
Heartbeat CPU 0 instructions: 96000000 cycles: 90750313 heartbeat IPC: 0.660957 cumulative IPC: 0.714186 (Simulation time: 4 hr 6 min 6 sec) 
Heartbeat CPU 0 instructions: 97000000 cycles: 92265373 heartbeat IPC: 0.66004 cumulative IPC: 0.712942 (Simulation time: 4 hr 9 min 28 sec) 
Heartbeat CPU 0 instructions: 98000000 cycles: 93778923 heartbeat IPC: 0.660698 cumulative IPC: 0.711769 (Simulation time: 4 hr 12 min 1 sec) 
Heartbeat CPU 0 instructions: 99000000 cycles: 95290144 heartbeat IPC: 0.661717 cumulative IPC: 0.710672 (Simulation time: 4 hr 15 min 3 sec) 
Heartbeat CPU 0 instructions: 100000000 cycles: 96804874 heartbeat IPC: 0.660184 cumulative IPC: 0.709587 (Simulation time: 4 hr 17 min 39 sec) 
Heartbeat CPU 0 instructions: 101000002 cycles: 98322733 heartbeat IPC: 0.658824 cumulative IPC: 0.708517 (Simulation time: 4 hr 20 min 49 sec) 
Heartbeat CPU 0 instructions: 102000002 cycles: 99836460 heartbeat IPC: 0.660621 cumulative IPC: 0.70753 (Simulation time: 4 hr 23 min 23 sec) 
Heartbeat CPU 0 instructions: 103000002 cycles: 101349901 heartbeat IPC: 0.660746 cumulative IPC: 0.706586 (Simulation time: 4 hr 26 min 4 sec) 
Heartbeat CPU 0 instructions: 104000000 cycles: 102865382 heartbeat IPC: 0.659855 cumulative IPC: 0.705661 (Simulation time: 4 hr 28 min 30 sec) 
Heartbeat CPU 0 instructions: 105000001 cycles: 104379913 heartbeat IPC: 0.660271 cumulative IPC: 0.70478 (Simulation time: 4 hr 31 min 40 sec) 
Heartbeat CPU 0 instructions: 106000001 cycles: 105897059 heartbeat IPC: 0.659132 cumulative IPC: 0.703909 (Simulation time: 4 hr 34 min 43 sec) 
Heartbeat CPU 0 instructions: 107000000 cycles: 107409551 heartbeat IPC: 0.66116 cumulative IPC: 0.703112 (Simulation time: 4 hr 37 min 19 sec) 
Heartbeat CPU 0 instructions: 108000000 cycles: 108923783 heartbeat IPC: 0.660401 cumulative IPC: 0.702329 (Simulation time: 4 hr 39 min 53 sec) 
Heartbeat CPU 0 instructions: 109000000 cycles: 110440246 heartbeat IPC: 0.659429 cumulative IPC: 0.701555 (Simulation time: 4 hr 43 min 18 sec) 
Heartbeat CPU 0 instructions: 110000001 cycles: 111954049 heartbeat IPC: 0.660589 cumulative IPC: 0.700831 (Simulation time: 4 hr 46 min 6 sec) 
Heartbeat CPU 0 instructions: 111000003 cycles: 113466143 heartbeat IPC: 0.661336 cumulative IPC: 0.700145 (Simulation time: 4 hr 49 min 42 sec) 
Heartbeat CPU 0 instructions: 112000000 cycles: 114979837 heartbeat IPC: 0.660634 cumulative IPC: 0.69947 (Simulation time: 4 hr 52 min 50 sec) 
Heartbeat CPU 0 instructions: 113000003 cycles: 116491715 heartbeat IPC: 0.661431 cumulative IPC: 0.698832 (Simulation time: 4 hr 55 min 36 sec) 
Heartbeat CPU 0 instructions: 114000002 cycles: 118005126 heartbeat IPC: 0.660758 cumulative IPC: 0.698204 (Simulation time: 4 hr 58 min 32 sec) 
Heartbeat CPU 0 instructions: 115000002 cycles: 119516879 heartbeat IPC: 0.661484 cumulative IPC: 0.697608 (Simulation time: 5 hr 1 min 20 sec) 
Heartbeat CPU 0 instructions: 116000000 cycles: 121029504 heartbeat IPC: 0.661101 cumulative IPC: 0.697025 (Simulation time: 5 hr 3 min 50 sec) 
Heartbeat CPU 0 instructions: 117000000 cycles: 122541626 heartbeat IPC: 0.661322 cumulative IPC: 0.696464 (Simulation time: 5 hr 6 min 47 sec) 
Heartbeat CPU 0 instructions: 118000003 cycles: 124053235 heartbeat IPC: 0.661549 cumulative IPC: 0.695924 (Simulation time: 5 hr 9 min 25 sec) 
Heartbeat CPU 0 instructions: 119000001 cycles: 125564186 heartbeat IPC: 0.661834 cumulative IPC: 0.695404 (Simulation time: 5 hr 12 min 7 sec) 
Heartbeat CPU 0 instructions: 120000000 cycles: 127076613 heartbeat IPC: 0.661188 cumulative IPC: 0.694891 (Simulation time: 5 hr 14 min 49 sec) 
Heartbeat CPU 0 instructions: 121000001 cycles: 128588822 heartbeat IPC: 0.661285 cumulative IPC: 0.694394 (Simulation time: 5 hr 17 min 40 sec) 
Heartbeat CPU 0 instructions: 122000000 cycles: 130102471 heartbeat IPC: 0.660654 cumulative IPC: 0.693902 (Simulation time: 5 hr 20 min 54 sec) 
Heartbeat CPU 0 instructions: 123000000 cycles: 131612766 heartbeat IPC: 0.662122 cumulative IPC: 0.693446 (Simulation time: 5 hr 23 min 58 sec) 
Heartbeat CPU 0 instructions: 124000000 cycles: 133126181 heartbeat IPC: 0.660757 cumulative IPC: 0.692982 (Simulation time: 5 hr 26 min 42 sec) 
Heartbeat CPU 0 instructions: 125000002 cycles: 134637463 heartbeat IPC: 0.661691 cumulative IPC: 0.692546 (Simulation time: 5 hr 29 min 10 sec) 
Heartbeat CPU 0 instructions: 126000003 cycles: 136151788 heartbeat IPC: 0.660361 cumulative IPC: 0.692102 (Simulation time: 5 hr 31 min 41 sec) 
Heartbeat CPU 0 instructions: 127000002 cycles: 137663376 heartbeat IPC: 0.661555 cumulative IPC: 0.691687 (Simulation time: 5 hr 34 min 36 sec) 
Heartbeat CPU 0 instructions: 128000000 cycles: 139473782 heartbeat IPC: 0.552361 cumulative IPC: 0.689457 (Simulation time: 5 hr 37 min 43 sec) 
Heartbeat CPU 0 instructions: 129000001 cycles: 141901212 heartbeat IPC: 0.411959 cumulative IPC: 0.683628 (Simulation time: 5 hr 41 min 2 sec) 
Heartbeat CPU 0 instructions: 130000002 cycles: 143594011 heartbeat IPC: 0.590738 cumulative IPC: 0.682287 (Simulation time: 5 hr 43 min 54 sec) 
Heartbeat CPU 0 instructions: 131000002 cycles: 145214384 heartbeat IPC: 0.617142 cumulative IPC: 0.681399 (Simulation time: 5 hr 46 min 58 sec) 
Heartbeat CPU 0 instructions: 132000000 cycles: 148392669 heartbeat IPC: 0.314634 cumulative IPC: 0.671849 (Simulation time: 5 hr 51 min 3 sec) 
Heartbeat CPU 0 instructions: 133000000 cycles: 152003134 heartbeat IPC: 0.276973 cumulative IPC: 0.660503 (Simulation time: 5 hr 56 min 32 sec) 
Heartbeat CPU 0 instructions: 134000000 cycles: 155537136 heartbeat IPC: 0.282965 cumulative IPC: 0.650176 (Simulation time: 6 hr 2 min 22 sec) 
Heartbeat CPU 0 instructions: 135000001 cycles: 159021328 heartbeat IPC: 0.287011 cumulative IPC: 0.640639 (Simulation time: 6 hr 7 min 45 sec) 
Heartbeat CPU 0 instructions: 136000000 cycles: 160001096 heartbeat IPC: 1.02065 cumulative IPC: 0.643425 (Simulation time: 6 hr 10 min 11 sec) 
Heartbeat CPU 0 instructions: 137000001 cycles: 160948780 heartbeat IPC: 1.05521 cumulative IPC: 0.646324 (Simulation time: 6 hr 12 min 43 sec) 
Heartbeat CPU 0 instructions: 138000000 cycles: 161879949 heartbeat IPC: 1.07392 cumulative IPC: 0.649262 (Simulation time: 6 hr 15 min 7 sec) 
Heartbeat CPU 0 instructions: 139000000 cycles: 162828579 heartbeat IPC: 1.05415 cumulative IPC: 0.652076 (Simulation time: 6 hr 17 min 32 sec) 
Heartbeat CPU 0 instructions: 140000000 cycles: 163767976 heartbeat IPC: 1.06451 cumulative IPC: 0.654895 (Simulation time: 6 hr 19 min 52 sec) 
Heartbeat CPU 0 instructions: 141000002 cycles: 164695249 heartbeat IPC: 1.07843 cumulative IPC: 0.657734 (Simulation time: 6 hr 22 min 8 sec) 
Heartbeat CPU 0 instructions: 142000001 cycles: 165630150 heartbeat IPC: 1.06963 cumulative IPC: 0.660498 (Simulation time: 6 hr 24 min 18 sec) 
Heartbeat CPU 0 instructions: 143000000 cycles: 166541788 heartbeat IPC: 1.09693 cumulative IPC: 0.663336 (Simulation time: 6 hr 26 min 27 sec) 
Heartbeat CPU 0 instructions: 144000000 cycles: 167478948 heartbeat IPC: 1.06705 cumulative IPC: 0.666017 (Simulation time: 6 hr 28 min 33 sec) 
Heartbeat CPU 0 instructions: 145000003 cycles: 168363707 heartbeat IPC: 1.13025 cumulative IPC: 0.668909 (Simulation time: 6 hr 30 min 29 sec) 
Heartbeat CPU 0 instructions: 146000000 cycles: 169254586 heartbeat IPC: 1.12248 cumulative IPC: 0.671736 (Simulation time: 6 hr 32 min 24 sec) 
Heartbeat CPU 0 instructions: 147000002 cycles: 170149857 heartbeat IPC: 1.11698 cumulative IPC: 0.674508 (Simulation time: 6 hr 34 min 15 sec) 
Heartbeat CPU 0 instructions: 148000000 cycles: 171034102 heartbeat IPC: 1.13091 cumulative IPC: 0.677297 (Simulation time: 6 hr 36 min 6 sec) 
Heartbeat CPU 0 instructions: 149000001 cycles: 171919839 heartbeat IPC: 1.129 cumulative IPC: 0.680046 (Simulation time: 6 hr 37 min 53 sec) 
Heartbeat CPU 0 instructions: 150000001 cycles: 172810713 heartbeat IPC: 1.12249 cumulative IPC: 0.682737 (Simulation time: 6 hr 39 min 34 sec) 
Finished CPU 0 instructions: 100000000 cycles: 146469362 cummulative IPC: 0.682737 (Simulation time: 6 hr 39 min 34 sec) 

ChampSim completed all CPUs

Region of Interest Statistics

CPU 0 cummulative IPC: 0.682737 instructions: 100000000 cycles: 146469362
LLC TOTAL     ACCESS:    2149741  HIT:     131489  MISS:    2018252
LLC LOAD      ACCESS:     100456  HIT:      11278  MISS:      89178
LLC RFO       ACCESS:     516068  HIT:       1991  MISS:     514077
LLC PREFETCH  ACCESS:     922185  HIT:      38489  MISS:     883696
LLC WRITEBACK ACCESS:     611032  HIT:      79731  MISS:     531301
