
*** ChampSim Multicore Out-of-Order Simulator ***

Warmup Instructions: 50000000
Simulation Instructions: 100000000
Configuration: 2
Number of CPUs: 1
LLC sets: 2048
LLC ways: 16
Off-chip DRAM Channels: 1 Width: 64-bit Data Rate: 1600 MT/s

CPU 0 runs /datasets/cs240c-wi22-a00-public/data/Assignment2-gz/omnetpp_17B.trace.gz
CPU 0 L1D next line prefetcher
CPU 0 L2C IP-based stride prefetcher
Heartbeat CPU 0 instructions: 1000000 cycles: 559584 heartbeat IPC: 1.78704 cumulative IPC: 1.78704 (Simulation time: 0 hr 2 min 36 sec) 
Heartbeat CPU 0 instructions: 2000002 cycles: 1133681 heartbeat IPC: 1.74187 cumulative IPC: 1.76417 (Simulation time: 0 hr 5 min 11 sec) 
Heartbeat CPU 0 instructions: 3000001 cycles: 1769109 heartbeat IPC: 1.57374 cumulative IPC: 1.69577 (Simulation time: 0 hr 7 min 23 sec) 
Heartbeat CPU 0 instructions: 4000000 cycles: 2334149 heartbeat IPC: 1.76978 cumulative IPC: 1.71369 (Simulation time: 0 hr 9 min 59 sec) 
Heartbeat CPU 0 instructions: 5000002 cycles: 2893314 heartbeat IPC: 1.78838 cumulative IPC: 1.72812 (Simulation time: 0 hr 12 min 35 sec) 
Heartbeat CPU 0 instructions: 6000000 cycles: 3471988 heartbeat IPC: 1.72809 cumulative IPC: 1.72812 (Simulation time: 0 hr 15 min 17 sec) 
Heartbeat CPU 0 instructions: 7000000 cycles: 4036547 heartbeat IPC: 1.77129 cumulative IPC: 1.73416 (Simulation time: 0 hr 17 min 57 sec) 
Heartbeat CPU 0 instructions: 8000000 cycles: 4698281 heartbeat IPC: 1.51118 cumulative IPC: 1.70275 (Simulation time: 0 hr 20 min 9 sec) 
Heartbeat CPU 0 instructions: 9000000 cycles: 5360088 heartbeat IPC: 1.51101 cumulative IPC: 1.67908 (Simulation time: 0 hr 22 min 23 sec) 
Heartbeat CPU 0 instructions: 10000001 cycles: 6021658 heartbeat IPC: 1.51156 cumulative IPC: 1.66067 (Simulation time: 0 hr 24 min 33 sec) 
Heartbeat CPU 0 instructions: 11000001 cycles: 6683048 heartbeat IPC: 1.51197 cumulative IPC: 1.64596 (Simulation time: 0 hr 26 min 46 sec) 
Heartbeat CPU 0 instructions: 12000000 cycles: 7343824 heartbeat IPC: 1.51337 cumulative IPC: 1.63403 (Simulation time: 0 hr 29 min 1 sec) 
Heartbeat CPU 0 instructions: 13000001 cycles: 8002524 heartbeat IPC: 1.51814 cumulative IPC: 1.62449 (Simulation time: 0 hr 31 min 13 sec) 
Heartbeat CPU 0 instructions: 14000000 cycles: 8663813 heartbeat IPC: 1.5122 cumulative IPC: 1.61592 (Simulation time: 0 hr 33 min 52 sec) 
Heartbeat CPU 0 instructions: 15000000 cycles: 9325528 heartbeat IPC: 1.51122 cumulative IPC: 1.60849 (Simulation time: 0 hr 35 min 57 sec) 
Heartbeat CPU 0 instructions: 16000000 cycles: 9987439 heartbeat IPC: 1.51078 cumulative IPC: 1.60201 (Simulation time: 0 hr 38 min 8 sec) 
Heartbeat CPU 0 instructions: 17000000 cycles: 10653166 heartbeat IPC: 1.50212 cumulative IPC: 1.59577 (Simulation time: 0 hr 40 min 45 sec) 
Heartbeat CPU 0 instructions: 18000001 cycles: 11319723 heartbeat IPC: 1.50025 cumulative IPC: 1.59014 (Simulation time: 0 hr 42 min 47 sec) 
Heartbeat CPU 0 instructions: 19000002 cycles: 11988530 heartbeat IPC: 1.4952 cumulative IPC: 1.58485 (Simulation time: 0 hr 44 min 56 sec) 
Heartbeat CPU 0 instructions: 20000000 cycles: 12560427 heartbeat IPC: 1.74856 cumulative IPC: 1.5923 (Simulation time: 0 hr 47 min 17 sec) 
Heartbeat CPU 0 instructions: 21000000 cycles: 13149504 heartbeat IPC: 1.69757 cumulative IPC: 1.59702 (Simulation time: 0 hr 49 min 42 sec) 
Heartbeat CPU 0 instructions: 22000001 cycles: 13761545 heartbeat IPC: 1.63388 cumulative IPC: 1.59866 (Simulation time: 0 hr 51 min 43 sec) 
Heartbeat CPU 0 instructions: 23000000 cycles: 14319565 heartbeat IPC: 1.79205 cumulative IPC: 1.60619 (Simulation time: 0 hr 54 min 0 sec) 
Heartbeat CPU 0 instructions: 24000000 cycles: 14879349 heartbeat IPC: 1.7864 cumulative IPC: 1.61297 (Simulation time: 0 hr 56 min 17 sec) 
Heartbeat CPU 0 instructions: 25000001 cycles: 15462934 heartbeat IPC: 1.71355 cumulative IPC: 1.61677 (Simulation time: 0 hr 58 min 29 sec) 
Heartbeat CPU 0 instructions: 26000001 cycles: 16079918 heartbeat IPC: 1.62079 cumulative IPC: 1.61692 (Simulation time: 1 hr 0 min 41 sec) 
Heartbeat CPU 0 instructions: 27000000 cycles: 16639701 heartbeat IPC: 1.7864 cumulative IPC: 1.62263 (Simulation time: 1 hr 3 min 38 sec) 
Heartbeat CPU 0 instructions: 28000000 cycles: 17198167 heartbeat IPC: 1.79062 cumulative IPC: 1.62808 (Simulation time: 1 hr 6 min 15 sec) 
Heartbeat CPU 0 instructions: 29000000 cycles: 17776942 heartbeat IPC: 1.72779 cumulative IPC: 1.63133 (Simulation time: 1 hr 8 min 25 sec) 
Heartbeat CPU 0 instructions: 30000000 cycles: 18399574 heartbeat IPC: 1.60609 cumulative IPC: 1.63047 (Simulation time: 1 hr 10 min 47 sec) 
Heartbeat CPU 0 instructions: 31000000 cycles: 18961117 heartbeat IPC: 1.78081 cumulative IPC: 1.63492 (Simulation time: 1 hr 13 min 2 sec) 
Heartbeat CPU 0 instructions: 32000000 cycles: 19518493 heartbeat IPC: 1.79412 cumulative IPC: 1.63947 (Simulation time: 1 hr 15 min 23 sec) 
Heartbeat CPU 0 instructions: 33000001 cycles: 20090451 heartbeat IPC: 1.74838 cumulative IPC: 1.64257 (Simulation time: 1 hr 17 min 58 sec) 
Heartbeat CPU 0 instructions: 34000001 cycles: 20726192 heartbeat IPC: 1.57297 cumulative IPC: 1.64044 (Simulation time: 1 hr 20 min 3 sec) 
Heartbeat CPU 0 instructions: 35000002 cycles: 21291546 heartbeat IPC: 1.76881 cumulative IPC: 1.64385 (Simulation time: 1 hr 22 min 45 sec) 
Heartbeat CPU 0 instructions: 36000000 cycles: 21851491 heartbeat IPC: 1.78589 cumulative IPC: 1.64748 (Simulation time: 1 hr 25 min 5 sec) 
Heartbeat CPU 0 instructions: 37000001 cycles: 22429742 heartbeat IPC: 1.72935 cumulative IPC: 1.6496 (Simulation time: 1 hr 27 min 50 sec) 
Heartbeat CPU 0 instructions: 38000002 cycles: 23058825 heartbeat IPC: 1.58962 cumulative IPC: 1.64796 (Simulation time: 1 hr 30 min 18 sec) 
Heartbeat CPU 0 instructions: 39000000 cycles: 23621716 heartbeat IPC: 1.77654 cumulative IPC: 1.65102 (Simulation time: 1 hr 33 min 10 sec) 
Heartbeat CPU 0 instructions: 40000000 cycles: 24181988 heartbeat IPC: 1.78485 cumulative IPC: 1.65412 (Simulation time: 1 hr 35 min 16 sec) 
Heartbeat CPU 0 instructions: 41000002 cycles: 24765135 heartbeat IPC: 1.71484 cumulative IPC: 1.65555 (Simulation time: 1 hr 37 min 55 sec) 
Heartbeat CPU 0 instructions: 42000000 cycles: 25392194 heartbeat IPC: 1.59474 cumulative IPC: 1.65405 (Simulation time: 1 hr 40 min 27 sec) 
Heartbeat CPU 0 instructions: 43000001 cycles: 25879809 heartbeat IPC: 2.0508 cumulative IPC: 1.66153 (Simulation time: 1 hr 43 min 33 sec) 
Heartbeat CPU 0 instructions: 44000000 cycles: 26540506 heartbeat IPC: 1.51355 cumulative IPC: 1.65784 (Simulation time: 1 hr 45 min 48 sec) 
Heartbeat CPU 0 instructions: 45000003 cycles: 27202149 heartbeat IPC: 1.51139 cumulative IPC: 1.65428 (Simulation time: 1 hr 47 min 56 sec) 
Heartbeat CPU 0 instructions: 46000000 cycles: 27864527 heartbeat IPC: 1.50971 cumulative IPC: 1.65084 (Simulation time: 1 hr 50 min 3 sec) 
Heartbeat CPU 0 instructions: 47000001 cycles: 28527544 heartbeat IPC: 1.50826 cumulative IPC: 1.64753 (Simulation time: 1 hr 52 min 15 sec) 
Heartbeat CPU 0 instructions: 48000000 cycles: 29190295 heartbeat IPC: 1.50886 cumulative IPC: 1.64438 (Simulation time: 1 hr 54 min 27 sec) 
Heartbeat CPU 0 instructions: 49000000 cycles: 29851793 heartbeat IPC: 1.51172 cumulative IPC: 1.64144 (Simulation time: 1 hr 56 min 27 sec) 
Heartbeat CPU 0 instructions: 50000000 cycles: 30513984 heartbeat IPC: 1.51014 cumulative IPC: 1.63859 (Simulation time: 1 hr 58 min 48 sec) 

Warmup complete CPU 0 instructions: 50000002 cycles: 30513985 (Simulation time: 1 hr 58 min 48 sec) 

Heartbeat CPU 0 instructions: 51000002 cycles: 31557337 heartbeat IPC: 0.95845 cumulative IPC: 0.958449 (Simulation time: 2 hr 0 min 58 sec) 
Heartbeat CPU 0 instructions: 52000000 cycles: 32601596 heartbeat IPC: 0.957615 cumulative IPC: 0.958032 (Simulation time: 2 hr 3 min 23 sec) 
Heartbeat CPU 0 instructions: 53000001 cycles: 33644410 heartbeat IPC: 0.958945 cumulative IPC: 0.958336 (Simulation time: 2 hr 5 min 51 sec) 
Heartbeat CPU 0 instructions: 54000002 cycles: 34712665 heartbeat IPC: 0.936107 cumulative IPC: 0.95268 (Simulation time: 2 hr 8 min 4 sec) 
Heartbeat CPU 0 instructions: 55000003 cycles: 35753070 heartbeat IPC: 0.961165 cumulative IPC: 0.954365 (Simulation time: 2 hr 10 min 7 sec) 
Heartbeat CPU 0 instructions: 56000000 cycles: 37998160 heartbeat IPC: 0.445415 cumulative IPC: 0.801691 (Simulation time: 2 hr 12 min 20 sec) 
Heartbeat CPU 0 instructions: 57000003 cycles: 40144664 heartbeat IPC: 0.465875 cumulative IPC: 0.726844 (Simulation time: 2 hr 14 min 50 sec) 
Heartbeat CPU 0 instructions: 58000000 cycles: 43526621 heartbeat IPC: 0.295686 cumulative IPC: 0.614787 (Simulation time: 2 hr 18 min 8 sec) 
Heartbeat CPU 0 instructions: 59000003 cycles: 46904667 heartbeat IPC: 0.29603 cumulative IPC: 0.549093 (Simulation time: 2 hr 20 min 45 sec) 
Heartbeat CPU 0 instructions: 60000000 cycles: 49325920 heartbeat IPC: 0.413008 cumulative IPC: 0.531577 (Simulation time: 2 hr 23 min 27 sec) 
Heartbeat CPU 0 instructions: 61000001 cycles: 51296945 heartbeat IPC: 0.507351 cumulative IPC: 0.52928 (Simulation time: 2 hr 26 min 1 sec) 
Heartbeat CPU 0 instructions: 62000001 cycles: 54670311 heartbeat IPC: 0.29644 cumulative IPC: 0.496764 (Simulation time: 2 hr 28 min 57 sec) 
Heartbeat CPU 0 instructions: 63000000 cycles: 58044473 heartbeat IPC: 0.29637 cumulative IPC: 0.472204 (Simulation time: 2 hr 31 min 40 sec) 
Heartbeat CPU 0 instructions: 64000000 cycles: 60646818 heartbeat IPC: 0.384269 cumulative IPC: 0.464609 (Simulation time: 2 hr 34 min 27 sec) 
Heartbeat CPU 0 instructions: 65000000 cycles: 62429429 heartbeat IPC: 0.560975 cumulative IPC: 0.469992 (Simulation time: 2 hr 37 min 10 sec) 
Heartbeat CPU 0 instructions: 66000000 cycles: 65795936 heartbeat IPC: 0.297044 cumulative IPC: 0.45349 (Simulation time: 2 hr 39 min 47 sec) 
Heartbeat CPU 0 instructions: 67000001 cycles: 69168204 heartbeat IPC: 0.296537 cumulative IPC: 0.439797 (Simulation time: 2 hr 42 min 57 sec) 
Heartbeat CPU 0 instructions: 68000000 cycles: 71976803 heartbeat IPC: 0.356049 cumulative IPC: 0.434124 (Simulation time: 2 hr 45 min 26 sec) 
Heartbeat CPU 0 instructions: 69000001 cycles: 73563989 heartbeat IPC: 0.630046 cumulative IPC: 0.441347 (Simulation time: 2 hr 47 min 43 sec) 
Heartbeat CPU 0 instructions: 70000001 cycles: 76919911 heartbeat IPC: 0.297981 cumulative IPC: 0.430979 (Simulation time: 2 hr 51 min 6 sec) 
Heartbeat CPU 0 instructions: 71000001 cycles: 80287417 heartbeat IPC: 0.296956 cumulative IPC: 0.421912 (Simulation time: 2 hr 54 min 0 sec) 
Heartbeat CPU 0 instructions: 72000000 cycles: 83107850 heartbeat IPC: 0.354555 cumulative IPC: 0.4183 (Simulation time: 2 hr 56 min 26 sec) 
Heartbeat CPU 0 instructions: 73000000 cycles: 84702166 heartbeat IPC: 0.627228 cumulative IPC: 0.424447 (Simulation time: 2 hr 58 min 40 sec) 
Heartbeat CPU 0 instructions: 74000003 cycles: 88074709 heartbeat IPC: 0.296513 cumulative IPC: 0.416951 (Simulation time: 3 hr 1 min 29 sec) 
Heartbeat CPU 0 instructions: 75000001 cycles: 91444862 heartbeat IPC: 0.296722 cumulative IPC: 0.410301 (Simulation time: 3 hr 5 min 12 sec) 
Heartbeat CPU 0 instructions: 76000000 cycles: 94143528 heartbeat IPC: 0.370553 cumulative IPC: 0.408615 (Simulation time: 3 hr 7 min 38 sec) 
Heartbeat CPU 0 instructions: 77000001 cycles: 95843344 heartbeat IPC: 0.5883 cumulative IPC: 0.41329 (Simulation time: 3 hr 10 min 20 sec) 
Heartbeat CPU 0 instructions: 78000000 cycles: 99210554 heartbeat IPC: 0.296981 cumulative IPC: 0.407589 (Simulation time: 3 hr 13 min 28 sec) 
Heartbeat CPU 0 instructions: 79000000 cycles: 102752588 heartbeat IPC: 0.282324 cumulative IPC: 0.401447 (Simulation time: 3 hr 16 min 48 sec) 
Heartbeat CPU 0 instructions: 80000000 cycles: 104585687 heartbeat IPC: 0.545524 cumulative IPC: 0.405013 (Simulation time: 3 hr 19 min 2 sec) 
Heartbeat CPU 0 instructions: 81000001 cycles: 107146698 heartbeat IPC: 0.390471 cumulative IPC: 0.404527 (Simulation time: 3 hr 22 min 1 sec) 
Heartbeat CPU 0 instructions: 82000000 cycles: 110521311 heartbeat IPC: 0.29633 cumulative IPC: 0.399963 (Simulation time: 3 hr 24 min 52 sec) 
Heartbeat CPU 0 instructions: 83000000 cycles: 113889823 heartbeat IPC: 0.296867 cumulative IPC: 0.395798 (Simulation time: 3 hr 28 min 37 sec) 
Heartbeat CPU 0 instructions: 84000000 cycles: 115690406 heartbeat IPC: 0.555376 cumulative IPC: 0.399171 (Simulation time: 3 hr 31 min 40 sec) 
Heartbeat CPU 0 instructions: 85000003 cycles: 118278548 heartbeat IPC: 0.386379 cumulative IPC: 0.398794 (Simulation time: 3 hr 34 min 35 sec) 
Heartbeat CPU 0 instructions: 86000001 cycles: 121661283 heartbeat IPC: 0.295618 cumulative IPC: 0.394965 (Simulation time: 3 hr 38 min 11 sec) 
Heartbeat CPU 0 instructions: 87000000 cycles: 125029664 heartbeat IPC: 0.296878 cumulative IPC: 0.391469 (Simulation time: 3 hr 42 min 3 sec) 
Heartbeat CPU 0 instructions: 88000000 cycles: 126717025 heartbeat IPC: 0.592641 cumulative IPC: 0.394998 (Simulation time: 3 hr 44 min 54 sec) 
Heartbeat CPU 0 instructions: 89000000 cycles: 131642252 heartbeat IPC: 0.203036 cumulative IPC: 0.385649 (Simulation time: 3 hr 48 min 51 sec) 
Heartbeat CPU 0 instructions: 90000002 cycles: 132685881 heartbeat IPC: 0.958197 cumulative IPC: 0.391497 (Simulation time: 3 hr 51 min 27 sec) 
Heartbeat CPU 0 instructions: 91000001 cycles: 133730274 heartbeat IPC: 0.957493 cumulative IPC: 0.397224 (Simulation time: 3 hr 54 min 38 sec) 
Heartbeat CPU 0 instructions: 92000000 cycles: 134773845 heartbeat IPC: 0.958247 cumulative IPC: 0.40284 (Simulation time: 3 hr 57 min 23 sec) 
Heartbeat CPU 0 instructions: 93000002 cycles: 135818110 heartbeat IPC: 0.957613 cumulative IPC: 0.408341 (Simulation time: 4 hr 0 min 17 sec) 
Heartbeat CPU 0 instructions: 94000001 cycles: 136861957 heartbeat IPC: 0.957994 cumulative IPC: 0.413736 (Simulation time: 4 hr 3 min 0 sec) 
Heartbeat CPU 0 instructions: 95000000 cycles: 137906242 heartbeat IPC: 0.957592 cumulative IPC: 0.419025 (Simulation time: 4 hr 6 min 18 sec) 
Heartbeat CPU 0 instructions: 96000000 cycles: 138951222 heartbeat IPC: 0.956956 cumulative IPC: 0.424208 (Simulation time: 4 hr 8 min 43 sec) 
Heartbeat CPU 0 instructions: 97000002 cycles: 140022094 heartbeat IPC: 0.93382 cumulative IPC: 0.429192 (Simulation time: 4 hr 11 min 49 sec) 
Heartbeat CPU 0 instructions: 98000000 cycles: 141067924 heartbeat IPC: 0.956176 cumulative IPC: 0.434177 (Simulation time: 4 hr 14 min 59 sec) 
Heartbeat CPU 0 instructions: 99000003 cycles: 142106351 heartbeat IPC: 0.962998 cumulative IPC: 0.439098 (Simulation time: 4 hr 17 min 39 sec) 
Heartbeat CPU 0 instructions: 100000000 cycles: 143142825 heartbeat IPC: 0.964807 cumulative IPC: 0.443936 (Simulation time: 4 hr 19 min 51 sec) 
Heartbeat CPU 0 instructions: 101000001 cycles: 144184043 heartbeat IPC: 0.960415 cumulative IPC: 0.448667 (Simulation time: 4 hr 22 min 3 sec) 
Heartbeat CPU 0 instructions: 102000001 cycles: 147497915 heartbeat IPC: 0.301762 cumulative IPC: 0.444505 (Simulation time: 4 hr 25 min 10 sec) 
Heartbeat CPU 0 instructions: 103000001 cycles: 148911338 heartbeat IPC: 0.707502 cumulative IPC: 0.447645 (Simulation time: 4 hr 27 min 54 sec) 
Heartbeat CPU 0 instructions: 104000000 cycles: 151953047 heartbeat IPC: 0.328762 cumulative IPC: 0.444667 (Simulation time: 4 hr 30 min 57 sec) 
Heartbeat CPU 0 instructions: 105000000 cycles: 155316724 heartbeat IPC: 0.297294 cumulative IPC: 0.440695 (Simulation time: 4 hr 33 min 56 sec) 
Heartbeat CPU 0 instructions: 106000000 cycles: 158623608 heartbeat IPC: 0.302399 cumulative IPC: 0.437126 (Simulation time: 4 hr 36 min 40 sec) 
Heartbeat CPU 0 instructions: 107000001 cycles: 160182427 heartbeat IPC: 0.641512 cumulative IPC: 0.439583 (Simulation time: 4 hr 38 min 54 sec) 
Heartbeat CPU 0 instructions: 108000000 cycles: 163070364 heartbeat IPC: 0.346268 cumulative IPC: 0.43755 (Simulation time: 4 hr 41 min 45 sec) 
Heartbeat CPU 0 instructions: 109000000 cycles: 166443123 heartbeat IPC: 0.296493 cumulative IPC: 0.43405 (Simulation time: 4 hr 44 min 42 sec) 
Heartbeat CPU 0 instructions: 110000000 cycles: 169794282 heartbeat IPC: 0.298404 cumulative IPC: 0.430786 (Simulation time: 4 hr 47 min 59 sec) 
Heartbeat CPU 0 instructions: 111000000 cycles: 171485190 heartbeat IPC: 0.591398 cumulative IPC: 0.432712 (Simulation time: 4 hr 50 min 36 sec) 
Heartbeat CPU 0 instructions: 112000000 cycles: 174202803 heartbeat IPC: 0.36797 cumulative IPC: 0.431488 (Simulation time: 4 hr 53 min 3 sec) 
Heartbeat CPU 0 instructions: 113000001 cycles: 177575624 heartbeat IPC: 0.296488 cumulative IPC: 0.428392 (Simulation time: 4 hr 55 min 59 sec) 
Heartbeat CPU 0 instructions: 114000001 cycles: 180952766 heartbeat IPC: 0.296108 cumulative IPC: 0.425422 (Simulation time: 4 hr 59 min 5 sec) 
Heartbeat CPU 0 instructions: 115000002 cycles: 182806345 heartbeat IPC: 0.539497 cumulative IPC: 0.426811 (Simulation time: 5 hr 1 min 48 sec) 
Heartbeat CPU 0 instructions: 116000000 cycles: 185346427 heartbeat IPC: 0.393687 cumulative IPC: 0.426267 (Simulation time: 5 hr 4 min 43 sec) 
Heartbeat CPU 0 instructions: 117000000 cycles: 188707384 heartbeat IPC: 0.297534 cumulative IPC: 0.423532 (Simulation time: 5 hr 7 min 46 sec) 
Heartbeat CPU 0 instructions: 118000001 cycles: 192106603 heartbeat IPC: 0.294186 cumulative IPC: 0.420811 (Simulation time: 5 hr 10 min 41 sec) 
Heartbeat CPU 0 instructions: 119000002 cycles: 193861841 heartbeat IPC: 0.569724 cumulative IPC: 0.422411 (Simulation time: 5 hr 13 min 36 sec) 
Heartbeat CPU 0 instructions: 120000000 cycles: 196506105 heartbeat IPC: 0.378176 cumulative IPC: 0.421707 (Simulation time: 5 hr 16 min 28 sec) 
Heartbeat CPU 0 instructions: 121000000 cycles: 199877372 heartbeat IPC: 0.296624 cumulative IPC: 0.419217 (Simulation time: 5 hr 19 min 22 sec) 
Heartbeat CPU 0 instructions: 122000000 cycles: 203243128 heartbeat IPC: 0.29711 cumulative IPC: 0.416838 (Simulation time: 5 hr 22 min 12 sec) 
Heartbeat CPU 0 instructions: 123000002 cycles: 204916772 heartbeat IPC: 0.5975 cumulative IPC: 0.418571 (Simulation time: 5 hr 25 min 2 sec) 
Heartbeat CPU 0 instructions: 124000000 cycles: 207634148 heartbeat IPC: 0.368001 cumulative IPC: 0.417795 (Simulation time: 5 hr 28 min 35 sec) 
Heartbeat CPU 0 instructions: 125000000 cycles: 211159759 heartbeat IPC: 0.283639 cumulative IPC: 0.415177 (Simulation time: 5 hr 31 min 17 sec) 
Heartbeat CPU 0 instructions: 126000001 cycles: 214391580 heartbeat IPC: 0.309423 cumulative IPC: 0.413318 (Simulation time: 5 hr 34 min 23 sec) 
Heartbeat CPU 0 instructions: 127000002 cycles: 215565492 heartbeat IPC: 0.851853 cumulative IPC: 0.4161 (Simulation time: 5 hr 37 min 7 sec) 
Heartbeat CPU 0 instructions: 128000000 cycles: 218943137 heartbeat IPC: 0.296064 cumulative IPC: 0.413949 (Simulation time: 5 hr 39 min 54 sec) 
Heartbeat CPU 0 instructions: 129000000 cycles: 222306713 heartbeat IPC: 0.297303 cumulative IPC: 0.411903 (Simulation time: 5 hr 43 min 6 sec) 
Heartbeat CPU 0 instructions: 130000001 cycles: 225496920 heartbeat IPC: 0.31346 cumulative IPC: 0.410292 (Simulation time: 5 hr 46 min 52 sec) 
Heartbeat CPU 0 instructions: 131000002 cycles: 226713868 heartbeat IPC: 0.821729 cumulative IPC: 0.412844 (Simulation time: 5 hr 49 min 47 sec) 
Heartbeat CPU 0 instructions: 132000000 cycles: 230082759 heartbeat IPC: 0.296833 cumulative IPC: 0.410886 (Simulation time: 5 hr 53 min 1 sec) 
Heartbeat CPU 0 instructions: 133000000 cycles: 233443806 heartbeat IPC: 0.297526 cumulative IPC: 0.409008 (Simulation time: 5 hr 55 min 42 sec) 
Heartbeat CPU 0 instructions: 134000000 cycles: 236485843 heartbeat IPC: 0.328727 cumulative IPC: 0.407823 (Simulation time: 5 hr 58 min 38 sec) 
Heartbeat CPU 0 instructions: 135000001 cycles: 240038574 heartbeat IPC: 0.281474 cumulative IPC: 0.40568 (Simulation time: 6 hr 1 min 57 sec) 
Heartbeat CPU 0 instructions: 136000000 cycles: 241082745 heartbeat IPC: 0.957697 cumulative IPC: 0.408418 (Simulation time: 6 hr 4 min 5 sec) 
Heartbeat CPU 0 instructions: 137000001 cycles: 242127930 heartbeat IPC: 0.956769 cumulative IPC: 0.411126 (Simulation time: 6 hr 6 min 25 sec) 
Heartbeat CPU 0 instructions: 138000001 cycles: 243172634 heartbeat IPC: 0.957209 cumulative IPC: 0.413809 (Simulation time: 6 hr 8 min 37 sec) 
Heartbeat CPU 0 instructions: 139000001 cycles: 244218165 heartbeat IPC: 0.956452 cumulative IPC: 0.416464 (Simulation time: 6 hr 10 min 43 sec) 
Heartbeat CPU 0 instructions: 140000000 cycles: 245264689 heartbeat IPC: 0.955543 cumulative IPC: 0.419091 (Simulation time: 6 hr 12 min 43 sec) 
Heartbeat CPU 0 instructions: 141000001 cycles: 246335104 heartbeat IPC: 0.934218 cumulative IPC: 0.421645 (Simulation time: 6 hr 14 min 44 sec) 
Heartbeat CPU 0 instructions: 142000002 cycles: 247378978 heartbeat IPC: 0.957971 cumulative IPC: 0.424227 (Simulation time: 6 hr 16 min 18 sec) 
Heartbeat CPU 0 instructions: 143000001 cycles: 248424242 heartbeat IPC: 0.956695 cumulative IPC: 0.426781 (Simulation time: 6 hr 17 min 51 sec) 
Heartbeat CPU 0 instructions: 144000000 cycles: 249468414 heartbeat IPC: 0.957696 cumulative IPC: 0.429313 (Simulation time: 6 hr 19 min 23 sec) 
Heartbeat CPU 0 instructions: 145000003 cycles: 250511485 heartbeat IPC: 0.95871 cumulative IPC: 0.431823 (Simulation time: 6 hr 20 min 57 sec) 
Heartbeat CPU 0 instructions: 146000001 cycles: 251552921 heartbeat IPC: 0.960211 cumulative IPC: 0.434313 (Simulation time: 6 hr 22 min 21 sec) 
Heartbeat CPU 0 instructions: 147000000 cycles: 252595033 heartbeat IPC: 0.959589 cumulative IPC: 0.436777 (Simulation time: 6 hr 23 min 46 sec) 
Heartbeat CPU 0 instructions: 148000000 cycles: 255960788 heartbeat IPC: 0.29711 cumulative IPC: 0.434692 (Simulation time: 6 hr 25 min 50 sec) 
Heartbeat CPU 0 instructions: 149000000 cycles: 258618445 heartbeat IPC: 0.376271 cumulative IPC: 0.434012 (Simulation time: 6 hr 27 min 42 sec) 
Heartbeat CPU 0 instructions: 150000000 cycles: 260347950 heartbeat IPC: 0.5782 cumulative IPC: 0.435097 (Simulation time: 6 hr 29 min 19 sec) 
Finished CPU 0 instructions: 100000002 cycles: 229833971 cummulative IPC: 0.435097 (Simulation time: 6 hr 29 min 19 sec) 

ChampSim completed all CPUs

Region of Interest Statistics

CPU 0 cummulative IPC: 0.435097 instructions: 100000002 cycles: 229833971
LLC TOTAL     ACCESS:    3408966  HIT:    1676331  MISS:    1732635
LLC LOAD      ACCESS:    1618187  HIT:     803886  MISS:     814301
LLC RFO       ACCESS:       5352  HIT:       1607  MISS:       3745
LLC PREFETCH  ACCESS:    1768026  HIT:     866646  MISS:     901380
LLC WRITEBACK ACCESS:      17401  HIT:       4192  MISS:      13209
