
*** ChampSim Multicore Out-of-Order Simulator ***

Warmup Instructions: 50000000
Simulation Instructions: 100000000
Configuration: 2
Number of CPUs: 1
LLC sets: 2048
LLC ways: 16
Off-chip DRAM Channels: 1 Width: 64-bit Data Rate: 1600 MT/s

CPU 0 runs /datasets/cs240c-wi22-a00-public/data/Assignment2-gz/omnetpp_4B.trace.gz
CPU 0 L1D next line prefetcher
CPU 0 L2C IP-based stride prefetcher
Heartbeat CPU 0 instructions: 1000001 cycles: 566968 heartbeat IPC: 1.76377 cumulative IPC: 1.76377 (Simulation time: 0 hr 2 min 32 sec) 
Heartbeat CPU 0 instructions: 2000001 cycles: 1135538 heartbeat IPC: 1.7588 cumulative IPC: 1.76128 (Simulation time: 0 hr 4 min 47 sec) 
Heartbeat CPU 0 instructions: 3000001 cycles: 1722677 heartbeat IPC: 1.70317 cumulative IPC: 1.74148 (Simulation time: 0 hr 7 min 48 sec) 
Heartbeat CPU 0 instructions: 4000000 cycles: 2292094 heartbeat IPC: 1.75618 cumulative IPC: 1.74513 (Simulation time: 0 hr 10 min 22 sec) 
Heartbeat CPU 0 instructions: 5000000 cycles: 2866414 heartbeat IPC: 1.74119 cumulative IPC: 1.74434 (Simulation time: 0 hr 13 min 1 sec) 
Heartbeat CPU 0 instructions: 6000000 cycles: 3442731 heartbeat IPC: 1.73516 cumulative IPC: 1.7428 (Simulation time: 0 hr 15 min 31 sec) 
Heartbeat CPU 0 instructions: 7000000 cycles: 4012234 heartbeat IPC: 1.75592 cumulative IPC: 1.74466 (Simulation time: 0 hr 17 min 37 sec) 
Heartbeat CPU 0 instructions: 8000000 cycles: 4565987 heartbeat IPC: 1.80586 cumulative IPC: 1.75209 (Simulation time: 0 hr 20 min 18 sec) 
Heartbeat CPU 0 instructions: 9000001 cycles: 5148255 heartbeat IPC: 1.71742 cumulative IPC: 1.74817 (Simulation time: 0 hr 23 min 2 sec) 
Heartbeat CPU 0 instructions: 10000000 cycles: 5702487 heartbeat IPC: 1.8043 cumulative IPC: 1.75362 (Simulation time: 0 hr 25 min 22 sec) 
Heartbeat CPU 0 instructions: 11000000 cycles: 6289847 heartbeat IPC: 1.70253 cumulative IPC: 1.74885 (Simulation time: 0 hr 27 min 55 sec) 
Heartbeat CPU 0 instructions: 12000000 cycles: 6940928 heartbeat IPC: 1.53591 cumulative IPC: 1.72888 (Simulation time: 0 hr 30 min 24 sec) 
Heartbeat CPU 0 instructions: 13000002 cycles: 7588116 heartbeat IPC: 1.54515 cumulative IPC: 1.71321 (Simulation time: 0 hr 32 min 55 sec) 
Heartbeat CPU 0 instructions: 14000000 cycles: 8238618 heartbeat IPC: 1.53727 cumulative IPC: 1.69931 (Simulation time: 0 hr 34 min 53 sec) 
Heartbeat CPU 0 instructions: 15000000 cycles: 8892140 heartbeat IPC: 1.53017 cumulative IPC: 1.68688 (Simulation time: 0 hr 36 min 56 sec) 
Heartbeat CPU 0 instructions: 16000000 cycles: 9462749 heartbeat IPC: 1.75251 cumulative IPC: 1.69084 (Simulation time: 0 hr 39 min 34 sec) 
Heartbeat CPU 0 instructions: 17000000 cycles: 10044889 heartbeat IPC: 1.7178 cumulative IPC: 1.6924 (Simulation time: 0 hr 42 min 15 sec) 
Heartbeat CPU 0 instructions: 18000000 cycles: 10616503 heartbeat IPC: 1.74943 cumulative IPC: 1.69547 (Simulation time: 0 hr 44 min 54 sec) 
Heartbeat CPU 0 instructions: 19000002 cycles: 11185445 heartbeat IPC: 1.75765 cumulative IPC: 1.69864 (Simulation time: 0 hr 47 min 19 sec) 
Heartbeat CPU 0 instructions: 20000000 cycles: 11733344 heartbeat IPC: 1.82515 cumulative IPC: 1.70454 (Simulation time: 0 hr 50 min 8 sec) 
Heartbeat CPU 0 instructions: 21000000 cycles: 12281725 heartbeat IPC: 1.82355 cumulative IPC: 1.70986 (Simulation time: 0 hr 52 min 17 sec) 
Heartbeat CPU 0 instructions: 22000001 cycles: 12834921 heartbeat IPC: 1.80768 cumulative IPC: 1.71407 (Simulation time: 0 hr 54 min 53 sec) 
Heartbeat CPU 0 instructions: 23000000 cycles: 13416622 heartbeat IPC: 1.71909 cumulative IPC: 1.71429 (Simulation time: 0 hr 57 min 27 sec) 
Heartbeat CPU 0 instructions: 24000000 cycles: 13986516 heartbeat IPC: 1.75471 cumulative IPC: 1.71594 (Simulation time: 0 hr 59 min 53 sec) 
Heartbeat CPU 0 instructions: 25000000 cycles: 14549424 heartbeat IPC: 1.77649 cumulative IPC: 1.71828 (Simulation time: 1 hr 2 min 26 sec) 
Heartbeat CPU 0 instructions: 26000001 cycles: 15119101 heartbeat IPC: 1.75538 cumulative IPC: 1.71968 (Simulation time: 1 hr 5 min 2 sec) 
Heartbeat CPU 0 instructions: 27000001 cycles: 15685909 heartbeat IPC: 1.76427 cumulative IPC: 1.72129 (Simulation time: 1 hr 8 min 21 sec) 
Heartbeat CPU 0 instructions: 28000000 cycles: 16255267 heartbeat IPC: 1.75636 cumulative IPC: 1.72252 (Simulation time: 1 hr 11 min 6 sec) 
Heartbeat CPU 0 instructions: 29000000 cycles: 16841826 heartbeat IPC: 1.70486 cumulative IPC: 1.7219 (Simulation time: 1 hr 13 min 26 sec) 
Heartbeat CPU 0 instructions: 30000000 cycles: 17412784 heartbeat IPC: 1.75144 cumulative IPC: 1.72287 (Simulation time: 1 hr 15 min 56 sec) 
Heartbeat CPU 0 instructions: 31000000 cycles: 17988530 heartbeat IPC: 1.73688 cumulative IPC: 1.72332 (Simulation time: 1 hr 18 min 44 sec) 
Heartbeat CPU 0 instructions: 32000000 cycles: 18558475 heartbeat IPC: 1.75456 cumulative IPC: 1.72428 (Simulation time: 1 hr 20 min 58 sec) 
Heartbeat CPU 0 instructions: 33000000 cycles: 19117242 heartbeat IPC: 1.78965 cumulative IPC: 1.72619 (Simulation time: 1 hr 23 min 24 sec) 
Heartbeat CPU 0 instructions: 34000001 cycles: 19670027 heartbeat IPC: 1.80902 cumulative IPC: 1.72852 (Simulation time: 1 hr 25 min 32 sec) 
Heartbeat CPU 0 instructions: 35000001 cycles: 20251203 heartbeat IPC: 1.72065 cumulative IPC: 1.72829 (Simulation time: 1 hr 27 min 53 sec) 
Heartbeat CPU 0 instructions: 36000000 cycles: 20807124 heartbeat IPC: 1.79881 cumulative IPC: 1.73018 (Simulation time: 1 hr 30 min 25 sec) 
Heartbeat CPU 0 instructions: 37000001 cycles: 21379416 heartbeat IPC: 1.74736 cumulative IPC: 1.73064 (Simulation time: 1 hr 32 min 42 sec) 
Heartbeat CPU 0 instructions: 38000001 cycles: 21940089 heartbeat IPC: 1.78357 cumulative IPC: 1.73199 (Simulation time: 1 hr 34 min 55 sec) 
Heartbeat CPU 0 instructions: 39000001 cycles: 22553094 heartbeat IPC: 1.63131 cumulative IPC: 1.72925 (Simulation time: 1 hr 37 min 51 sec) 
Heartbeat CPU 0 instructions: 40000000 cycles: 23202096 heartbeat IPC: 1.54083 cumulative IPC: 1.72398 (Simulation time: 1 hr 40 min 9 sec) 
Heartbeat CPU 0 instructions: 41000001 cycles: 23851051 heartbeat IPC: 1.54094 cumulative IPC: 1.719 (Simulation time: 1 hr 42 min 16 sec) 
Heartbeat CPU 0 instructions: 42000001 cycles: 24497965 heartbeat IPC: 1.5458 cumulative IPC: 1.71443 (Simulation time: 1 hr 44 min 22 sec) 
Heartbeat CPU 0 instructions: 43000000 cycles: 25166617 heartbeat IPC: 1.49554 cumulative IPC: 1.70861 (Simulation time: 1 hr 46 min 32 sec) 
Heartbeat CPU 0 instructions: 44000000 cycles: 25730494 heartbeat IPC: 1.77344 cumulative IPC: 1.71003 (Simulation time: 1 hr 48 min 52 sec) 
Heartbeat CPU 0 instructions: 45000000 cycles: 26294373 heartbeat IPC: 1.77343 cumulative IPC: 1.71139 (Simulation time: 1 hr 51 min 22 sec) 
Heartbeat CPU 0 instructions: 46000000 cycles: 26840659 heartbeat IPC: 1.83054 cumulative IPC: 1.71382 (Simulation time: 1 hr 53 min 43 sec) 
Heartbeat CPU 0 instructions: 47000000 cycles: 27386958 heartbeat IPC: 1.8305 cumulative IPC: 1.71615 (Simulation time: 1 hr 56 min 2 sec) 
Heartbeat CPU 0 instructions: 48000000 cycles: 27938683 heartbeat IPC: 1.8125 cumulative IPC: 1.71805 (Simulation time: 1 hr 58 min 6 sec) 
Heartbeat CPU 0 instructions: 49000002 cycles: 28519667 heartbeat IPC: 1.72122 cumulative IPC: 1.71811 (Simulation time: 2 hr 0 min 29 sec) 
Heartbeat CPU 0 instructions: 50000000 cycles: 29089749 heartbeat IPC: 1.75413 cumulative IPC: 1.71882 (Simulation time: 2 hr 2 min 43 sec) 

Warmup complete CPU 0 instructions: 50000002 cycles: 29089750 (Simulation time: 2 hr 2 min 43 sec) 

Heartbeat CPU 0 instructions: 51000003 cycles: 32018130 heartbeat IPC: 0.341487 cumulative IPC: 0.341486 (Simulation time: 2 hr 5 min 43 sec) 
Heartbeat CPU 0 instructions: 52000000 cycles: 34923738 heartbeat IPC: 0.344161 cumulative IPC: 0.342818 (Simulation time: 2 hr 8 min 19 sec) 
Heartbeat CPU 0 instructions: 53000003 cycles: 37854790 heartbeat IPC: 0.341175 cumulative IPC: 0.342269 (Simulation time: 2 hr 10 min 47 sec) 
Heartbeat CPU 0 instructions: 54000001 cycles: 40748726 heartbeat IPC: 0.345549 cumulative IPC: 0.343083 (Simulation time: 2 hr 13 min 32 sec) 
Heartbeat CPU 0 instructions: 55000001 cycles: 43820290 heartbeat IPC: 0.325567 cumulative IPC: 0.339431 (Simulation time: 2 hr 16 min 37 sec) 
Heartbeat CPU 0 instructions: 56000000 cycles: 46733985 heartbeat IPC: 0.343206 cumulative IPC: 0.340054 (Simulation time: 2 hr 19 min 44 sec) 
Heartbeat CPU 0 instructions: 57000003 cycles: 49637983 heartbeat IPC: 0.344354 cumulative IPC: 0.340662 (Simulation time: 2 hr 22 min 37 sec) 
Heartbeat CPU 0 instructions: 58000001 cycles: 52765474 heartbeat IPC: 0.319744 cumulative IPC: 0.337899 (Simulation time: 2 hr 25 min 23 sec) 
Heartbeat CPU 0 instructions: 59000001 cycles: 56179882 heartbeat IPC: 0.292877 cumulative IPC: 0.332224 (Simulation time: 2 hr 28 min 35 sec) 
Heartbeat CPU 0 instructions: 60000000 cycles: 59300627 heartbeat IPC: 0.320436 cumulative IPC: 0.331007 (Simulation time: 2 hr 31 min 44 sec) 
Heartbeat CPU 0 instructions: 61000001 cycles: 62504613 heartbeat IPC: 0.312112 cumulative IPC: 0.329195 (Simulation time: 2 hr 34 min 16 sec) 
Heartbeat CPU 0 instructions: 62000000 cycles: 66029533 heartbeat IPC: 0.283694 cumulative IPC: 0.324853 (Simulation time: 2 hr 36 min 47 sec) 
Heartbeat CPU 0 instructions: 63000001 cycles: 68992956 heartbeat IPC: 0.337448 cumulative IPC: 0.325788 (Simulation time: 2 hr 39 min 1 sec) 
Heartbeat CPU 0 instructions: 64000000 cycles: 71935871 heartbeat IPC: 0.339799 cumulative IPC: 0.326751 (Simulation time: 2 hr 41 min 33 sec) 
Heartbeat CPU 0 instructions: 65000001 cycles: 74862428 heartbeat IPC: 0.341699 cumulative IPC: 0.327706 (Simulation time: 2 hr 44 min 1 sec) 
Heartbeat CPU 0 instructions: 66000002 cycles: 79163608 heartbeat IPC: 0.232495 cumulative IPC: 0.319528 (Simulation time: 2 hr 46 min 48 sec) 
Heartbeat CPU 0 instructions: 67000001 cycles: 80923444 heartbeat IPC: 0.568234 cumulative IPC: 0.327972 (Simulation time: 2 hr 49 min 59 sec) 
Heartbeat CPU 0 instructions: 68000000 cycles: 82052200 heartbeat IPC: 0.88593 cumulative IPC: 0.339863 (Simulation time: 2 hr 52 min 9 sec) 
Heartbeat CPU 0 instructions: 69000003 cycles: 83194351 heartbeat IPC: 0.875544 cumulative IPC: 0.351172 (Simulation time: 2 hr 54 min 49 sec) 
Heartbeat CPU 0 instructions: 70000000 cycles: 84314597 heartbeat IPC: 0.892658 cumulative IPC: 0.362156 (Simulation time: 2 hr 57 min 41 sec) 
Heartbeat CPU 0 instructions: 71000001 cycles: 85493466 heartbeat IPC: 0.848272 cumulative IPC: 0.372316 (Simulation time: 2 hr 59 min 55 sec) 
Heartbeat CPU 0 instructions: 72000000 cycles: 88959102 heartbeat IPC: 0.288547 cumulative IPC: 0.367467 (Simulation time: 3 hr 3 min 22 sec) 
Heartbeat CPU 0 instructions: 73000000 cycles: 92482121 heartbeat IPC: 0.283847 cumulative IPC: 0.36282 (Simulation time: 3 hr 5 min 55 sec) 
Heartbeat CPU 0 instructions: 74000001 cycles: 96013756 heartbeat IPC: 0.283155 cumulative IPC: 0.358616 (Simulation time: 3 hr 9 min 25 sec) 
Heartbeat CPU 0 instructions: 75000001 cycles: 99066297 heartbeat IPC: 0.327596 cumulative IPC: 0.357263 (Simulation time: 3 hr 13 min 4 sec) 
Heartbeat CPU 0 instructions: 76000000 cycles: 101967861 heartbeat IPC: 0.344641 cumulative IPC: 0.35676 (Simulation time: 3 hr 16 min 2 sec) 
Heartbeat CPU 0 instructions: 77000000 cycles: 104913170 heartbeat IPC: 0.339523 cumulative IPC: 0.35609 (Simulation time: 3 hr 18 min 37 sec) 
Heartbeat CPU 0 instructions: 78000001 cycles: 107853335 heartbeat IPC: 0.340117 cumulative IPC: 0.355494 (Simulation time: 3 hr 21 min 25 sec) 
Heartbeat CPU 0 instructions: 79000001 cycles: 110788494 heartbeat IPC: 0.340697 cumulative IPC: 0.354963 (Simulation time: 3 hr 24 min 29 sec) 
Heartbeat CPU 0 instructions: 80000000 cycles: 113697677 heartbeat IPC: 0.343739 cumulative IPC: 0.354577 (Simulation time: 3 hr 27 min 57 sec) 
Heartbeat CPU 0 instructions: 81000002 cycles: 116699987 heartbeat IPC: 0.333078 cumulative IPC: 0.35384 (Simulation time: 3 hr 31 min 2 sec) 
Heartbeat CPU 0 instructions: 82000001 cycles: 119618792 heartbeat IPC: 0.342606 cumulative IPC: 0.353478 (Simulation time: 3 hr 34 min 17 sec) 
Heartbeat CPU 0 instructions: 83000002 cycles: 122588498 heartbeat IPC: 0.336734 cumulative IPC: 0.352946 (Simulation time: 3 hr 37 min 43 sec) 
Heartbeat CPU 0 instructions: 84000000 cycles: 125576275 heartbeat IPC: 0.334696 cumulative IPC: 0.352381 (Simulation time: 3 hr 40 min 45 sec) 
Heartbeat CPU 0 instructions: 85000002 cycles: 129021576 heartbeat IPC: 0.290251 cumulative IPC: 0.350239 (Simulation time: 3 hr 43 min 39 sec) 
Heartbeat CPU 0 instructions: 86000002 cycles: 132467492 heartbeat IPC: 0.290199 cumulative IPC: 0.348237 (Simulation time: 3 hr 46 min 50 sec) 
Heartbeat CPU 0 instructions: 87000000 cycles: 135640076 heartbeat IPC: 0.3152 cumulative IPC: 0.347254 (Simulation time: 3 hr 50 min 30 sec) 
Heartbeat CPU 0 instructions: 88000000 cycles: 138791228 heartbeat IPC: 0.317344 cumulative IPC: 0.346395 (Simulation time: 3 hr 53 min 48 sec) 
Heartbeat CPU 0 instructions: 89000002 cycles: 142035098 heartbeat IPC: 0.308274 cumulative IPC: 0.3453 (Simulation time: 3 hr 57 min 15 sec) 
Heartbeat CPU 0 instructions: 90000001 cycles: 144943724 heartbeat IPC: 0.343805 cumulative IPC: 0.345262 (Simulation time: 4 hr 0 min 57 sec) 
Heartbeat CPU 0 instructions: 91000001 cycles: 147903043 heartbeat IPC: 0.337916 cumulative IPC: 0.345079 (Simulation time: 4 hr 4 min 6 sec) 
Heartbeat CPU 0 instructions: 92000000 cycles: 150948389 heartbeat IPC: 0.32837 cumulative IPC: 0.344662 (Simulation time: 4 hr 7 min 25 sec) 
Heartbeat CPU 0 instructions: 93000000 cycles: 153890124 heartbeat IPC: 0.339935 cumulative IPC: 0.34455 (Simulation time: 4 hr 10 min 51 sec) 
Heartbeat CPU 0 instructions: 94000000 cycles: 158632858 heartbeat IPC: 0.210849 cumulative IPC: 0.339655 (Simulation time: 4 hr 14 min 59 sec) 
Heartbeat CPU 0 instructions: 95000000 cycles: 159834109 heartbeat IPC: 0.832465 cumulative IPC: 0.344183 (Simulation time: 4 hr 17 min 31 sec) 
Heartbeat CPU 0 instructions: 96000000 cycles: 160977092 heartbeat IPC: 0.874904 cumulative IPC: 0.348783 (Simulation time: 4 hr 19 min 52 sec) 
Heartbeat CPU 0 instructions: 97000002 cycles: 162095795 heartbeat IPC: 0.893894 cumulative IPC: 0.353367 (Simulation time: 4 hr 22 min 8 sec) 
Heartbeat CPU 0 instructions: 98000001 cycles: 163237732 heartbeat IPC: 0.875704 cumulative IPC: 0.357814 (Simulation time: 4 hr 24 min 27 sec) 
Heartbeat CPU 0 instructions: 99000002 cycles: 165121000 heartbeat IPC: 0.530992 cumulative IPC: 0.360211 (Simulation time: 4 hr 26 min 49 sec) 
Heartbeat CPU 0 instructions: 100000000 cycles: 168677095 heartbeat IPC: 0.281207 cumulative IPC: 0.358199 (Simulation time: 4 hr 30 min 24 sec) 
Heartbeat CPU 0 instructions: 101000002 cycles: 171940895 heartbeat IPC: 0.306392 cumulative IPC: 0.357015 (Simulation time: 4 hr 33 min 27 sec) 
Heartbeat CPU 0 instructions: 102000001 cycles: 175082783 heartbeat IPC: 0.31828 cumulative IPC: 0.356181 (Simulation time: 4 hr 36 min 29 sec) 
Heartbeat CPU 0 instructions: 103000000 cycles: 178016374 heartbeat IPC: 0.340879 cumulative IPC: 0.35588 (Simulation time: 4 hr 38 min 52 sec) 
Heartbeat CPU 0 instructions: 104000000 cycles: 180967207 heartbeat IPC: 0.338887 cumulative IPC: 0.35555 (Simulation time: 4 hr 41 min 32 sec) 
Heartbeat CPU 0 instructions: 105000001 cycles: 183895667 heartbeat IPC: 0.341477 cumulative IPC: 0.355284 (Simulation time: 4 hr 43 min 56 sec) 
Heartbeat CPU 0 instructions: 106000000 cycles: 186958655 heartbeat IPC: 0.326478 cumulative IPC: 0.354725 (Simulation time: 4 hr 46 min 58 sec) 
Heartbeat CPU 0 instructions: 107000002 cycles: 189895768 heartbeat IPC: 0.340471 cumulative IPC: 0.354464 (Simulation time: 4 hr 49 min 25 sec) 
Heartbeat CPU 0 instructions: 108000000 cycles: 192821027 heartbeat IPC: 0.341849 cumulative IPC: 0.354239 (Simulation time: 4 hr 52 min 52 sec) 
Heartbeat CPU 0 instructions: 109000002 cycles: 195738532 heartbeat IPC: 0.342759 cumulative IPC: 0.354038 (Simulation time: 4 hr 55 min 22 sec) 
Heartbeat CPU 0 instructions: 110000001 cycles: 198704711 heartbeat IPC: 0.337134 cumulative IPC: 0.353742 (Simulation time: 4 hr 58 min 28 sec) 
Heartbeat CPU 0 instructions: 111000001 cycles: 201836111 heartbeat IPC: 0.319346 cumulative IPC: 0.353119 (Simulation time: 5 hr 1 min 47 sec) 
Heartbeat CPU 0 instructions: 112000000 cycles: 205293605 heartbeat IPC: 0.289227 cumulative IPC: 0.351865 (Simulation time: 5 hr 5 min 8 sec) 
Heartbeat CPU 0 instructions: 113000002 cycles: 208483919 heartbeat IPC: 0.313449 cumulative IPC: 0.351182 (Simulation time: 5 hr 8 min 5 sec) 
Heartbeat CPU 0 instructions: 114000001 cycles: 211963726 heartbeat IPC: 0.287372 cumulative IPC: 0.349968 (Simulation time: 5 hr 10 min 42 sec) 
Heartbeat CPU 0 instructions: 115000001 cycles: 215220828 heartbeat IPC: 0.307021 cumulative IPC: 0.349216 (Simulation time: 5 hr 13 min 30 sec) 
Heartbeat CPU 0 instructions: 116000000 cycles: 218220094 heartbeat IPC: 0.333415 cumulative IPC: 0.348966 (Simulation time: 5 hr 16 min 26 sec) 
Heartbeat CPU 0 instructions: 117000001 cycles: 221166753 heartbeat IPC: 0.339368 cumulative IPC: 0.348818 (Simulation time: 5 hr 18 min 58 sec) 
Heartbeat CPU 0 instructions: 118000000 cycles: 224213496 heartbeat IPC: 0.328219 cumulative IPC: 0.348497 (Simulation time: 5 hr 22 min 5 sec) 
Heartbeat CPU 0 instructions: 119000001 cycles: 227175731 heartbeat IPC: 0.337583 cumulative IPC: 0.348334 (Simulation time: 5 hr 25 min 0 sec) 
Heartbeat CPU 0 instructions: 120000000 cycles: 230129855 heartbeat IPC: 0.33851 cumulative IPC: 0.348189 (Simulation time: 5 hr 27 min 38 sec) 
Heartbeat CPU 0 instructions: 121000003 cycles: 233093197 heartbeat IPC: 0.337458 cumulative IPC: 0.348033 (Simulation time: 5 hr 30 min 45 sec) 
Heartbeat CPU 0 instructions: 122000000 cycles: 237873938 heartbeat IPC: 0.209172 cumulative IPC: 0.344854 (Simulation time: 5 hr 34 min 29 sec) 
Heartbeat CPU 0 instructions: 123000001 cycles: 239049409 heartbeat IPC: 0.850724 cumulative IPC: 0.347686 (Simulation time: 5 hr 37 min 5 sec) 
Heartbeat CPU 0 instructions: 124000000 cycles: 240171395 heartbeat IPC: 0.891276 cumulative IPC: 0.350575 (Simulation time: 5 hr 39 min 0 sec) 
Heartbeat CPU 0 instructions: 125000000 cycles: 241313064 heartbeat IPC: 0.875911 cumulative IPC: 0.353401 (Simulation time: 5 hr 41 min 46 sec) 
Heartbeat CPU 0 instructions: 126000001 cycles: 242568596 heartbeat IPC: 0.796476 cumulative IPC: 0.356007 (Simulation time: 5 hr 44 min 27 sec) 
Heartbeat CPU 0 instructions: 127000000 cycles: 244592410 heartbeat IPC: 0.494116 cumulative IPC: 0.357304 (Simulation time: 5 hr 46 min 54 sec) 
Heartbeat CPU 0 instructions: 128000000 cycles: 248150462 heartbeat IPC: 0.281053 cumulative IPC: 0.356066 (Simulation time: 5 hr 49 min 29 sec) 
Heartbeat CPU 0 instructions: 129000001 cycles: 251405699 heartbeat IPC: 0.307198 cumulative IPC: 0.35535 (Simulation time: 5 hr 52 min 15 sec) 
Heartbeat CPU 0 instructions: 130000000 cycles: 254334970 heartbeat IPC: 0.341382 cumulative IPC: 0.355168 (Simulation time: 5 hr 54 min 44 sec) 
Heartbeat CPU 0 instructions: 131000001 cycles: 257291827 heartbeat IPC: 0.338197 cumulative IPC: 0.354949 (Simulation time: 5 hr 57 min 16 sec) 
Heartbeat CPU 0 instructions: 132000000 cycles: 260307155 heartbeat IPC: 0.331639 cumulative IPC: 0.354645 (Simulation time: 6 hr 0 min 3 sec) 
Heartbeat CPU 0 instructions: 133000000 cycles: 263327799 heartbeat IPC: 0.331055 cumulative IPC: 0.35434 (Simulation time: 6 hr 2 min 35 sec) 
Heartbeat CPU 0 instructions: 134000000 cycles: 266283545 heartbeat IPC: 0.338324 cumulative IPC: 0.354141 (Simulation time: 6 hr 4 min 49 sec) 
Heartbeat CPU 0 instructions: 135000000 cycles: 269223827 heartbeat IPC: 0.340103 cumulative IPC: 0.353969 (Simulation time: 6 hr 7 min 27 sec) 
Heartbeat CPU 0 instructions: 136000000 cycles: 272163633 heartbeat IPC: 0.340158 cumulative IPC: 0.353802 (Simulation time: 6 hr 10 min 7 sec) 
Heartbeat CPU 0 instructions: 137000000 cycles: 275096421 heartbeat IPC: 0.340972 cumulative IPC: 0.353649 (Simulation time: 6 hr 12 min 52 sec) 
Heartbeat CPU 0 instructions: 138000001 cycles: 278480588 heartbeat IPC: 0.295494 cumulative IPC: 0.35286 (Simulation time: 6 hr 15 min 16 sec) 
Heartbeat CPU 0 instructions: 139000000 cycles: 281335819 heartbeat IPC: 0.350234 cumulative IPC: 0.35283 (Simulation time: 6 hr 17 min 35 sec) 
Heartbeat CPU 0 instructions: 140000000 cycles: 284801294 heartbeat IPC: 0.288561 cumulative IPC: 0.351959 (Simulation time: 6 hr 19 min 49 sec) 
Heartbeat CPU 0 instructions: 141000002 cycles: 288281868 heartbeat IPC: 0.287309 cumulative IPC: 0.351091 (Simulation time: 6 hr 22 min 3 sec) 
Heartbeat CPU 0 instructions: 142000001 cycles: 291718884 heartbeat IPC: 0.29095 cumulative IPC: 0.350304 (Simulation time: 6 hr 24 min 15 sec) 
Heartbeat CPU 0 instructions: 143000001 cycles: 294730445 heartbeat IPC: 0.332054 cumulative IPC: 0.350097 (Simulation time: 6 hr 26 min 17 sec) 
Heartbeat CPU 0 instructions: 144000000 cycles: 297781073 heartbeat IPC: 0.327801 cumulative IPC: 0.349844 (Simulation time: 6 hr 28 min 25 sec) 
Heartbeat CPU 0 instructions: 145000001 cycles: 300730468 heartbeat IPC: 0.339053 cumulative IPC: 0.349727 (Simulation time: 6 hr 30 min 21 sec) 
Heartbeat CPU 0 instructions: 146000000 cycles: 303709392 heartbeat IPC: 0.335691 cumulative IPC: 0.349574 (Simulation time: 6 hr 32 min 14 sec) 
Heartbeat CPU 0 instructions: 147000001 cycles: 306684166 heartbeat IPC: 0.33616 cumulative IPC: 0.349431 (Simulation time: 6 hr 34 min 6 sec) 
Heartbeat CPU 0 instructions: 148000000 cycles: 309646419 heartbeat IPC: 0.337581 cumulative IPC: 0.349306 (Simulation time: 6 hr 35 min 57 sec) 
Heartbeat CPU 0 instructions: 149000002 cycles: 312584670 heartbeat IPC: 0.340339 cumulative IPC: 0.349213 (Simulation time: 6 hr 37 min 43 sec) 
Heartbeat CPU 0 instructions: 150000001 cycles: 317373441 heartbeat IPC: 0.208822 cumulative IPC: 0.346881 (Simulation time: 6 hr 39 min 52 sec) 
Finished CPU 0 instructions: 100000000 cycles: 288283694 cummulative IPC: 0.346881 (Simulation time: 6 hr 39 min 52 sec) 

ChampSim completed all CPUs

Region of Interest Statistics

CPU 0 cummulative IPC: 0.346881 instructions: 100000000 cycles: 288283694
LLC TOTAL     ACCESS:    4945851  HIT:    2987060  MISS:    1958791
LLC LOAD      ACCESS:    2297617  HIT:    1480065  MISS:     817552
LLC RFO       ACCESS:      24965  HIT:       6215  MISS:      18750
LLC PREFETCH  ACCESS:    2541967  HIT:    1481004  MISS:    1060963
LLC WRITEBACK ACCESS:      81302  HIT:      19776  MISS:      61526
