
*** ChampSim Multicore Out-of-Order Simulator ***

Warmup Instructions: 50000000
Simulation Instructions: 100000000
Configuration: 2
Number of CPUs: 1
LLC sets: 2048
LLC ways: 16
Off-chip DRAM Channels: 1 Width: 64-bit Data Rate: 1600 MT/s

CPU 0 runs /datasets/cs240c-wi22-a00-public/data/Assignment2-gz/GemsFDTD_712B.trace.gz
CPU 0 L1D next line prefetcher
CPU 0 L2C IP-based stride prefetcher
Heartbeat CPU 0 instructions: 1000003 cycles: 634340 heartbeat IPC: 1.57645 cumulative IPC: 1.57645 (Simulation time: 0 hr 2 min 59 sec) 
Heartbeat CPU 0 instructions: 2000000 cycles: 1268320 heartbeat IPC: 1.57733 cumulative IPC: 1.57689 (Simulation time: 0 hr 6 min 5 sec) 
Heartbeat CPU 0 instructions: 3000000 cycles: 1902412 heartbeat IPC: 1.57706 cumulative IPC: 1.57695 (Simulation time: 0 hr 9 min 30 sec) 
Heartbeat CPU 0 instructions: 4000000 cycles: 2536216 heartbeat IPC: 1.57777 cumulative IPC: 1.57715 (Simulation time: 0 hr 12 min 42 sec) 
Heartbeat CPU 0 instructions: 5000003 cycles: 3170497 heartbeat IPC: 1.57659 cumulative IPC: 1.57704 (Simulation time: 0 hr 15 min 57 sec) 
Heartbeat CPU 0 instructions: 6000002 cycles: 3804504 heartbeat IPC: 1.57727 cumulative IPC: 1.57708 (Simulation time: 0 hr 19 min 26 sec) 
Heartbeat CPU 0 instructions: 7000001 cycles: 4438779 heartbeat IPC: 1.5766 cumulative IPC: 1.57701 (Simulation time: 0 hr 22 min 48 sec) 
Heartbeat CPU 0 instructions: 8000000 cycles: 5072732 heartbeat IPC: 1.5774 cumulative IPC: 1.57706 (Simulation time: 0 hr 25 min 51 sec) 
Heartbeat CPU 0 instructions: 9000001 cycles: 5707014 heartbeat IPC: 1.57659 cumulative IPC: 1.57701 (Simulation time: 0 hr 29 min 24 sec) 
Heartbeat CPU 0 instructions: 10000002 cycles: 6340916 heartbeat IPC: 1.57753 cumulative IPC: 1.57706 (Simulation time: 0 hr 32 min 22 sec) 
Heartbeat CPU 0 instructions: 11000002 cycles: 6974820 heartbeat IPC: 1.57753 cumulative IPC: 1.5771 (Simulation time: 0 hr 35 min 38 sec) 
Heartbeat CPU 0 instructions: 12000000 cycles: 7608862 heartbeat IPC: 1.57718 cumulative IPC: 1.57711 (Simulation time: 0 hr 39 min 6 sec) 
Heartbeat CPU 0 instructions: 13000000 cycles: 8243032 heartbeat IPC: 1.57686 cumulative IPC: 1.57709 (Simulation time: 0 hr 42 min 31 sec) 
Heartbeat CPU 0 instructions: 14000001 cycles: 8877316 heartbeat IPC: 1.57658 cumulative IPC: 1.57705 (Simulation time: 0 hr 45 min 47 sec) 
Heartbeat CPU 0 instructions: 15000001 cycles: 9511569 heartbeat IPC: 1.57666 cumulative IPC: 1.57703 (Simulation time: 0 hr 49 min 18 sec) 
Heartbeat CPU 0 instructions: 16000000 cycles: 10145504 heartbeat IPC: 1.57745 cumulative IPC: 1.57705 (Simulation time: 0 hr 52 min 47 sec) 
Heartbeat CPU 0 instructions: 17000000 cycles: 10779607 heartbeat IPC: 1.57703 cumulative IPC: 1.57705 (Simulation time: 0 hr 56 min 34 sec) 
Heartbeat CPU 0 instructions: 18000003 cycles: 11413577 heartbeat IPC: 1.57737 cumulative IPC: 1.57707 (Simulation time: 1 hr 0 min 10 sec) 
Heartbeat CPU 0 instructions: 19000000 cycles: 12047700 heartbeat IPC: 1.57698 cumulative IPC: 1.57706 (Simulation time: 1 hr 3 min 25 sec) 
Heartbeat CPU 0 instructions: 20000000 cycles: 12681865 heartbeat IPC: 1.57688 cumulative IPC: 1.57706 (Simulation time: 1 hr 6 min 33 sec) 
Heartbeat CPU 0 instructions: 21000002 cycles: 13316144 heartbeat IPC: 1.5766 cumulative IPC: 1.57703 (Simulation time: 1 hr 10 min 27 sec) 
Heartbeat CPU 0 instructions: 22000000 cycles: 13950092 heartbeat IPC: 1.57741 cumulative IPC: 1.57705 (Simulation time: 1 hr 14 min 17 sec) 
Heartbeat CPU 0 instructions: 23000002 cycles: 14584166 heartbeat IPC: 1.57711 cumulative IPC: 1.57705 (Simulation time: 1 hr 17 min 3 sec) 
Heartbeat CPU 0 instructions: 24000000 cycles: 15218171 heartbeat IPC: 1.57727 cumulative IPC: 1.57706 (Simulation time: 1 hr 20 min 22 sec) 
Heartbeat CPU 0 instructions: 25000000 cycles: 15852333 heartbeat IPC: 1.57688 cumulative IPC: 1.57705 (Simulation time: 1 hr 23 min 31 sec) 
Heartbeat CPU 0 instructions: 26000002 cycles: 16486523 heartbeat IPC: 1.57682 cumulative IPC: 1.57705 (Simulation time: 1 hr 26 min 53 sec) 
Heartbeat CPU 0 instructions: 27000002 cycles: 17120715 heartbeat IPC: 1.57681 cumulative IPC: 1.57704 (Simulation time: 1 hr 29 min 50 sec) 
Heartbeat CPU 0 instructions: 28000000 cycles: 17754750 heartbeat IPC: 1.5772 cumulative IPC: 1.57704 (Simulation time: 1 hr 32 min 56 sec) 
Heartbeat CPU 0 instructions: 29000001 cycles: 18388913 heartbeat IPC: 1.57688 cumulative IPC: 1.57704 (Simulation time: 1 hr 35 min 49 sec) 
Heartbeat CPU 0 instructions: 30000000 cycles: 19022881 heartbeat IPC: 1.57737 cumulative IPC: 1.57705 (Simulation time: 1 hr 39 min 56 sec) 
Heartbeat CPU 0 instructions: 31000001 cycles: 19656912 heartbeat IPC: 1.57721 cumulative IPC: 1.57705 (Simulation time: 1 hr 43 min 17 sec) 
Heartbeat CPU 0 instructions: 32000000 cycles: 20291038 heartbeat IPC: 1.57697 cumulative IPC: 1.57705 (Simulation time: 1 hr 46 min 24 sec) 
Heartbeat CPU 0 instructions: 33000003 cycles: 20925364 heartbeat IPC: 1.57648 cumulative IPC: 1.57703 (Simulation time: 1 hr 49 min 39 sec) 
Heartbeat CPU 0 instructions: 34000001 cycles: 21559434 heartbeat IPC: 1.57711 cumulative IPC: 1.57704 (Simulation time: 1 hr 52 min 36 sec) 
Heartbeat CPU 0 instructions: 35000002 cycles: 22193525 heartbeat IPC: 1.57706 cumulative IPC: 1.57704 (Simulation time: 1 hr 55 min 38 sec) 
Heartbeat CPU 0 instructions: 36000000 cycles: 22827407 heartbeat IPC: 1.57758 cumulative IPC: 1.57705 (Simulation time: 1 hr 58 min 23 sec) 
Heartbeat CPU 0 instructions: 37000000 cycles: 23461494 heartbeat IPC: 1.57707 cumulative IPC: 1.57705 (Simulation time: 2 hr 1 min 10 sec) 
Heartbeat CPU 0 instructions: 38000003 cycles: 24095503 heartbeat IPC: 1.57727 cumulative IPC: 1.57706 (Simulation time: 2 hr 4 min 12 sec) 
Heartbeat CPU 0 instructions: 39000001 cycles: 24729800 heartbeat IPC: 1.57655 cumulative IPC: 1.57704 (Simulation time: 2 hr 7 min 16 sec) 
Heartbeat CPU 0 instructions: 40000000 cycles: 25363971 heartbeat IPC: 1.57686 cumulative IPC: 1.57704 (Simulation time: 2 hr 9 min 57 sec) 
Heartbeat CPU 0 instructions: 41000003 cycles: 25998251 heartbeat IPC: 1.5766 cumulative IPC: 1.57703 (Simulation time: 2 hr 13 min 4 sec) 
Heartbeat CPU 0 instructions: 42000000 cycles: 26632119 heartbeat IPC: 1.57761 cumulative IPC: 1.57704 (Simulation time: 2 hr 15 min 49 sec) 
Heartbeat CPU 0 instructions: 43000002 cycles: 27266094 heartbeat IPC: 1.57735 cumulative IPC: 1.57705 (Simulation time: 2 hr 18 min 30 sec) 
Heartbeat CPU 0 instructions: 44000000 cycles: 27900148 heartbeat IPC: 1.57715 cumulative IPC: 1.57705 (Simulation time: 2 hr 21 min 22 sec) 
Heartbeat CPU 0 instructions: 45000003 cycles: 28534394 heartbeat IPC: 1.57668 cumulative IPC: 1.57704 (Simulation time: 2 hr 24 min 0 sec) 
Heartbeat CPU 0 instructions: 46000002 cycles: 29168498 heartbeat IPC: 1.57703 cumulative IPC: 1.57704 (Simulation time: 2 hr 26 min 42 sec) 
Heartbeat CPU 0 instructions: 47000001 cycles: 29802726 heartbeat IPC: 1.57672 cumulative IPC: 1.57704 (Simulation time: 2 hr 29 min 24 sec) 
Heartbeat CPU 0 instructions: 48000000 cycles: 30436551 heartbeat IPC: 1.57772 cumulative IPC: 1.57705 (Simulation time: 2 hr 32 min 18 sec) 
Heartbeat CPU 0 instructions: 49000001 cycles: 31070718 heartbeat IPC: 1.57687 cumulative IPC: 1.57705 (Simulation time: 2 hr 35 min 4 sec) 
Heartbeat CPU 0 instructions: 50000000 cycles: 31704668 heartbeat IPC: 1.57741 cumulative IPC: 1.57705 (Simulation time: 2 hr 37 min 37 sec) 

Warmup complete CPU 0 instructions: 50000004 cycles: 31704669 (Simulation time: 2 hr 37 min 37 sec) 

Heartbeat CPU 0 instructions: 51000002 cycles: 33356204 heartbeat IPC: 0.605498 cumulative IPC: 0.605496 (Simulation time: 2 hr 40 min 29 sec) 
Heartbeat CPU 0 instructions: 52000000 cycles: 34997968 heartbeat IPC: 0.6091 cumulative IPC: 0.607293 (Simulation time: 2 hr 43 min 37 sec) 
Heartbeat CPU 0 instructions: 53000000 cycles: 36676231 heartbeat IPC: 0.595854 cumulative IPC: 0.603431 (Simulation time: 2 hr 47 min 11 sec) 
Heartbeat CPU 0 instructions: 54000000 cycles: 38299697 heartbeat IPC: 0.615966 cumulative IPC: 0.606517 (Simulation time: 2 hr 50 min 14 sec) 
Heartbeat CPU 0 instructions: 55000002 cycles: 39920464 heartbeat IPC: 0.616993 cumulative IPC: 0.608584 (Simulation time: 2 hr 53 min 11 sec) 
Heartbeat CPU 0 instructions: 56000000 cycles: 41572619 heartbeat IPC: 0.605269 cumulative IPC: 0.608029 (Simulation time: 2 hr 56 min 32 sec) 
Heartbeat CPU 0 instructions: 57000000 cycles: 43250979 heartbeat IPC: 0.59582 cumulative IPC: 0.606254 (Simulation time: 2 hr 59 min 58 sec) 
Heartbeat CPU 0 instructions: 58000001 cycles: 44903120 heartbeat IPC: 0.605276 cumulative IPC: 0.606131 (Simulation time: 3 hr 2 min 48 sec) 
Heartbeat CPU 0 instructions: 59000001 cycles: 46558293 heartbeat IPC: 0.604166 cumulative IPC: 0.605913 (Simulation time: 3 hr 5 min 42 sec) 
Heartbeat CPU 0 instructions: 60000000 cycles: 48214818 heartbeat IPC: 0.603673 cumulative IPC: 0.605688 (Simulation time: 3 hr 8 min 41 sec) 
Heartbeat CPU 0 instructions: 61000001 cycles: 49837981 heartbeat IPC: 0.616082 cumulative IPC: 0.606618 (Simulation time: 3 hr 12 min 12 sec) 
Heartbeat CPU 0 instructions: 62000003 cycles: 51459741 heartbeat IPC: 0.616615 cumulative IPC: 0.607439 (Simulation time: 3 hr 15 min 2 sec) 
Heartbeat CPU 0 instructions: 63000001 cycles: 53099740 heartbeat IPC: 0.609755 cumulative IPC: 0.607616 (Simulation time: 3 hr 18 min 17 sec) 
Heartbeat CPU 0 instructions: 64000000 cycles: 54751023 heartbeat IPC: 0.605589 cumulative IPC: 0.607471 (Simulation time: 3 hr 21 min 22 sec) 
Heartbeat CPU 0 instructions: 65000003 cycles: 56411689 heartbeat IPC: 0.60217 cumulative IPC: 0.607115 (Simulation time: 3 hr 24 min 32 sec) 
Heartbeat CPU 0 instructions: 66000000 cycles: 58038878 heartbeat IPC: 0.614555 cumulative IPC: 0.607575 (Simulation time: 3 hr 29 min 10 sec) 
Heartbeat CPU 0 instructions: 67000000 cycles: 59674233 heartbeat IPC: 0.611488 cumulative IPC: 0.607803 (Simulation time: 3 hr 33 min 7 sec) 
Heartbeat CPU 0 instructions: 68000000 cycles: 61300784 heartbeat IPC: 0.614798 cumulative IPC: 0.608188 (Simulation time: 3 hr 36 min 24 sec) 
Heartbeat CPU 0 instructions: 69000001 cycles: 62918625 heartbeat IPC: 0.618108 cumulative IPC: 0.608702 (Simulation time: 3 hr 39 min 50 sec) 
Heartbeat CPU 0 instructions: 70000002 cycles: 64580853 heartbeat IPC: 0.601603 cumulative IPC: 0.608343 (Simulation time: 3 hr 43 min 17 sec) 
Heartbeat CPU 0 instructions: 71000002 cycles: 66260453 heartbeat IPC: 0.59538 cumulative IPC: 0.607713 (Simulation time: 3 hr 47 min 37 sec) 
Heartbeat CPU 0 instructions: 72000000 cycles: 68085402 heartbeat IPC: 0.547959 cumulative IPC: 0.604716 (Simulation time: 3 hr 51 min 13 sec) 
Heartbeat CPU 0 instructions: 73000000 cycles: 69893134 heartbeat IPC: 0.553179 cumulative IPC: 0.602276 (Simulation time: 3 hr 54 min 38 sec) 
Heartbeat CPU 0 instructions: 74000001 cycles: 71717885 heartbeat IPC: 0.548021 cumulative IPC: 0.599802 (Simulation time: 3 hr 58 min 30 sec) 
Heartbeat CPU 0 instructions: 75000003 cycles: 73535180 heartbeat IPC: 0.550269 cumulative IPC: 0.59765 (Simulation time: 4 hr 2 min 8 sec) 
Heartbeat CPU 0 instructions: 76000000 cycles: 75333014 heartbeat IPC: 0.556223 cumulative IPC: 0.595943 (Simulation time: 4 hr 6 min 10 sec) 
Heartbeat CPU 0 instructions: 77000000 cycles: 77151080 heartbeat IPC: 0.550035 cumulative IPC: 0.594106 (Simulation time: 4 hr 10 min 8 sec) 
Heartbeat CPU 0 instructions: 78000001 cycles: 78959488 heartbeat IPC: 0.552973 cumulative IPC: 0.592532 (Simulation time: 4 hr 13 min 50 sec) 
Heartbeat CPU 0 instructions: 79000003 cycles: 80765625 heartbeat IPC: 0.553669 cumulative IPC: 0.591101 (Simulation time: 4 hr 18 min 10 sec) 
Heartbeat CPU 0 instructions: 80000000 cycles: 82581303 heartbeat IPC: 0.550757 cumulative IPC: 0.589662 (Simulation time: 4 hr 21 min 41 sec) 
Heartbeat CPU 0 instructions: 81000000 cycles: 84400194 heartbeat IPC: 0.549786 cumulative IPC: 0.588285 (Simulation time: 4 hr 25 min 1 sec) 
Heartbeat CPU 0 instructions: 82000000 cycles: 86211445 heartbeat IPC: 0.552105 cumulative IPC: 0.587083 (Simulation time: 4 hr 28 min 29 sec) 
Heartbeat CPU 0 instructions: 83000001 cycles: 88013758 heartbeat IPC: 0.554843 cumulative IPC: 0.586051 (Simulation time: 4 hr 32 min 19 sec) 
Heartbeat CPU 0 instructions: 84000000 cycles: 89826885 heartbeat IPC: 0.551533 cumulative IPC: 0.584974 (Simulation time: 4 hr 35 min 56 sec) 
Heartbeat CPU 0 instructions: 85000000 cycles: 91637428 heartbeat IPC: 0.55232 cumulative IPC: 0.583988 (Simulation time: 4 hr 39 min 22 sec) 
Heartbeat CPU 0 instructions: 86000000 cycles: 93438699 heartbeat IPC: 0.555164 cumulative IPC: 0.583147 (Simulation time: 4 hr 43 min 4 sec) 
Heartbeat CPU 0 instructions: 87000001 cycles: 95254792 heartbeat IPC: 0.550633 cumulative IPC: 0.582218 (Simulation time: 4 hr 46 min 28 sec) 
Heartbeat CPU 0 instructions: 88000000 cycles: 97060022 heartbeat IPC: 0.553945 cumulative IPC: 0.581437 (Simulation time: 4 hr 49 min 41 sec) 
Heartbeat CPU 0 instructions: 89000003 cycles: 98874310 heartbeat IPC: 0.551182 cumulative IPC: 0.580619 (Simulation time: 4 hr 53 min 16 sec) 
Heartbeat CPU 0 instructions: 90000000 cycles: 100681978 heartbeat IPC: 0.553197 cumulative IPC: 0.579901 (Simulation time: 4 hr 57 min 5 sec) 
Heartbeat CPU 0 instructions: 91000001 cycles: 102492955 heartbeat IPC: 0.552189 cumulative IPC: 0.579192 (Simulation time: 5 hr 0 min 14 sec) 
Heartbeat CPU 0 instructions: 92000000 cycles: 104309408 heartbeat IPC: 0.550523 cumulative IPC: 0.578475 (Simulation time: 5 hr 3 min 55 sec) 
Heartbeat CPU 0 instructions: 93000003 cycles: 106115127 heartbeat IPC: 0.553798 cumulative IPC: 0.577876 (Simulation time: 5 hr 7 min 19 sec) 
Heartbeat CPU 0 instructions: 94000002 cycles: 107923326 heartbeat IPC: 0.553036 cumulative IPC: 0.577286 (Simulation time: 5 hr 10 min 37 sec) 
Heartbeat CPU 0 instructions: 95000001 cycles: 109738342 heartbeat IPC: 0.550959 cumulative IPC: 0.576674 (Simulation time: 5 hr 14 min 11 sec) 
Heartbeat CPU 0 instructions: 96000000 cycles: 111546599 heartbeat IPC: 0.553018 cumulative IPC: 0.576138 (Simulation time: 5 hr 17 min 16 sec) 
Heartbeat CPU 0 instructions: 97000003 cycles: 113365478 heartbeat IPC: 0.549791 cumulative IPC: 0.575551 (Simulation time: 5 hr 20 min 47 sec) 
Heartbeat CPU 0 instructions: 98000000 cycles: 115179341 heartbeat IPC: 0.551308 cumulative IPC: 0.575025 (Simulation time: 5 hr 24 min 7 sec) 
Heartbeat CPU 0 instructions: 99000001 cycles: 116985304 heartbeat IPC: 0.553722 cumulative IPC: 0.574574 (Simulation time: 5 hr 27 min 49 sec) 
Heartbeat CPU 0 instructions: 100000000 cycles: 118804870 heartbeat IPC: 0.549581 cumulative IPC: 0.574051 (Simulation time: 5 hr 31 min 5 sec) 
Heartbeat CPU 0 instructions: 101000001 cycles: 120606852 heartbeat IPC: 0.554945 cumulative IPC: 0.573664 (Simulation time: 5 hr 34 min 25 sec) 
Heartbeat CPU 0 instructions: 102000002 cycles: 122415994 heartbeat IPC: 0.552749 cumulative IPC: 0.573247 (Simulation time: 5 hr 37 min 27 sec) 
Heartbeat CPU 0 instructions: 103000000 cycles: 124220869 heartbeat IPC: 0.554054 cumulative IPC: 0.572873 (Simulation time: 5 hr 41 min 14 sec) 
Heartbeat CPU 0 instructions: 104000000 cycles: 126032589 heartbeat IPC: 0.551962 cumulative IPC: 0.572471 (Simulation time: 5 hr 44 min 47 sec) 
Heartbeat CPU 0 instructions: 105000000 cycles: 127838118 heartbeat IPC: 0.553854 cumulative IPC: 0.572121 (Simulation time: 5 hr 48 min 22 sec) 
Heartbeat CPU 0 instructions: 106000002 cycles: 129638926 heartbeat IPC: 0.555307 cumulative IPC: 0.571812 (Simulation time: 5 hr 51 min 40 sec) 
Heartbeat CPU 0 instructions: 107000000 cycles: 131458858 heartbeat IPC: 0.54947 cumulative IPC: 0.571405 (Simulation time: 5 hr 54 min 55 sec) 
Heartbeat CPU 0 instructions: 108000000 cycles: 133260534 heartbeat IPC: 0.555039 cumulative IPC: 0.571114 (Simulation time: 5 hr 57 min 50 sec) 
Heartbeat CPU 0 instructions: 109000003 cycles: 135078172 heartbeat IPC: 0.550166 cumulative IPC: 0.570746 (Simulation time: 6 hr 1 min 11 sec) 
Heartbeat CPU 0 instructions: 110000001 cycles: 136884928 heartbeat IPC: 0.553477 cumulative IPC: 0.570449 (Simulation time: 6 hr 4 min 3 sec) 
Heartbeat CPU 0 instructions: 111000001 cycles: 138688005 heartbeat IPC: 0.554608 cumulative IPC: 0.570182 (Simulation time: 6 hr 7 min 36 sec) 
Heartbeat CPU 0 instructions: 112000000 cycles: 140503960 heartbeat IPC: 0.550674 cumulative IPC: 0.569857 (Simulation time: 6 hr 11 min 2 sec) 
Heartbeat CPU 0 instructions: 113000002 cycles: 142305951 heartbeat IPC: 0.554943 cumulative IPC: 0.569614 (Simulation time: 6 hr 14 min 25 sec) 
Heartbeat CPU 0 instructions: 114000002 cycles: 144114500 heartbeat IPC: 0.552929 cumulative IPC: 0.569345 (Simulation time: 6 hr 17 min 48 sec) 
Heartbeat CPU 0 instructions: 115000002 cycles: 145925709 heartbeat IPC: 0.552117 cumulative IPC: 0.569072 (Simulation time: 6 hr 21 min 10 sec) 
Heartbeat CPU 0 instructions: 116000000 cycles: 147734474 heartbeat IPC: 0.552862 cumulative IPC: 0.568819 (Simulation time: 6 hr 24 min 21 sec) 
Heartbeat CPU 0 instructions: 117000001 cycles: 149549668 heartbeat IPC: 0.550906 cumulative IPC: 0.568543 (Simulation time: 6 hr 27 min 27 sec) 
Heartbeat CPU 0 instructions: 118000003 cycles: 151352137 heartbeat IPC: 0.554796 cumulative IPC: 0.568336 (Simulation time: 6 hr 30 min 21 sec) 
Heartbeat CPU 0 instructions: 119000001 cycles: 153161317 heartbeat IPC: 0.552736 cumulative IPC: 0.568104 (Simulation time: 6 hr 33 min 10 sec) 
Heartbeat CPU 0 instructions: 120000000 cycles: 155509009 heartbeat IPC: 0.42595 cumulative IPC: 0.565408 (Simulation time: 6 hr 36 min 13 sec) 
Heartbeat CPU 0 instructions: 121000000 cycles: 164365719 heartbeat IPC: 0.112909 cumulative IPC: 0.535199 (Simulation time: 6 hr 41 min 40 sec) 
Heartbeat CPU 0 instructions: 122000002 cycles: 173225898 heartbeat IPC: 0.112865 cumulative IPC: 0.508758 (Simulation time: 6 hr 46 min 15 sec) 
Heartbeat CPU 0 instructions: 123000002 cycles: 182119880 heartbeat IPC: 0.112436 cumulative IPC: 0.485323 (Simulation time: 6 hr 50 min 34 sec) 
Heartbeat CPU 0 instructions: 124000000 cycles: 190975451 heartbeat IPC: 0.112923 cumulative IPC: 0.464618 (Simulation time: 6 hr 54 min 13 sec) 
Heartbeat CPU 0 instructions: 125000001 cycles: 193679532 heartbeat IPC: 0.369812 cumulative IPC: 0.463035 (Simulation time: 6 hr 55 min 47 sec) 
Heartbeat CPU 0 instructions: 126000003 cycles: 195390257 heartbeat IPC: 0.584549 cumulative IPC: 0.464305 (Simulation time: 6 hr 56 min 56 sec) 
Heartbeat CPU 0 instructions: 127000000 cycles: 197107166 heartbeat IPC: 0.58244 cumulative IPC: 0.465531 (Simulation time: 6 hr 58 min 10 sec) 
Heartbeat CPU 0 instructions: 128000000 cycles: 198841090 heartbeat IPC: 0.576727 cumulative IPC: 0.466685 (Simulation time: 6 hr 59 min 11 sec) 
Heartbeat CPU 0 instructions: 129000000 cycles: 200564933 heartbeat IPC: 0.580099 cumulative IPC: 0.467842 (Simulation time: 7 hr 0 min 7 sec) 
Heartbeat CPU 0 instructions: 130000003 cycles: 202292643 heartbeat IPC: 0.578803 cumulative IPC: 0.468966 (Simulation time: 7 hr 0 min 54 sec) 
Heartbeat CPU 0 instructions: 131000001 cycles: 204027173 heartbeat IPC: 0.576524 cumulative IPC: 0.470049 (Simulation time: 7 hr 1 min 41 sec) 
Heartbeat CPU 0 instructions: 132000000 cycles: 205743602 heartbeat IPC: 0.582604 cumulative IPC: 0.471159 (Simulation time: 7 hr 2 min 29 sec) 
Heartbeat CPU 0 instructions: 133000002 cycles: 207458896 heartbeat IPC: 0.582992 cumulative IPC: 0.47225 (Simulation time: 7 hr 3 min 12 sec) 
Heartbeat CPU 0 instructions: 134000000 cycles: 209172886 heartbeat IPC: 0.583433 cumulative IPC: 0.473324 (Simulation time: 7 hr 3 min 49 sec) 
Heartbeat CPU 0 instructions: 135000003 cycles: 210889210 heartbeat IPC: 0.582642 cumulative IPC: 0.474371 (Simulation time: 7 hr 4 min 24 sec) 
Heartbeat CPU 0 instructions: 136000000 cycles: 212610220 heartbeat IPC: 0.581052 cumulative IPC: 0.475386 (Simulation time: 7 hr 4 min 54 sec) 
Heartbeat CPU 0 instructions: 137000003 cycles: 214330210 heartbeat IPC: 0.5814 cumulative IPC: 0.476385 (Simulation time: 7 hr 5 min 25 sec) 
Heartbeat CPU 0 instructions: 138000000 cycles: 216050845 heartbeat IPC: 0.581179 cumulative IPC: 0.477363 (Simulation time: 7 hr 5 min 56 sec) 
Heartbeat CPU 0 instructions: 139000001 cycles: 217773786 heartbeat IPC: 0.580404 cumulative IPC: 0.478317 (Simulation time: 7 hr 6 min 27 sec) 
Heartbeat CPU 0 instructions: 140000000 cycles: 219487064 heartbeat IPC: 0.583676 cumulative IPC: 0.479278 (Simulation time: 7 hr 6 min 57 sec) 
Heartbeat CPU 0 instructions: 141000000 cycles: 221212022 heartbeat IPC: 0.579724 cumulative IPC: 0.480192 (Simulation time: 7 hr 7 min 21 sec) 
Heartbeat CPU 0 instructions: 142000001 cycles: 222933725 heartbeat IPC: 0.580821 cumulative IPC: 0.481098 (Simulation time: 7 hr 7 min 46 sec) 
Heartbeat CPU 0 instructions: 143000001 cycles: 224647851 heartbeat IPC: 0.583388 cumulative IPC: 0.482007 (Simulation time: 7 hr 8 min 9 sec) 
Heartbeat CPU 0 instructions: 144000000 cycles: 226362752 heartbeat IPC: 0.583123 cumulative IPC: 0.482898 (Simulation time: 7 hr 8 min 32 sec) 
Heartbeat CPU 0 instructions: 145000000 cycles: 228072207 heartbeat IPC: 0.584982 cumulative IPC: 0.483787 (Simulation time: 7 hr 8 min 55 sec) 
Heartbeat CPU 0 instructions: 146000002 cycles: 229794701 heartbeat IPC: 0.580555 cumulative IPC: 0.484628 (Simulation time: 7 hr 9 min 14 sec) 
Heartbeat CPU 0 instructions: 147000002 cycles: 231507289 heartbeat IPC: 0.583912 cumulative IPC: 0.485479 (Simulation time: 7 hr 9 min 32 sec) 
Heartbeat CPU 0 instructions: 148000000 cycles: 233217886 heartbeat IPC: 0.58459 cumulative IPC: 0.48632 (Simulation time: 7 hr 9 min 49 sec) 
Heartbeat CPU 0 instructions: 149000000 cycles: 234932156 heartbeat IPC: 0.583339 cumulative IPC: 0.487139 (Simulation time: 7 hr 10 min 6 sec) 
Heartbeat CPU 0 instructions: 150000002 cycles: 236649714 heartbeat IPC: 0.582223 cumulative IPC: 0.487936 (Simulation time: 7 hr 10 min 23 sec) 
Finished CPU 0 instructions: 100000002 cycles: 204945046 cummulative IPC: 0.487936 (Simulation time: 7 hr 10 min 23 sec) 

ChampSim completed all CPUs

Region of Interest Statistics

CPU 0 cummulative IPC: 0.487936 instructions: 100000002 cycles: 204945046
LLC TOTAL     ACCESS:    5921969  HIT:     443003  MISS:    5478966
LLC LOAD      ACCESS:    1305080  HIT:      42293  MISS:    1262787
LLC RFO       ACCESS:         25  HIT:          3  MISS:         22
LLC PREFETCH  ACCESS:    3074894  HIT:     118456  MISS:    2956438
LLC WRITEBACK ACCESS:    1541970  HIT:     282251  MISS:    1259719
