
*** ChampSim Multicore Out-of-Order Simulator ***

Warmup Instructions: 50000000
Simulation Instructions: 100000000
Configuration: 2
Number of CPUs: 1
LLC sets: 2048
LLC ways: 16
Off-chip DRAM Channels: 1 Width: 64-bit Data Rate: 1600 MT/s

CPU 0 runs /datasets/cs240c-wi22-a00-public/data/Assignment2-gz/mcf_46B.trace.gz
CPU 0 L1D next line prefetcher
CPU 0 L2C IP-based stride prefetcher
Heartbeat CPU 0 instructions: 1000002 cycles: 492631 heartbeat IPC: 2.02992 cumulative IPC: 2.02992 (Simulation time: 0 hr 2 min 59 sec) 
Heartbeat CPU 0 instructions: 2000002 cycles: 988846 heartbeat IPC: 2.01526 cumulative IPC: 2.02256 (Simulation time: 0 hr 6 min 11 sec) 
Heartbeat CPU 0 instructions: 3000003 cycles: 1517192 heartbeat IPC: 1.8927 cumulative IPC: 1.97734 (Simulation time: 0 hr 9 min 54 sec) 
Heartbeat CPU 0 instructions: 4000000 cycles: 2039269 heartbeat IPC: 1.91542 cumulative IPC: 1.96149 (Simulation time: 0 hr 14 min 18 sec) 
Heartbeat CPU 0 instructions: 5000000 cycles: 2533470 heartbeat IPC: 2.02347 cumulative IPC: 1.97358 (Simulation time: 0 hr 17 min 24 sec) 
Heartbeat CPU 0 instructions: 6000002 cycles: 3036982 heartbeat IPC: 1.98605 cumulative IPC: 1.97565 (Simulation time: 0 hr 20 min 52 sec) 
Heartbeat CPU 0 instructions: 7000001 cycles: 3581342 heartbeat IPC: 1.83702 cumulative IPC: 1.95457 (Simulation time: 0 hr 24 min 36 sec) 
Heartbeat CPU 0 instructions: 8000000 cycles: 4072240 heartbeat IPC: 2.03708 cumulative IPC: 1.96452 (Simulation time: 0 hr 27 min 40 sec) 
Heartbeat CPU 0 instructions: 9000001 cycles: 4556320 heartbeat IPC: 2.06578 cumulative IPC: 1.97528 (Simulation time: 0 hr 31 min 0 sec) 
Heartbeat CPU 0 instructions: 10000001 cycles: 5092843 heartbeat IPC: 1.86385 cumulative IPC: 1.96354 (Simulation time: 0 hr 34 min 57 sec) 
Heartbeat CPU 0 instructions: 11000002 cycles: 5637457 heartbeat IPC: 1.83616 cumulative IPC: 1.95123 (Simulation time: 0 hr 39 min 0 sec) 
Heartbeat CPU 0 instructions: 12000000 cycles: 6116572 heartbeat IPC: 2.08718 cumulative IPC: 1.96188 (Simulation time: 0 hr 42 min 9 sec) 
Heartbeat CPU 0 instructions: 13000000 cycles: 6612577 heartbeat IPC: 2.01611 cumulative IPC: 1.96595 (Simulation time: 0 hr 45 min 28 sec) 
Heartbeat CPU 0 instructions: 14000003 cycles: 7159319 heartbeat IPC: 1.82902 cumulative IPC: 1.95549 (Simulation time: 0 hr 49 min 6 sec) 
Heartbeat CPU 0 instructions: 15000000 cycles: 7636897 heartbeat IPC: 2.09389 cumulative IPC: 1.96415 (Simulation time: 0 hr 52 min 21 sec) 
Heartbeat CPU 0 instructions: 16000000 cycles: 8114739 heartbeat IPC: 2.09274 cumulative IPC: 1.97172 (Simulation time: 0 hr 55 min 31 sec) 
Heartbeat CPU 0 instructions: 17000002 cycles: 8659429 heartbeat IPC: 1.83591 cumulative IPC: 1.96318 (Simulation time: 0 hr 59 min 30 sec) 
Heartbeat CPU 0 instructions: 18000000 cycles: 9147122 heartbeat IPC: 2.05047 cumulative IPC: 1.96783 (Simulation time: 1 hr 2 min 36 sec) 
Heartbeat CPU 0 instructions: 19000000 cycles: 9635669 heartbeat IPC: 2.04689 cumulative IPC: 1.97184 (Simulation time: 1 hr 6 min 1 sec) 
Heartbeat CPU 0 instructions: 20000000 cycles: 10208729 heartbeat IPC: 1.74502 cumulative IPC: 1.95911 (Simulation time: 1 hr 9 min 37 sec) 
Heartbeat CPU 0 instructions: 21000001 cycles: 10756521 heartbeat IPC: 1.82551 cumulative IPC: 1.9523 (Simulation time: 1 hr 13 min 17 sec) 
Heartbeat CPU 0 instructions: 22000002 cycles: 11235340 heartbeat IPC: 2.08847 cumulative IPC: 1.95811 (Simulation time: 1 hr 16 min 32 sec) 
Heartbeat CPU 0 instructions: 23000001 cycles: 11715654 heartbeat IPC: 2.08197 cumulative IPC: 1.96319 (Simulation time: 1 hr 19 min 14 sec) 
Heartbeat CPU 0 instructions: 24000000 cycles: 12246530 heartbeat IPC: 1.88368 cumulative IPC: 1.95974 (Simulation time: 1 hr 23 min 0 sec) 
Heartbeat CPU 0 instructions: 25000002 cycles: 12746950 heartbeat IPC: 1.99833 cumulative IPC: 1.96125 (Simulation time: 1 hr 26 min 46 sec) 
Heartbeat CPU 0 instructions: 26000000 cycles: 13228372 heartbeat IPC: 2.07718 cumulative IPC: 1.96547 (Simulation time: 1 hr 29 min 45 sec) 
Heartbeat CPU 0 instructions: 27000002 cycles: 13740911 heartbeat IPC: 1.95107 cumulative IPC: 1.96494 (Simulation time: 1 hr 32 min 56 sec) 
Heartbeat CPU 0 instructions: 28000000 cycles: 14258908 heartbeat IPC: 1.93051 cumulative IPC: 1.96368 (Simulation time: 1 hr 36 min 18 sec) 
Heartbeat CPU 0 instructions: 29000001 cycles: 14737682 heartbeat IPC: 2.08867 cumulative IPC: 1.96775 (Simulation time: 1 hr 39 min 27 sec) 
Heartbeat CPU 0 instructions: 30000000 cycles: 15234630 heartbeat IPC: 2.01228 cumulative IPC: 1.9692 (Simulation time: 1 hr 43 min 4 sec) 
Heartbeat CPU 0 instructions: 31000002 cycles: 15768492 heartbeat IPC: 1.87315 cumulative IPC: 1.96595 (Simulation time: 1 hr 46 min 30 sec) 
Heartbeat CPU 0 instructions: 32000000 cycles: 16248221 heartbeat IPC: 2.08451 cumulative IPC: 1.96945 (Simulation time: 1 hr 49 min 6 sec) 
Heartbeat CPU 0 instructions: 33000000 cycles: 16751864 heartbeat IPC: 1.98553 cumulative IPC: 1.96993 (Simulation time: 1 hr 51 min 48 sec) 
Heartbeat CPU 0 instructions: 34000000 cycles: 17294039 heartbeat IPC: 1.84442 cumulative IPC: 1.966 (Simulation time: 1 hr 55 min 4 sec) 
Heartbeat CPU 0 instructions: 35000001 cycles: 17783566 heartbeat IPC: 2.04279 cumulative IPC: 1.96811 (Simulation time: 1 hr 57 min 50 sec) 
Heartbeat CPU 0 instructions: 36000000 cycles: 18288995 heartbeat IPC: 1.97852 cumulative IPC: 1.9684 (Simulation time: 2 hr 1 min 6 sec) 
Heartbeat CPU 0 instructions: 37000002 cycles: 18804719 heartbeat IPC: 1.93903 cumulative IPC: 1.96759 (Simulation time: 2 hr 4 min 10 sec) 
Heartbeat CPU 0 instructions: 38000001 cycles: 19320709 heartbeat IPC: 1.93802 cumulative IPC: 1.9668 (Simulation time: 2 hr 7 min 48 sec) 
Heartbeat CPU 0 instructions: 39000000 cycles: 19798279 heartbeat IPC: 2.09393 cumulative IPC: 1.96987 (Simulation time: 2 hr 10 min 56 sec) 
Heartbeat CPU 0 instructions: 40000000 cycles: 20287563 heartbeat IPC: 2.0438 cumulative IPC: 1.97165 (Simulation time: 2 hr 14 min 39 sec) 
Heartbeat CPU 0 instructions: 41000000 cycles: 20828204 heartbeat IPC: 1.84966 cumulative IPC: 1.96848 (Simulation time: 2 hr 18 min 52 sec) 
Heartbeat CPU 0 instructions: 42000001 cycles: 21312053 heartbeat IPC: 2.06676 cumulative IPC: 1.97072 (Simulation time: 2 hr 21 min 44 sec) 
Heartbeat CPU 0 instructions: 43000000 cycles: 21790131 heartbeat IPC: 2.09171 cumulative IPC: 1.97337 (Simulation time: 2 hr 24 min 43 sec) 
Heartbeat CPU 0 instructions: 44000000 cycles: 22322741 heartbeat IPC: 1.87755 cumulative IPC: 1.97108 (Simulation time: 2 hr 28 min 56 sec) 
Heartbeat CPU 0 instructions: 45000001 cycles: 22817951 heartbeat IPC: 2.01935 cumulative IPC: 1.97213 (Simulation time: 2 hr 32 min 32 sec) 
Heartbeat CPU 0 instructions: 46000001 cycles: 23298298 heartbeat IPC: 2.08183 cumulative IPC: 1.97439 (Simulation time: 2 hr 35 min 31 sec) 
Heartbeat CPU 0 instructions: 47000002 cycles: 23809863 heartbeat IPC: 1.95479 cumulative IPC: 1.97397 (Simulation time: 2 hr 39 min 3 sec) 
Heartbeat CPU 0 instructions: 48000000 cycles: 24330644 heartbeat IPC: 1.92019 cumulative IPC: 1.97282 (Simulation time: 2 hr 42 min 35 sec) 
Heartbeat CPU 0 instructions: 49000000 cycles: 24814050 heartbeat IPC: 2.06865 cumulative IPC: 1.97469 (Simulation time: 2 hr 45 min 36 sec) 
Heartbeat CPU 0 instructions: 50000000 cycles: 25305509 heartbeat IPC: 2.03476 cumulative IPC: 1.97585 (Simulation time: 2 hr 49 min 3 sec) 

Warmup complete CPU 0 instructions: 50000004 cycles: 25305510 (Simulation time: 2 hr 49 min 3 sec) 

Heartbeat CPU 0 instructions: 51000001 cycles: 39345317 heartbeat IPC: 0.0712261 cumulative IPC: 0.0712258 (Simulation time: 2 hr 57 min 12 sec) 
Heartbeat CPU 0 instructions: 52000000 cycles: 44298197 heartbeat IPC: 0.201903 cumulative IPC: 0.105303 (Simulation time: 3 hr 1 min 52 sec) 
Heartbeat CPU 0 instructions: 53000000 cycles: 49061031 heartbeat IPC: 0.209959 cumulative IPC: 0.126286 (Simulation time: 3 hr 6 min 51 sec) 
Heartbeat CPU 0 instructions: 54000002 cycles: 64235912 heartbeat IPC: 0.0658985 cumulative IPC: 0.102747 (Simulation time: 3 hr 14 min 44 sec) 
Heartbeat CPU 0 instructions: 55000002 cycles: 69750704 heartbeat IPC: 0.181331 cumulative IPC: 0.112498 (Simulation time: 3 hr 19 min 46 sec) 
Heartbeat CPU 0 instructions: 56000000 cycles: 74635030 heartbeat IPC: 0.204736 cumulative IPC: 0.121631 (Simulation time: 3 hr 24 min 10 sec) 
Heartbeat CPU 0 instructions: 57000000 cycles: 87676250 heartbeat IPC: 0.0766799 cumulative IPC: 0.112232 (Simulation time: 3 hr 31 min 45 sec) 
Heartbeat CPU 0 instructions: 58000000 cycles: 95305180 heartbeat IPC: 0.13108 cumulative IPC: 0.114286 (Simulation time: 3 hr 37 min 57 sec) 
Heartbeat CPU 0 instructions: 59000002 cycles: 100053295 heartbeat IPC: 0.21061 cumulative IPC: 0.120405 (Simulation time: 3 hr 42 min 40 sec) 
Heartbeat CPU 0 instructions: 60000000 cycles: 111522779 heartbeat IPC: 0.0871877 cumulative IPC: 0.115986 (Simulation time: 3 hr 49 min 33 sec) 
Heartbeat CPU 0 instructions: 61000002 cycles: 120987820 heartbeat IPC: 0.105652 cumulative IPC: 0.114964 (Simulation time: 3 hr 55 min 37 sec) 
Heartbeat CPU 0 instructions: 62000001 cycles: 125709145 heartbeat IPC: 0.211805 cumulative IPC: 0.119518 (Simulation time: 4 hr 0 min 8 sec) 
Heartbeat CPU 0 instructions: 63000001 cycles: 135711379 heartbeat IPC: 0.0999777 cumulative IPC: 0.117747 (Simulation time: 4 hr 6 min 15 sec) 
Heartbeat CPU 0 instructions: 64000000 cycles: 146865789 heartbeat IPC: 0.0896505 cumulative IPC: 0.115169 (Simulation time: 4 hr 14 min 16 sec) 
Heartbeat CPU 0 instructions: 65000000 cycles: 152559593 heartbeat IPC: 0.17563 cumulative IPC: 0.117874 (Simulation time: 4 hr 19 min 9 sec) 
Heartbeat CPU 0 instructions: 66000000 cycles: 159097616 heartbeat IPC: 0.152951 cumulative IPC: 0.119588 (Simulation time: 4 hr 23 min 40 sec) 
Heartbeat CPU 0 instructions: 67000002 cycles: 174561932 heartbeat IPC: 0.0646651 cumulative IPC: 0.113898 (Simulation time: 4 hr 31 min 14 sec) 
Heartbeat CPU 0 instructions: 68000000 cycles: 179345070 heartbeat IPC: 0.209067 cumulative IPC: 0.116853 (Simulation time: 4 hr 35 min 24 sec) 
Heartbeat CPU 0 instructions: 69000000 cycles: 183947725 heartbeat IPC: 0.217266 cumulative IPC: 0.119766 (Simulation time: 4 hr 39 min 35 sec) 
Heartbeat CPU 0 instructions: 70000001 cycles: 197744194 heartbeat IPC: 0.0724824 cumulative IPC: 0.115983 (Simulation time: 4 hr 46 min 5 sec) 
Heartbeat CPU 0 instructions: 71000002 cycles: 206121738 heartbeat IPC: 0.119367 cumulative IPC: 0.11614 (Simulation time: 4 hr 51 min 59 sec) 
Heartbeat CPU 0 instructions: 72000000 cycles: 211368465 heartbeat IPC: 0.190595 cumulative IPC: 0.11824 (Simulation time: 4 hr 56 min 34 sec) 
Heartbeat CPU 0 instructions: 73000002 cycles: 220543592 heartbeat IPC: 0.108991 cumulative IPC: 0.117805 (Simulation time: 5 hr 2 min 53 sec) 
Heartbeat CPU 0 instructions: 74000001 cycles: 232236994 heartbeat IPC: 0.0855182 cumulative IPC: 0.11598 (Simulation time: 5 hr 9 min 8 sec) 
Heartbeat CPU 0 instructions: 75000001 cycles: 237261607 heartbeat IPC: 0.19902 cumulative IPC: 0.117949 (Simulation time: 5 hr 13 min 31 sec) 
Heartbeat CPU 0 instructions: 76000000 cycles: 243779282 heartbeat IPC: 0.153429 cumulative IPC: 0.119007 (Simulation time: 5 hr 18 min 5 sec) 
Heartbeat CPU 0 instructions: 77000001 cycles: 259115593 heartbeat IPC: 0.0652048 cumulative IPC: 0.115478 (Simulation time: 5 hr 25 min 7 sec) 
Heartbeat CPU 0 instructions: 78000002 cycles: 264185732 heartbeat IPC: 0.197233 cumulative IPC: 0.117214 (Simulation time: 5 hr 29 min 51 sec) 
Heartbeat CPU 0 instructions: 79000001 cycles: 269017242 heartbeat IPC: 0.206974 cumulative IPC: 0.118993 (Simulation time: 5 hr 33 min 46 sec) 
Heartbeat CPU 0 instructions: 80000000 cycles: 281882147 heartbeat IPC: 0.0777308 cumulative IPC: 0.116924 (Simulation time: 5 hr 39 min 56 sec) 
Heartbeat CPU 0 instructions: 81000000 cycles: 289550184 heartbeat IPC: 0.130411 cumulative IPC: 0.117316 (Simulation time: 5 hr 45 min 33 sec) 
Heartbeat CPU 0 instructions: 82000000 cycles: 294784761 heartbeat IPC: 0.191037 cumulative IPC: 0.118748 (Simulation time: 5 hr 49 min 21 sec) 
Heartbeat CPU 0 instructions: 83000001 cycles: 304548930 heartbeat IPC: 0.102415 cumulative IPC: 0.118176 (Simulation time: 5 hr 54 min 30 sec) 
Heartbeat CPU 0 instructions: 84000000 cycles: 315766074 heartbeat IPC: 0.0891492 cumulative IPC: 0.117055 (Simulation time: 5 hr 59 min 57 sec) 
Heartbeat CPU 0 instructions: 85000001 cycles: 320596315 heartbeat IPC: 0.207029 cumulative IPC: 0.118527 (Simulation time: 6 hr 3 min 30 sec) 
Heartbeat CPU 0 instructions: 86000000 cycles: 328370667 heartbeat IPC: 0.128628 cumulative IPC: 0.118786 (Simulation time: 6 hr 7 min 43 sec) 
Heartbeat CPU 0 instructions: 87000000 cycles: 342586016 heartbeat IPC: 0.0703465 cumulative IPC: 0.116616 (Simulation time: 6 hr 15 min 1 sec) 
Heartbeat CPU 0 instructions: 88000000 cycles: 348975776 heartbeat IPC: 0.1565 cumulative IPC: 0.117403 (Simulation time: 6 hr 19 min 19 sec) 
Heartbeat CPU 0 instructions: 89000000 cycles: 353788591 heartbeat IPC: 0.207779 cumulative IPC: 0.118728 (Simulation time: 6 hr 22 min 59 sec) 
Heartbeat CPU 0 instructions: 90000003 cycles: 365469541 heartbeat IPC: 0.0856097 cumulative IPC: 0.11759 (Simulation time: 6 hr 28 min 36 sec) 
Heartbeat CPU 0 instructions: 91000000 cycles: 374409735 heartbeat IPC: 0.111854 cumulative IPC: 0.117443 (Simulation time: 6 hr 32 min 57 sec) 
Heartbeat CPU 0 instructions: 92000000 cycles: 379136108 heartbeat IPC: 0.211579 cumulative IPC: 0.118701 (Simulation time: 6 hr 36 min 3 sec) 
Heartbeat CPU 0 instructions: 93000002 cycles: 388291442 heartbeat IPC: 0.109226 cumulative IPC: 0.118462 (Simulation time: 6 hr 39 min 44 sec) 
Heartbeat CPU 0 instructions: 94000002 cycles: 399581636 heartbeat IPC: 0.0885724 cumulative IPC: 0.11756 (Simulation time: 6 hr 43 min 21 sec) 
Heartbeat CPU 0 instructions: 95000001 cycles: 405611114 heartbeat IPC: 0.165852 cumulative IPC: 0.118326 (Simulation time: 6 hr 45 min 43 sec) 
Heartbeat CPU 0 instructions: 96000000 cycles: 411605948 heartbeat IPC: 0.16681 cumulative IPC: 0.119078 (Simulation time: 6 hr 48 min 0 sec) 
Heartbeat CPU 0 instructions: 97000000 cycles: 426299776 heartbeat IPC: 0.0680558 cumulative IPC: 0.117209 (Simulation time: 6 hr 51 min 46 sec) 
Heartbeat CPU 0 instructions: 98000002 cycles: 431249221 heartbeat IPC: 0.202043 cumulative IPC: 0.118243 (Simulation time: 6 hr 53 min 48 sec) 
Heartbeat CPU 0 instructions: 99000002 cycles: 436450936 heartbeat IPC: 0.192244 cumulative IPC: 0.119179 (Simulation time: 6 hr 55 min 23 sec) 
Heartbeat CPU 0 instructions: 100000000 cycles: 450142207 heartbeat IPC: 0.0730391 cumulative IPC: 0.117692 (Simulation time: 6 hr 57 min 23 sec) 
Heartbeat CPU 0 instructions: 101000000 cycles: 457078482 heartbeat IPC: 0.14417 cumulative IPC: 0.118118 (Simulation time: 6 hr 58 min 41 sec) 
Heartbeat CPU 0 instructions: 102000003 cycles: 461802858 heartbeat IPC: 0.211669 cumulative IPC: 0.11913 (Simulation time: 6 hr 59 min 47 sec) 
Heartbeat CPU 0 instructions: 103000003 cycles: 473589581 heartbeat IPC: 0.0848412 cumulative IPC: 0.118229 (Simulation time: 7 hr 1 min 5 sec) 
Heartbeat CPU 0 instructions: 104000000 cycles: 484761260 heartbeat IPC: 0.0895118 cumulative IPC: 0.11753 (Simulation time: 7 hr 2 min 18 sec) 
Heartbeat CPU 0 instructions: 105000000 cycles: 489973583 heartbeat IPC: 0.191853 cumulative IPC: 0.118364 (Simulation time: 7 hr 3 min 5 sec) 
Heartbeat CPU 0 instructions: 106000000 cycles: 494803262 heartbeat IPC: 0.207053 cumulative IPC: 0.119276 (Simulation time: 7 hr 3 min 45 sec) 
Heartbeat CPU 0 instructions: 107000002 cycles: 509820061 heartbeat IPC: 0.0665922 cumulative IPC: 0.117644 (Simulation time: 7 hr 4 min 45 sec) 
Heartbeat CPU 0 instructions: 108000000 cycles: 515451660 heartbeat IPC: 0.177569 cumulative IPC: 0.118332 (Simulation time: 7 hr 5 min 19 sec) 
Heartbeat CPU 0 instructions: 109000001 cycles: 520378703 heartbeat IPC: 0.202962 cumulative IPC: 0.119174 (Simulation time: 7 hr 5 min 52 sec) 
Heartbeat CPU 0 instructions: 110000002 cycles: 530235005 heartbeat IPC: 0.101458 cumulative IPC: 0.118828 (Simulation time: 7 hr 6 min 35 sec) 
Heartbeat CPU 0 instructions: 111000003 cycles: 541023184 heartbeat IPC: 0.0926941 cumulative IPC: 0.118282 (Simulation time: 7 hr 7 min 16 sec) 
Heartbeat CPU 0 instructions: 112000000 cycles: 545517930 heartbeat IPC: 0.222481 cumulative IPC: 0.119182 (Simulation time: 7 hr 7 min 41 sec) 
Heartbeat CPU 0 instructions: 113000000 cycles: 553048224 heartbeat IPC: 0.132797 cumulative IPC: 0.119376 (Simulation time: 7 hr 8 min 10 sec) 
Heartbeat CPU 0 instructions: 114000000 cycles: 566354712 heartbeat IPC: 0.0751513 cumulative IPC: 0.118289 (Simulation time: 7 hr 8 min 48 sec) 
Heartbeat CPU 0 instructions: 115000001 cycles: 574060245 heartbeat IPC: 0.129777 cumulative IPC: 0.11845 (Simulation time: 7 hr 9 min 15 sec) 
Heartbeat CPU 0 instructions: 116000000 cycles: 578630440 heartbeat IPC: 0.218809 cumulative IPC: 0.119279 (Simulation time: 7 hr 9 min 34 sec) 
Heartbeat CPU 0 instructions: 117000000 cycles: 589004560 heartbeat IPC: 0.0963937 cumulative IPC: 0.118858 (Simulation time: 7 hr 9 min 55 sec) 
Heartbeat CPU 0 instructions: 118000000 cycles: 599083972 heartbeat IPC: 0.0992121 cumulative IPC: 0.118513 (Simulation time: 7 hr 10 min 19 sec) 
Heartbeat CPU 0 instructions: 119000000 cycles: 603786665 heartbeat IPC: 0.212644 cumulative IPC: 0.119278 (Simulation time: 7 hr 10 min 33 sec) 
Heartbeat CPU 0 instructions: 120000000 cycles: 610815260 heartbeat IPC: 0.142276 cumulative IPC: 0.119554 (Simulation time: 7 hr 10 min 43 sec) 
Heartbeat CPU 0 instructions: 121000000 cycles: 624317888 heartbeat IPC: 0.0740597 cumulative IPC: 0.118528 (Simulation time: 7 hr 10 min 53 sec) 
Heartbeat CPU 0 instructions: 122000001 cycles: 628855382 heartbeat IPC: 0.220386 cumulative IPC: 0.119294 (Simulation time: 7 hr 10 min 59 sec) 
Heartbeat CPU 0 instructions: 123000000 cycles: 633618191 heartbeat IPC: 0.20996 cumulative IPC: 0.120004 (Simulation time: 7 hr 11 min 5 sec) 
Heartbeat CPU 0 instructions: 124000000 cycles: 648061926 heartbeat IPC: 0.0692342 cumulative IPC: 0.118827 (Simulation time: 7 hr 11 min 16 sec) 
Heartbeat CPU 0 instructions: 125000000 cycles: 654132593 heartbeat IPC: 0.164727 cumulative IPC: 0.11927 (Simulation time: 7 hr 11 min 23 sec) 
Heartbeat CPU 0 instructions: 126000000 cycles: 658789164 heartbeat IPC: 0.21475 cumulative IPC: 0.119972 (Simulation time: 7 hr 11 min 29 sec) 
Heartbeat CPU 0 instructions: 127000002 cycles: 670725068 heartbeat IPC: 0.083781 cumulative IPC: 0.119302 (Simulation time: 7 hr 11 min 38 sec) 
Heartbeat CPU 0 instructions: 128000000 cycles: 679393143 heartbeat IPC: 0.115366 cumulative IPC: 0.11925 (Simulation time: 7 hr 11 min 46 sec) 
Heartbeat CPU 0 instructions: 129000000 cycles: 684037844 heartbeat IPC: 0.215299 cumulative IPC: 0.119927 (Simulation time: 7 hr 11 min 53 sec) 
Heartbeat CPU 0 instructions: 130000000 cycles: 692906524 heartbeat IPC: 0.112756 cumulative IPC: 0.119832 (Simulation time: 7 hr 12 min 1 sec) 
Heartbeat CPU 0 instructions: 131000000 cycles: 705359591 heartbeat IPC: 0.0803015 cumulative IPC: 0.119108 (Simulation time: 7 hr 12 min 10 sec) 
Heartbeat CPU 0 instructions: 132000000 cycles: 710839761 heartbeat IPC: 0.182476 cumulative IPC: 0.119615 (Simulation time: 7 hr 12 min 17 sec) 
Heartbeat CPU 0 instructions: 133000002 cycles: 716109781 heartbeat IPC: 0.189753 cumulative IPC: 0.12015 (Simulation time: 7 hr 12 min 24 sec) 
Heartbeat CPU 0 instructions: 134000001 cycles: 731359126 heartbeat IPC: 0.0655765 cumulative IPC: 0.118971 (Simulation time: 7 hr 12 min 35 sec) 
Heartbeat CPU 0 instructions: 135000001 cycles: 736071808 heartbeat IPC: 0.212193 cumulative IPC: 0.119589 (Simulation time: 7 hr 12 min 41 sec) 
Heartbeat CPU 0 instructions: 136000000 cycles: 744308350 heartbeat IPC: 0.12141 cumulative IPC: 0.11961 (Simulation time: 7 hr 12 min 49 sec) 
Heartbeat CPU 0 instructions: 137000000 cycles: 754505652 heartbeat IPC: 0.0980652 cumulative IPC: 0.119309 (Simulation time: 7 hr 12 min 58 sec) 
Heartbeat CPU 0 instructions: 138000001 cycles: 765089692 heartbeat IPC: 0.094482 cumulative IPC: 0.118954 (Simulation time: 7 hr 13 min 6 sec) 
Heartbeat CPU 0 instructions: 139000002 cycles: 769773905 heartbeat IPC: 0.213483 cumulative IPC: 0.119548 (Simulation time: 7 hr 13 min 12 sec) 
Heartbeat CPU 0 instructions: 140000000 cycles: 776394122 heartbeat IPC: 0.151052 cumulative IPC: 0.119826 (Simulation time: 7 hr 13 min 20 sec) 
Heartbeat CPU 0 instructions: 141000002 cycles: 790116348 heartbeat IPC: 0.0728746 cumulative IPC: 0.118984 (Simulation time: 7 hr 13 min 31 sec) 
Heartbeat CPU 0 instructions: 142000002 cycles: 794510150 heartbeat IPC: 0.227593 cumulative IPC: 0.119604 (Simulation time: 7 hr 13 min 37 sec) 
Heartbeat CPU 0 instructions: 143000002 cycles: 798924602 heartbeat IPC: 0.226529 cumulative IPC: 0.120214 (Simulation time: 7 hr 13 min 43 sec) 
Heartbeat CPU 0 instructions: 144000000 cycles: 813807451 heartbeat IPC: 0.0671913 cumulative IPC: 0.119213 (Simulation time: 7 hr 13 min 55 sec) 
Heartbeat CPU 0 instructions: 145000001 cycles: 819166215 heartbeat IPC: 0.18661 cumulative IPC: 0.119668 (Simulation time: 7 hr 14 min 2 sec) 
Heartbeat CPU 0 instructions: 146000001 cycles: 823712707 heartbeat IPC: 0.21995 cumulative IPC: 0.120239 (Simulation time: 7 hr 14 min 8 sec) 
Heartbeat CPU 0 instructions: 147000000 cycles: 836643930 heartbeat IPC: 0.0773321 cumulative IPC: 0.119556 (Simulation time: 7 hr 14 min 18 sec) 
Heartbeat CPU 0 instructions: 148000000 cycles: 843962882 heartbeat IPC: 0.136632 cumulative IPC: 0.119708 (Simulation time: 7 hr 14 min 24 sec) 
Heartbeat CPU 0 instructions: 149000000 cycles: 848630094 heartbeat IPC: 0.214261 cumulative IPC: 0.120244 (Simulation time: 7 hr 14 min 30 sec) 
Heartbeat CPU 0 instructions: 150000000 cycles: 859618410 heartbeat IPC: 0.0910058 cumulative IPC: 0.119859 (Simulation time: 7 hr 14 min 39 sec) 
Finished CPU 0 instructions: 100000000 cycles: 834313052 cummulative IPC: 0.119859 (Simulation time: 7 hr 14 min 39 sec) 

ChampSim completed all CPUs

Region of Interest Statistics

CPU 0 cummulative IPC: 0.119859 instructions: 100000000 cycles: 834313052
LLC TOTAL     ACCESS:   18840587  HIT:    8513691  MISS:   10326896
LLC LOAD      ACCESS:    8520403  HIT:    3984375  MISS:    4536028
LLC RFO       ACCESS:     210579  HIT:     110283  MISS:     100296
LLC PREFETCH  ACCESS:    8014288  HIT:    3240310  MISS:    4773978
LLC WRITEBACK ACCESS:    2095317  HIT:    1178723  MISS:     916594
