
*** ChampSim Multicore Out-of-Order Simulator ***

Warmup Instructions: 50000000
Simulation Instructions: 100000000
Configuration: 2
Number of CPUs: 1
LLC sets: 2048
LLC ways: 16
Off-chip DRAM Channels: 1 Width: 64-bit Data Rate: 1600 MT/s

CPU 0 runs /datasets/cs240c-wi22-a00-public/data/Assignment2-gz/sphinx3_1339B.trace.gz
CPU 0 L1D next line prefetcher
CPU 0 L2C IP-based stride prefetcher
Heartbeat CPU 0 instructions: 1000000 cycles: 339022 heartbeat IPC: 2.94966 cumulative IPC: 2.94966 (Simulation time: 0 hr 2 min 3 sec) 
Heartbeat CPU 0 instructions: 2000001 cycles: 693417 heartbeat IPC: 2.82171 cumulative IPC: 2.88427 (Simulation time: 0 hr 4 min 0 sec) 
Heartbeat CPU 0 instructions: 3000000 cycles: 1084490 heartbeat IPC: 2.55706 cumulative IPC: 2.76628 (Simulation time: 0 hr 6 min 23 sec) 
Heartbeat CPU 0 instructions: 4000000 cycles: 1529917 heartbeat IPC: 2.24504 cumulative IPC: 2.61452 (Simulation time: 0 hr 8 min 52 sec) 
Heartbeat CPU 0 instructions: 5000003 cycles: 1868927 heartbeat IPC: 2.94977 cumulative IPC: 2.67533 (Simulation time: 0 hr 11 min 14 sec) 
Heartbeat CPU 0 instructions: 6000002 cycles: 2253126 heartbeat IPC: 2.60282 cumulative IPC: 2.66297 (Simulation time: 0 hr 13 min 14 sec) 
Heartbeat CPU 0 instructions: 7000001 cycles: 2716987 heartbeat IPC: 2.15582 cumulative IPC: 2.57638 (Simulation time: 0 hr 15 min 19 sec) 
Heartbeat CPU 0 instructions: 8000000 cycles: 3055853 heartbeat IPC: 2.95102 cumulative IPC: 2.61793 (Simulation time: 0 hr 17 min 33 sec) 
Heartbeat CPU 0 instructions: 9000003 cycles: 3412409 heartbeat IPC: 2.80462 cumulative IPC: 2.63743 (Simulation time: 0 hr 19 min 16 sec) 
Heartbeat CPU 0 instructions: 10000001 cycles: 3799224 heartbeat IPC: 2.58521 cumulative IPC: 2.63212 (Simulation time: 0 hr 21 min 29 sec) 
Heartbeat CPU 0 instructions: 11000002 cycles: 4242394 heartbeat IPC: 2.25647 cumulative IPC: 2.59288 (Simulation time: 0 hr 23 min 45 sec) 
Heartbeat CPU 0 instructions: 12000000 cycles: 4581359 heartbeat IPC: 2.95015 cumulative IPC: 2.61931 (Simulation time: 0 hr 25 min 48 sec) 
Heartbeat CPU 0 instructions: 13000000 cycles: 4973272 heartbeat IPC: 2.55159 cumulative IPC: 2.61397 (Simulation time: 0 hr 28 min 18 sec) 
Heartbeat CPU 0 instructions: 14000003 cycles: 5428296 heartbeat IPC: 2.19769 cumulative IPC: 2.57908 (Simulation time: 0 hr 30 min 33 sec) 
Heartbeat CPU 0 instructions: 15000003 cycles: 5767256 heartbeat IPC: 2.9502 cumulative IPC: 2.60089 (Simulation time: 0 hr 32 min 37 sec) 
Heartbeat CPU 0 instructions: 16000000 cycles: 6132163 heartbeat IPC: 2.74042 cumulative IPC: 2.60919 (Simulation time: 0 hr 35 min 0 sec) 
Heartbeat CPU 0 instructions: 17000000 cycles: 6579197 heartbeat IPC: 2.23697 cumulative IPC: 2.5839 (Simulation time: 0 hr 37 min 18 sec) 
Heartbeat CPU 0 instructions: 18000000 cycles: 7018539 heartbeat IPC: 2.27613 cumulative IPC: 2.56464 (Simulation time: 0 hr 39 min 20 sec) 
Heartbeat CPU 0 instructions: 19000001 cycles: 7463530 heartbeat IPC: 2.24724 cumulative IPC: 2.54571 (Simulation time: 0 hr 41 min 50 sec) 
Heartbeat CPU 0 instructions: 20000000 cycles: 7802583 heartbeat IPC: 2.94939 cumulative IPC: 2.56325 (Simulation time: 0 hr 43 min 58 sec) 
Heartbeat CPU 0 instructions: 21000000 cycles: 8184192 heartbeat IPC: 2.62048 cumulative IPC: 2.56592 (Simulation time: 0 hr 46 min 19 sec) 
Heartbeat CPU 0 instructions: 22000000 cycles: 8650006 heartbeat IPC: 2.14678 cumulative IPC: 2.54335 (Simulation time: 0 hr 48 min 35 sec) 
Heartbeat CPU 0 instructions: 23000001 cycles: 8989033 heartbeat IPC: 2.94962 cumulative IPC: 2.55867 (Simulation time: 0 hr 50 min 47 sec) 
Heartbeat CPU 0 instructions: 24000000 cycles: 9339352 heartbeat IPC: 2.85454 cumulative IPC: 2.56977 (Simulation time: 0 hr 53 min 29 sec) 
Heartbeat CPU 0 instructions: 25000000 cycles: 9747655 heartbeat IPC: 2.44916 cumulative IPC: 2.56472 (Simulation time: 0 hr 55 min 46 sec) 
Heartbeat CPU 0 instructions: 26000003 cycles: 10150573 heartbeat IPC: 2.4819 cumulative IPC: 2.56143 (Simulation time: 0 hr 58 min 24 sec) 
Heartbeat CPU 0 instructions: 27000002 cycles: 10489517 heartbeat IPC: 2.95034 cumulative IPC: 2.574 (Simulation time: 1 hr 0 min 33 sec) 
Heartbeat CPU 0 instructions: 28000000 cycles: 10866653 heartbeat IPC: 2.65156 cumulative IPC: 2.57669 (Simulation time: 1 hr 2 min 45 sec) 
Heartbeat CPU 0 instructions: 29000001 cycles: 11307311 heartbeat IPC: 2.26934 cumulative IPC: 2.56471 (Simulation time: 1 hr 5 min 7 sec) 
Heartbeat CPU 0 instructions: 30000002 cycles: 11646335 heartbeat IPC: 2.94965 cumulative IPC: 2.57592 (Simulation time: 1 hr 7 min 43 sec) 
Heartbeat CPU 0 instructions: 31000003 cycles: 12016969 heartbeat IPC: 2.69808 cumulative IPC: 2.57969 (Simulation time: 1 hr 9 min 59 sec) 
Heartbeat CPU 0 instructions: 32000000 cycles: 12459722 heartbeat IPC: 2.25859 cumulative IPC: 2.56828 (Simulation time: 1 hr 12 min 3 sec) 
Heartbeat CPU 0 instructions: 33000000 cycles: 12798795 heartbeat IPC: 2.94922 cumulative IPC: 2.57837 (Simulation time: 1 hr 14 min 3 sec) 
Heartbeat CPU 0 instructions: 34000001 cycles: 13186498 heartbeat IPC: 2.5793 cumulative IPC: 2.5784 (Simulation time: 1 hr 16 min 57 sec) 
Heartbeat CPU 0 instructions: 35000003 cycles: 13647627 heartbeat IPC: 2.16859 cumulative IPC: 2.56455 (Simulation time: 1 hr 18 min 57 sec) 
Heartbeat CPU 0 instructions: 36000000 cycles: 13986502 heartbeat IPC: 2.95093 cumulative IPC: 2.57391 (Simulation time: 1 hr 20 min 56 sec) 
Heartbeat CPU 0 instructions: 37000003 cycles: 14343127 heartbeat IPC: 2.80407 cumulative IPC: 2.57963 (Simulation time: 1 hr 22 min 58 sec) 
Heartbeat CPU 0 instructions: 38000000 cycles: 14731221 heartbeat IPC: 2.57669 cumulative IPC: 2.57956 (Simulation time: 1 hr 24 min 58 sec) 
Heartbeat CPU 0 instructions: 39000002 cycles: 15174396 heartbeat IPC: 2.25645 cumulative IPC: 2.57012 (Simulation time: 1 hr 27 min 20 sec) 
Heartbeat CPU 0 instructions: 40000000 cycles: 15513420 heartbeat IPC: 2.94964 cumulative IPC: 2.57841 (Simulation time: 1 hr 29 min 48 sec) 
Heartbeat CPU 0 instructions: 41000003 cycles: 15898045 heartbeat IPC: 2.59994 cumulative IPC: 2.57893 (Simulation time: 1 hr 32 min 22 sec) 
Heartbeat CPU 0 instructions: 42000002 cycles: 16352742 heartbeat IPC: 2.19926 cumulative IPC: 2.56838 (Simulation time: 1 hr 34 min 47 sec) 
Heartbeat CPU 0 instructions: 43000001 cycles: 16691723 heartbeat IPC: 2.95001 cumulative IPC: 2.57613 (Simulation time: 1 hr 37 min 9 sec) 
Heartbeat CPU 0 instructions: 44000000 cycles: 17055871 heartbeat IPC: 2.74613 cumulative IPC: 2.57976 (Simulation time: 1 hr 39 min 39 sec) 
Heartbeat CPU 0 instructions: 45000000 cycles: 17469046 heartbeat IPC: 2.42028 cumulative IPC: 2.57598 (Simulation time: 1 hr 41 min 56 sec) 
Heartbeat CPU 0 instructions: 46000002 cycles: 17868589 heartbeat IPC: 2.50286 cumulative IPC: 2.57435 (Simulation time: 1 hr 44 min 4 sec) 
Heartbeat CPU 0 instructions: 47000003 cycles: 18207549 heartbeat IPC: 2.9502 cumulative IPC: 2.58135 (Simulation time: 1 hr 46 min 3 sec) 
Heartbeat CPU 0 instructions: 48000000 cycles: 18584528 heartbeat IPC: 2.65266 cumulative IPC: 2.58279 (Simulation time: 1 hr 48 min 23 sec) 
Heartbeat CPU 0 instructions: 49000002 cycles: 19025567 heartbeat IPC: 2.26738 cumulative IPC: 2.57548 (Simulation time: 1 hr 50 min 32 sec) 
Heartbeat CPU 0 instructions: 50000002 cycles: 19364513 heartbeat IPC: 2.95032 cumulative IPC: 2.58204 (Simulation time: 1 hr 52 min 16 sec) 

Warmup complete CPU 0 instructions: 50000002 cycles: 19364513 (Simulation time: 1 hr 52 min 16 sec) 

Heartbeat CPU 0 instructions: 51000001 cycles: 20724060 heartbeat IPC: 0.735538 cumulative IPC: 0.735538 (Simulation time: 1 hr 54 min 48 sec) 
Heartbeat CPU 0 instructions: 52000000 cycles: 21608869 heartbeat IPC: 1.13019 cumulative IPC: 0.891123 (Simulation time: 1 hr 57 min 10 sec) 
Heartbeat CPU 0 instructions: 53000002 cycles: 22277243 heartbeat IPC: 1.49617 cumulative IPC: 1.02996 (Simulation time: 1 hr 59 min 35 sec) 
Heartbeat CPU 0 instructions: 54000003 cycles: 23465037 heartbeat IPC: 0.841898 cumulative IPC: 0.975485 (Simulation time: 2 hr 1 min 53 sec) 
Heartbeat CPU 0 instructions: 55000001 cycles: 24450990 heartbeat IPC: 1.01425 cumulative IPC: 0.982998 (Simulation time: 2 hr 4 min 14 sec) 
Heartbeat CPU 0 instructions: 56000000 cycles: 25193745 heartbeat IPC: 1.34634 cumulative IPC: 1.02929 (Simulation time: 2 hr 6 min 21 sec) 
Heartbeat CPU 0 instructions: 57000000 cycles: 26023014 heartbeat IPC: 1.20588 cumulative IPC: 1.05129 (Simulation time: 2 hr 8 min 32 sec) 
Heartbeat CPU 0 instructions: 58000000 cycles: 27293308 heartbeat IPC: 0.787219 cumulative IPC: 1.00898 (Simulation time: 2 hr 10 min 49 sec) 
Heartbeat CPU 0 instructions: 59000002 cycles: 28097785 heartbeat IPC: 1.24305 cumulative IPC: 1.03054 (Simulation time: 2 hr 13 min 0 sec) 
Heartbeat CPU 0 instructions: 60000000 cycles: 28698830 heartbeat IPC: 1.66377 cumulative IPC: 1.07132 (Simulation time: 2 hr 14 min 59 sec) 
Heartbeat CPU 0 instructions: 61000000 cycles: 30221739 heartbeat IPC: 0.656638 cumulative IPC: 1.01315 (Simulation time: 2 hr 17 min 27 sec) 
Heartbeat CPU 0 instructions: 62000002 cycles: 31365254 heartbeat IPC: 0.874498 cumulative IPC: 0.999938 (Simulation time: 2 hr 19 min 53 sec) 
Heartbeat CPU 0 instructions: 63000001 cycles: 32252060 heartbeat IPC: 1.12764 cumulative IPC: 1.00873 (Simulation time: 2 hr 22 min 10 sec) 
Heartbeat CPU 0 instructions: 64000000 cycles: 32950923 heartbeat IPC: 1.43089 cumulative IPC: 1.03044 (Simulation time: 2 hr 24 min 21 sec) 
Heartbeat CPU 0 instructions: 65000000 cycles: 33994971 heartbeat IPC: 0.95781 cumulative IPC: 1.02526 (Simulation time: 2 hr 26 min 46 sec) 
Heartbeat CPU 0 instructions: 66000001 cycles: 35101651 heartbeat IPC: 0.903604 cumulative IPC: 1.0167 (Simulation time: 2 hr 28 min 48 sec) 
Heartbeat CPU 0 instructions: 67000000 cycles: 35864207 heartbeat IPC: 1.31138 cumulative IPC: 1.03032 (Simulation time: 2 hr 30 min 40 sec) 
Heartbeat CPU 0 instructions: 68000000 cycles: 36549970 heartbeat IPC: 1.45823 cumulative IPC: 1.0474 (Simulation time: 2 hr 32 min 46 sec) 
Heartbeat CPU 0 instructions: 69000003 cycles: 37878279 heartbeat IPC: 0.752839 cumulative IPC: 1.02626 (Simulation time: 2 hr 35 min 21 sec) 
Heartbeat CPU 0 instructions: 70000003 cycles: 38745335 heartbeat IPC: 1.15333 cumulative IPC: 1.03195 (Simulation time: 2 hr 37 min 42 sec) 
Heartbeat CPU 0 instructions: 71000001 cycles: 39363341 heartbeat IPC: 1.6181 cumulative IPC: 1.05006 (Simulation time: 2 hr 40 min 14 sec) 
Heartbeat CPU 0 instructions: 72000000 cycles: 40726557 heartbeat IPC: 0.733559 cumulative IPC: 1.02986 (Simulation time: 2 hr 42 min 44 sec) 
Heartbeat CPU 0 instructions: 73000001 cycles: 41613202 heartbeat IPC: 1.12785 cumulative IPC: 1.03377 (Simulation time: 2 hr 45 min 10 sec) 
Heartbeat CPU 0 instructions: 74000000 cycles: 42298291 heartbeat IPC: 1.45966 cumulative IPC: 1.04649 (Simulation time: 2 hr 47 min 20 sec) 
Heartbeat CPU 0 instructions: 75000003 cycles: 43400958 heartbeat IPC: 0.906895 cumulative IPC: 1.04009 (Simulation time: 2 hr 50 min 14 sec) 
Heartbeat CPU 0 instructions: 76000000 cycles: 44450463 heartbeat IPC: 0.952827 cumulative IPC: 1.03644 (Simulation time: 2 hr 52 min 51 sec) 
Heartbeat CPU 0 instructions: 77000002 cycles: 45201731 heartbeat IPC: 1.33109 cumulative IPC: 1.045 (Simulation time: 2 hr 55 min 17 sec) 
Heartbeat CPU 0 instructions: 78000002 cycles: 45950544 heartbeat IPC: 1.33545 cumulative IPC: 1.05318 (Simulation time: 2 hr 58 min 16 sec) 
Heartbeat CPU 0 instructions: 79000001 cycles: 47210506 heartbeat IPC: 0.793674 cumulative IPC: 1.04144 (Simulation time: 3 hr 1 min 7 sec) 
Heartbeat CPU 0 instructions: 80000000 cycles: 48053698 heartbeat IPC: 1.18597 cumulative IPC: 1.04569 (Simulation time: 3 hr 4 min 4 sec) 
Heartbeat CPU 0 instructions: 81000001 cycles: 48662166 heartbeat IPC: 1.64347 cumulative IPC: 1.05811 (Simulation time: 3 hr 6 min 30 sec) 
Heartbeat CPU 0 instructions: 82000000 cycles: 50003335 heartbeat IPC: 0.745617 cumulative IPC: 1.04443 (Simulation time: 3 hr 8 min 50 sec) 
Heartbeat CPU 0 instructions: 83000001 cycles: 50878550 heartbeat IPC: 1.14258 cumulative IPC: 1.04715 (Simulation time: 3 hr 11 min 2 sec) 
Heartbeat CPU 0 instructions: 84000000 cycles: 51536035 heartbeat IPC: 1.52095 cumulative IPC: 1.05684 (Simulation time: 3 hr 13 min 8 sec) 
Heartbeat CPU 0 instructions: 85000002 cycles: 52743188 heartbeat IPC: 0.828397 cumulative IPC: 1.04857 (Simulation time: 3 hr 16 min 3 sec) 
Heartbeat CPU 0 instructions: 86000003 cycles: 53712704 heartbeat IPC: 1.03144 cumulative IPC: 1.04809 (Simulation time: 3 hr 18 min 39 sec) 
Heartbeat CPU 0 instructions: 87000001 cycles: 54433503 heartbeat IPC: 1.38735 cumulative IPC: 1.05506 (Simulation time: 3 hr 22 min 8 sec) 
Heartbeat CPU 0 instructions: 88000000 cycles: 55370717 heartbeat IPC: 1.06699 cumulative IPC: 1.05537 (Simulation time: 3 hr 24 min 26 sec) 
Heartbeat CPU 0 instructions: 89000000 cycles: 56532349 heartbeat IPC: 0.860858 cumulative IPC: 1.04929 (Simulation time: 3 hr 27 min 2 sec) 
Heartbeat CPU 0 instructions: 90000003 cycles: 57308175 heartbeat IPC: 1.28895 cumulative IPC: 1.05419 (Simulation time: 3 hr 29 min 20 sec) 
Heartbeat CPU 0 instructions: 91000000 cycles: 57904279 heartbeat IPC: 1.67755 cumulative IPC: 1.06384 (Simulation time: 3 hr 31 min 39 sec) 
Heartbeat CPU 0 instructions: 92000000 cycles: 59312340 heartbeat IPC: 0.710196 cumulative IPC: 1.05137 (Simulation time: 3 hr 34 min 25 sec) 
Heartbeat CPU 0 instructions: 93000000 cycles: 60170172 heartbeat IPC: 1.16573 cumulative IPC: 1.05378 (Simulation time: 3 hr 36 min 51 sec) 
Heartbeat CPU 0 instructions: 94000001 cycles: 60801191 heartbeat IPC: 1.58474 cumulative IPC: 1.06186 (Simulation time: 3 hr 39 min 34 sec) 
Heartbeat CPU 0 instructions: 95000003 cycles: 62140248 heartbeat IPC: 0.746796 cumulative IPC: 1.052 (Simulation time: 3 hr 42 min 52 sec) 
Heartbeat CPU 0 instructions: 96000000 cycles: 63042760 heartbeat IPC: 1.10802 cumulative IPC: 1.05316 (Simulation time: 3 hr 45 min 15 sec) 
Heartbeat CPU 0 instructions: 97000002 cycles: 63738088 heartbeat IPC: 1.43817 cumulative IPC: 1.05919 (Simulation time: 3 hr 47 min 15 sec) 
Heartbeat CPU 0 instructions: 98000000 cycles: 64787398 heartbeat IPC: 0.953005 cumulative IPC: 1.05674 (Simulation time: 3 hr 49 min 43 sec) 
Heartbeat CPU 0 instructions: 99000003 cycles: 66032390 heartbeat IPC: 0.80322 cumulative IPC: 1.04997 (Simulation time: 3 hr 52 min 28 sec) 
Heartbeat CPU 0 instructions: 100000000 cycles: 66826028 heartbeat IPC: 1.26002 cumulative IPC: 1.05349 (Simulation time: 3 hr 55 min 22 sec) 
Heartbeat CPU 0 instructions: 101000000 cycles: 67425031 heartbeat IPC: 1.66944 cumulative IPC: 1.06116 (Simulation time: 3 hr 58 min 18 sec) 
Heartbeat CPU 0 instructions: 102000000 cycles: 69094314 heartbeat IPC: 0.59906 cumulative IPC: 1.04565 (Simulation time: 4 hr 2 min 5 sec) 
Heartbeat CPU 0 instructions: 103000000 cycles: 70414692 heartbeat IPC: 0.757359 cumulative IPC: 1.03819 (Simulation time: 4 hr 5 min 13 sec) 
Heartbeat CPU 0 instructions: 104000000 cycles: 71414500 heartbeat IPC: 1.00019 cumulative IPC: 1.03746 (Simulation time: 4 hr 7 min 40 sec) 
Heartbeat CPU 0 instructions: 105000003 cycles: 72200393 heartbeat IPC: 1.27244 cumulative IPC: 1.04096 (Simulation time: 4 hr 10 min 17 sec) 
Heartbeat CPU 0 instructions: 106000000 cycles: 72845656 heartbeat IPC: 1.54975 cumulative IPC: 1.0471 (Simulation time: 4 hr 13 min 38 sec) 
Heartbeat CPU 0 instructions: 107000001 cycles: 74591083 heartbeat IPC: 0.572926 cumulative IPC: 1.03211 (Simulation time: 4 hr 17 min 1 sec) 
Heartbeat CPU 0 instructions: 108000000 cycles: 75572918 heartbeat IPC: 1.0185 cumulative IPC: 1.03187 (Simulation time: 4 hr 19 min 13 sec) 
Heartbeat CPU 0 instructions: 109000000 cycles: 76277933 heartbeat IPC: 1.41841 cumulative IPC: 1.03666 (Simulation time: 4 hr 21 min 43 sec) 
Heartbeat CPU 0 instructions: 110000003 cycles: 77334518 heartbeat IPC: 0.946448 cumulative IPC: 1.03502 (Simulation time: 4 hr 24 min 36 sec) 
Heartbeat CPU 0 instructions: 111000000 cycles: 78959314 heartbeat IPC: 0.61546 cumulative IPC: 1.02358 (Simulation time: 4 hr 27 min 51 sec) 
Heartbeat CPU 0 instructions: 112000000 cycles: 79968824 heartbeat IPC: 0.99058 cumulative IPC: 1.02303 (Simulation time: 4 hr 30 min 45 sec) 
Heartbeat CPU 0 instructions: 113000002 cycles: 80637291 heartbeat IPC: 1.49596 cumulative IPC: 1.02819 (Simulation time: 4 hr 33 min 2 sec) 
Heartbeat CPU 0 instructions: 114000000 cycles: 81887115 heartbeat IPC: 0.800111 cumulative IPC: 1.02363 (Simulation time: 4 hr 35 min 31 sec) 
Heartbeat CPU 0 instructions: 115000001 cycles: 83504700 heartbeat IPC: 0.618206 cumulative IPC: 1.01341 (Simulation time: 4 hr 37 min 52 sec) 
Heartbeat CPU 0 instructions: 116000000 cycles: 84429563 heartbeat IPC: 1.08124 cumulative IPC: 1.01437 (Simulation time: 4 hr 40 min 16 sec) 
Heartbeat CPU 0 instructions: 117000003 cycles: 85082535 heartbeat IPC: 1.53146 cumulative IPC: 1.01951 (Simulation time: 4 hr 42 min 45 sec) 
Heartbeat CPU 0 instructions: 118000003 cycles: 86435669 heartbeat IPC: 0.739025 cumulative IPC: 1.01385 (Simulation time: 4 hr 45 min 17 sec) 
Heartbeat CPU 0 instructions: 119000003 cycles: 87622333 heartbeat IPC: 0.842699 cumulative IPC: 1.01087 (Simulation time: 4 hr 47 min 47 sec) 
Heartbeat CPU 0 instructions: 120000000 cycles: 88391899 heartbeat IPC: 1.29943 cumulative IPC: 1.01409 (Simulation time: 4 hr 50 min 25 sec) 
Heartbeat CPU 0 instructions: 121000001 cycles: 89058731 heartbeat IPC: 1.49963 cumulative IPC: 1.01874 (Simulation time: 4 hr 53 min 13 sec) 
Heartbeat CPU 0 instructions: 122000002 cycles: 90563205 heartbeat IPC: 0.664685 cumulative IPC: 1.01125 (Simulation time: 4 hr 55 min 44 sec) 
Heartbeat CPU 0 instructions: 123000000 cycles: 91415049 heartbeat IPC: 1.17392 cumulative IPC: 1.01318 (Simulation time: 4 hr 59 min 3 sec) 
Heartbeat CPU 0 instructions: 124000000 cycles: 92065392 heartbeat IPC: 1.53765 cumulative IPC: 1.01787 (Simulation time: 5 hr 1 min 38 sec) 
Heartbeat CPU 0 instructions: 125000002 cycles: 93351133 heartbeat IPC: 0.777763 cumulative IPC: 1.0137 (Simulation time: 5 hr 4 min 53 sec) 
Heartbeat CPU 0 instructions: 126000000 cycles: 94282041 heartbeat IPC: 1.07422 cumulative IPC: 1.01445 (Simulation time: 5 hr 7 min 34 sec) 
Heartbeat CPU 0 instructions: 127000000 cycles: 95004244 heartbeat IPC: 1.38465 cumulative IPC: 1.01798 (Simulation time: 5 hr 9 min 46 sec) 
Heartbeat CPU 0 instructions: 128000000 cycles: 95777562 heartbeat IPC: 1.29313 cumulative IPC: 1.02077 (Simulation time: 5 hr 12 min 15 sec) 
Heartbeat CPU 0 instructions: 129000002 cycles: 96714431 heartbeat IPC: 1.06739 cumulative IPC: 1.02133 (Simulation time: 5 hr 14 min 19 sec) 
Heartbeat CPU 0 instructions: 130000000 cycles: 97433158 heartbeat IPC: 1.39135 cumulative IPC: 1.02474 (Simulation time: 5 hr 16 min 52 sec) 
Heartbeat CPU 0 instructions: 131000000 cycles: 98116583 heartbeat IPC: 1.46322 cumulative IPC: 1.02854 (Simulation time: 5 hr 19 min 17 sec) 
Heartbeat CPU 0 instructions: 132000000 cycles: 99117572 heartbeat IPC: 0.999012 cumulative IPC: 1.02817 (Simulation time: 5 hr 21 min 42 sec) 
Heartbeat CPU 0 instructions: 133000002 cycles: 99845445 heartbeat IPC: 1.37387 cumulative IPC: 1.0313 (Simulation time: 5 hr 24 min 9 sec) 
Heartbeat CPU 0 instructions: 134000000 cycles: 100580388 heartbeat IPC: 1.36065 cumulative IPC: 1.03428 (Simulation time: 5 hr 26 min 14 sec) 
Heartbeat CPU 0 instructions: 135000001 cycles: 101918986 heartbeat IPC: 0.747051 cumulative IPC: 1.02962 (Simulation time: 5 hr 29 min 1 sec) 
Heartbeat CPU 0 instructions: 136000000 cycles: 102783593 heartbeat IPC: 1.15659 cumulative IPC: 1.03094 (Simulation time: 5 hr 31 min 41 sec) 
Heartbeat CPU 0 instructions: 137000003 cycles: 103398461 heartbeat IPC: 1.62637 cumulative IPC: 1.0353 (Simulation time: 5 hr 34 min 11 sec) 
Heartbeat CPU 0 instructions: 138000001 cycles: 104791648 heartbeat IPC: 0.717777 cumulative IPC: 1.03012 (Simulation time: 5 hr 37 min 4 sec) 
Heartbeat CPU 0 instructions: 139000000 cycles: 105687702 heartbeat IPC: 1.116 cumulative IPC: 1.03101 (Simulation time: 5 hr 39 min 21 sec) 
Heartbeat CPU 0 instructions: 140000000 cycles: 106373087 heartbeat IPC: 1.45903 cumulative IPC: 1.03438 (Simulation time: 5 hr 41 min 47 sec) 
Heartbeat CPU 0 instructions: 141000001 cycles: 107424377 heartbeat IPC: 0.951213 cumulative IPC: 1.03339 (Simulation time: 5 hr 44 min 2 sec) 
Heartbeat CPU 0 instructions: 142000000 cycles: 108524214 heartbeat IPC: 0.909225 cumulative IPC: 1.03186 (Simulation time: 5 hr 46 min 41 sec) 
Heartbeat CPU 0 instructions: 143000000 cycles: 109275052 heartbeat IPC: 1.33185 cumulative IPC: 1.03436 (Simulation time: 5 hr 49 min 8 sec) 
Heartbeat CPU 0 instructions: 144000000 cycles: 109964859 heartbeat IPC: 1.44968 cumulative IPC: 1.03752 (Simulation time: 5 hr 51 min 22 sec) 
Heartbeat CPU 0 instructions: 145000002 cycles: 111283940 heartbeat IPC: 0.758105 cumulative IPC: 1.03351 (Simulation time: 5 hr 53 min 43 sec) 
Heartbeat CPU 0 instructions: 146000000 cycles: 112136196 heartbeat IPC: 1.17335 cumulative IPC: 1.0348 (Simulation time: 5 hr 55 min 48 sec) 
Heartbeat CPU 0 instructions: 147000002 cycles: 112750141 heartbeat IPC: 1.62881 cumulative IPC: 1.0387 (Simulation time: 5 hr 57 min 57 sec) 
Heartbeat CPU 0 instructions: 148000000 cycles: 114173827 heartbeat IPC: 0.702401 cumulative IPC: 1.03365 (Simulation time: 6 hr 0 min 33 sec) 
Heartbeat CPU 0 instructions: 149000000 cycles: 115337374 heartbeat IPC: 0.859441 cumulative IPC: 1.03154 (Simulation time: 6 hr 3 min 15 sec) 
Heartbeat CPU 0 instructions: 150000001 cycles: 116251447 heartbeat IPC: 1.09401 cumulative IPC: 1.03213 (Simulation time: 6 hr 5 min 25 sec) 
Finished CPU 0 instructions: 100000003 cycles: 96886935 cummulative IPC: 1.03213 (Simulation time: 6 hr 5 min 25 sec) 

ChampSim completed all CPUs

Region of Interest Statistics

CPU 0 cummulative IPC: 1.03213 instructions: 100000003 cycles: 96886935
LLC TOTAL     ACCESS:    1600403  HIT:     997844  MISS:     602559
LLC LOAD      ACCESS:     216476  HIT:      92873  MISS:     123603
LLC RFO       ACCESS:     111639  HIT:     106759  MISS:       4880
LLC PREFETCH  ACCESS:    1135316  HIT:     670596  MISS:     464720
LLC WRITEBACK ACCESS:     136972  HIT:     127616  MISS:       9356
