
*** ChampSim Multicore Out-of-Order Simulator ***

Warmup Instructions: 50000000
Simulation Instructions: 100000000
Configuration: 2
Number of CPUs: 1
LLC sets: 2048
LLC ways: 16
Off-chip DRAM Channels: 1 Width: 64-bit Data Rate: 1600 MT/s

CPU 0 runs /datasets/cs240c-wi22-a00-public/data/Assignment2-gz/astar_23B.trace.gz
CPU 0 L1D next line prefetcher
CPU 0 L2C IP-based stride prefetcher
Heartbeat CPU 0 instructions: 1000000 cycles: 359875 heartbeat IPC: 2.77874 cumulative IPC: 2.77874 (Simulation time: 0 hr 2 min 29 sec) 
Heartbeat CPU 0 instructions: 2000001 cycles: 720498 heartbeat IPC: 2.77298 cumulative IPC: 2.77586 (Simulation time: 0 hr 5 min 2 sec) 
Heartbeat CPU 0 instructions: 3000000 cycles: 1079205 heartbeat IPC: 2.78779 cumulative IPC: 2.77982 (Simulation time: 0 hr 7 min 6 sec) 
Heartbeat CPU 0 instructions: 4000000 cycles: 1440457 heartbeat IPC: 2.76815 cumulative IPC: 2.7769 (Simulation time: 0 hr 9 min 25 sec) 
Heartbeat CPU 0 instructions: 5000000 cycles: 1802384 heartbeat IPC: 2.76299 cumulative IPC: 2.7741 (Simulation time: 0 hr 11 min 33 sec) 
Heartbeat CPU 0 instructions: 6000002 cycles: 2163890 heartbeat IPC: 2.76621 cumulative IPC: 2.77279 (Simulation time: 0 hr 13 min 55 sec) 
Heartbeat CPU 0 instructions: 7000002 cycles: 2525238 heartbeat IPC: 2.76742 cumulative IPC: 2.77202 (Simulation time: 0 hr 16 min 24 sec) 
Heartbeat CPU 0 instructions: 8000000 cycles: 2887974 heartbeat IPC: 2.75682 cumulative IPC: 2.77011 (Simulation time: 0 hr 18 min 50 sec) 
Heartbeat CPU 0 instructions: 9000000 cycles: 3250765 heartbeat IPC: 2.75641 cumulative IPC: 2.76858 (Simulation time: 0 hr 21 min 8 sec) 
Heartbeat CPU 0 instructions: 10000003 cycles: 3615483 heartbeat IPC: 2.74185 cumulative IPC: 2.76588 (Simulation time: 0 hr 23 min 46 sec) 
Heartbeat CPU 0 instructions: 11000000 cycles: 3979632 heartbeat IPC: 2.74612 cumulative IPC: 2.76407 (Simulation time: 0 hr 25 min 54 sec) 
Heartbeat CPU 0 instructions: 12000000 cycles: 4344196 heartbeat IPC: 2.743 cumulative IPC: 2.76231 (Simulation time: 0 hr 28 min 28 sec) 
Heartbeat CPU 0 instructions: 13000001 cycles: 4706715 heartbeat IPC: 2.75848 cumulative IPC: 2.76201 (Simulation time: 0 hr 30 min 37 sec) 
Heartbeat CPU 0 instructions: 14000003 cycles: 5069617 heartbeat IPC: 2.75557 cumulative IPC: 2.76155 (Simulation time: 0 hr 33 min 21 sec) 
Heartbeat CPU 0 instructions: 15000003 cycles: 5432313 heartbeat IPC: 2.75713 cumulative IPC: 2.76126 (Simulation time: 0 hr 36 min 1 sec) 
Heartbeat CPU 0 instructions: 16000000 cycles: 5794753 heartbeat IPC: 2.75907 cumulative IPC: 2.76112 (Simulation time: 0 hr 38 min 38 sec) 
Heartbeat CPU 0 instructions: 17000000 cycles: 6155943 heartbeat IPC: 2.76863 cumulative IPC: 2.76156 (Simulation time: 0 hr 40 min 56 sec) 
Heartbeat CPU 0 instructions: 18000001 cycles: 6516220 heartbeat IPC: 2.77564 cumulative IPC: 2.76234 (Simulation time: 0 hr 43 min 27 sec) 
Heartbeat CPU 0 instructions: 19000002 cycles: 6876966 heartbeat IPC: 2.77204 cumulative IPC: 2.76285 (Simulation time: 0 hr 46 min 1 sec) 
Heartbeat CPU 0 instructions: 20000000 cycles: 7237050 heartbeat IPC: 2.77712 cumulative IPC: 2.76356 (Simulation time: 0 hr 48 min 40 sec) 
Heartbeat CPU 0 instructions: 21000001 cycles: 7597982 heartbeat IPC: 2.77061 cumulative IPC: 2.76389 (Simulation time: 0 hr 51 min 43 sec) 
Heartbeat CPU 0 instructions: 22000000 cycles: 7960063 heartbeat IPC: 2.76181 cumulative IPC: 2.7638 (Simulation time: 0 hr 54 min 10 sec) 
Heartbeat CPU 0 instructions: 23000000 cycles: 8321377 heartbeat IPC: 2.76768 cumulative IPC: 2.76397 (Simulation time: 0 hr 56 min 39 sec) 
Heartbeat CPU 0 instructions: 24000000 cycles: 8682379 heartbeat IPC: 2.77007 cumulative IPC: 2.76422 (Simulation time: 0 hr 58 min 55 sec) 
Heartbeat CPU 0 instructions: 25000001 cycles: 9043100 heartbeat IPC: 2.77223 cumulative IPC: 2.76454 (Simulation time: 1 hr 1 min 30 sec) 
Heartbeat CPU 0 instructions: 26000002 cycles: 9404318 heartbeat IPC: 2.76841 cumulative IPC: 2.76469 (Simulation time: 1 hr 4 min 45 sec) 
Heartbeat CPU 0 instructions: 27000003 cycles: 9764943 heartbeat IPC: 2.77297 cumulative IPC: 2.76499 (Simulation time: 1 hr 7 min 54 sec) 
Heartbeat CPU 0 instructions: 28000000 cycles: 10126311 heartbeat IPC: 2.76725 cumulative IPC: 2.76507 (Simulation time: 1 hr 10 min 26 sec) 
Heartbeat CPU 0 instructions: 29000000 cycles: 10487977 heartbeat IPC: 2.76498 cumulative IPC: 2.76507 (Simulation time: 1 hr 13 min 23 sec) 
Heartbeat CPU 0 instructions: 30000000 cycles: 10850313 heartbeat IPC: 2.75987 cumulative IPC: 2.7649 (Simulation time: 1 hr 16 min 11 sec) 
Heartbeat CPU 0 instructions: 31000001 cycles: 11211619 heartbeat IPC: 2.76774 cumulative IPC: 2.76499 (Simulation time: 1 hr 19 min 3 sec) 
Heartbeat CPU 0 instructions: 32000000 cycles: 11572477 heartbeat IPC: 2.77117 cumulative IPC: 2.76518 (Simulation time: 1 hr 21 min 46 sec) 
Heartbeat CPU 0 instructions: 33000002 cycles: 11933580 heartbeat IPC: 2.7693 cumulative IPC: 2.76531 (Simulation time: 1 hr 24 min 26 sec) 
Heartbeat CPU 0 instructions: 34000001 cycles: 12295381 heartbeat IPC: 2.76395 cumulative IPC: 2.76527 (Simulation time: 1 hr 27 min 39 sec) 
Heartbeat CPU 0 instructions: 35000003 cycles: 12656161 heartbeat IPC: 2.77178 cumulative IPC: 2.76545 (Simulation time: 1 hr 30 min 27 sec) 
Heartbeat CPU 0 instructions: 36000000 cycles: 13016116 heartbeat IPC: 2.77812 cumulative IPC: 2.7658 (Simulation time: 1 hr 33 min 16 sec) 
Heartbeat CPU 0 instructions: 37000000 cycles: 13376012 heartbeat IPC: 2.77858 cumulative IPC: 2.76615 (Simulation time: 1 hr 36 min 5 sec) 
Heartbeat CPU 0 instructions: 38000003 cycles: 13736174 heartbeat IPC: 2.77654 cumulative IPC: 2.76642 (Simulation time: 1 hr 38 min 39 sec) 
Heartbeat CPU 0 instructions: 39000003 cycles: 14096939 heartbeat IPC: 2.77189 cumulative IPC: 2.76656 (Simulation time: 1 hr 41 min 23 sec) 
Heartbeat CPU 0 instructions: 40000000 cycles: 14457288 heartbeat IPC: 2.77508 cumulative IPC: 2.76677 (Simulation time: 1 hr 44 min 13 sec) 
Heartbeat CPU 0 instructions: 41000002 cycles: 14817604 heartbeat IPC: 2.77535 cumulative IPC: 2.76698 (Simulation time: 1 hr 46 min 52 sec) 
Heartbeat CPU 0 instructions: 42000003 cycles: 15179502 heartbeat IPC: 2.76321 cumulative IPC: 2.76689 (Simulation time: 1 hr 49 min 28 sec) 
Heartbeat CPU 0 instructions: 43000003 cycles: 15540739 heartbeat IPC: 2.76827 cumulative IPC: 2.76692 (Simulation time: 1 hr 52 min 18 sec) 
Heartbeat CPU 0 instructions: 44000000 cycles: 15903666 heartbeat IPC: 2.75537 cumulative IPC: 2.76666 (Simulation time: 1 hr 54 min 44 sec) 
Heartbeat CPU 0 instructions: 45000002 cycles: 16267848 heartbeat IPC: 2.74589 cumulative IPC: 2.76619 (Simulation time: 1 hr 57 min 6 sec) 
Heartbeat CPU 0 instructions: 46000001 cycles: 16632028 heartbeat IPC: 2.74589 cumulative IPC: 2.76575 (Simulation time: 1 hr 59 min 49 sec) 
Heartbeat CPU 0 instructions: 47000002 cycles: 16995849 heartbeat IPC: 2.74861 cumulative IPC: 2.76538 (Simulation time: 2 hr 2 min 15 sec) 
Heartbeat CPU 0 instructions: 48000000 cycles: 17358404 heartbeat IPC: 2.7582 cumulative IPC: 2.76523 (Simulation time: 2 hr 4 min 41 sec) 
Heartbeat CPU 0 instructions: 49000000 cycles: 17720719 heartbeat IPC: 2.76003 cumulative IPC: 2.76512 (Simulation time: 2 hr 7 min 5 sec) 
Heartbeat CPU 0 instructions: 50000000 cycles: 18082556 heartbeat IPC: 2.76368 cumulative IPC: 2.7651 (Simulation time: 2 hr 9 min 41 sec) 

Warmup complete CPU 0 instructions: 50000004 cycles: 18082557 (Simulation time: 2 hr 9 min 41 sec) 

Heartbeat CPU 0 instructions: 51000001 cycles: 23588379 heartbeat IPC: 0.181626 cumulative IPC: 0.181625 (Simulation time: 2 hr 12 min 23 sec) 
Heartbeat CPU 0 instructions: 52000000 cycles: 29279155 heartbeat IPC: 0.175723 cumulative IPC: 0.178625 (Simulation time: 2 hr 15 min 9 sec) 
Heartbeat CPU 0 instructions: 53000000 cycles: 33479869 heartbeat IPC: 0.238055 cumulative IPC: 0.194839 (Simulation time: 2 hr 17 min 26 sec) 
Heartbeat CPU 0 instructions: 54000002 cycles: 37672176 heartbeat IPC: 0.238533 cumulative IPC: 0.20419 (Simulation time: 2 hr 20 min 8 sec) 
Heartbeat CPU 0 instructions: 55000002 cycles: 41969018 heartbeat IPC: 0.232729 cumulative IPC: 0.209324 (Simulation time: 2 hr 23 min 5 sec) 
Heartbeat CPU 0 instructions: 56000000 cycles: 46200576 heartbeat IPC: 0.236319 cumulative IPC: 0.213386 (Simulation time: 2 hr 25 min 56 sec) 
Heartbeat CPU 0 instructions: 57000000 cycles: 50113607 heartbeat IPC: 0.255556 cumulative IPC: 0.218538 (Simulation time: 2 hr 28 min 35 sec) 
Heartbeat CPU 0 instructions: 58000001 cycles: 54117446 heartbeat IPC: 0.249761 cumulative IPC: 0.222007 (Simulation time: 2 hr 31 min 4 sec) 
Heartbeat CPU 0 instructions: 59000000 cycles: 57860715 heartbeat IPC: 0.267146 cumulative IPC: 0.226255 (Simulation time: 2 hr 33 min 22 sec) 
Heartbeat CPU 0 instructions: 60000000 cycles: 61266351 heartbeat IPC: 0.293631 cumulative IPC: 0.231568 (Simulation time: 2 hr 35 min 40 sec) 
Heartbeat CPU 0 instructions: 61000000 cycles: 64757427 heartbeat IPC: 0.286445 cumulative IPC: 0.235673 (Simulation time: 2 hr 38 min 1 sec) 
Heartbeat CPU 0 instructions: 62000003 cycles: 68411795 heartbeat IPC: 0.273646 cumulative IPC: 0.23843 (Simulation time: 2 hr 40 min 40 sec) 
Heartbeat CPU 0 instructions: 63000000 cycles: 72218345 heartbeat IPC: 0.262704 cumulative IPC: 0.240137 (Simulation time: 2 hr 43 min 1 sec) 
Heartbeat CPU 0 instructions: 64000000 cycles: 76053270 heartbeat IPC: 0.260761 cumulative IPC: 0.241501 (Simulation time: 2 hr 45 min 19 sec) 
Heartbeat CPU 0 instructions: 65000000 cycles: 79800447 heartbeat IPC: 0.266868 cumulative IPC: 0.243041 (Simulation time: 2 hr 47 min 53 sec) 
Heartbeat CPU 0 instructions: 66000000 cycles: 83661220 heartbeat IPC: 0.259016 cumulative IPC: 0.243982 (Simulation time: 2 hr 51 min 1 sec) 
Heartbeat CPU 0 instructions: 67000000 cycles: 87572121 heartbeat IPC: 0.255696 cumulative IPC: 0.244641 (Simulation time: 2 hr 53 min 39 sec) 
Heartbeat CPU 0 instructions: 68000000 cycles: 91293824 heartbeat IPC: 0.268694 cumulative IPC: 0.245864 (Simulation time: 2 hr 56 min 21 sec) 
Heartbeat CPU 0 instructions: 69000000 cycles: 94717318 heartbeat IPC: 0.292099 cumulative IPC: 0.247929 (Simulation time: 2 hr 58 min 37 sec) 
Heartbeat CPU 0 instructions: 70000000 cycles: 97736531 heartbeat IPC: 0.331212 cumulative IPC: 0.251086 (Simulation time: 3 hr 0 min 40 sec) 
Heartbeat CPU 0 instructions: 71000001 cycles: 101403256 heartbeat IPC: 0.272723 cumulative IPC: 0.252038 (Simulation time: 3 hr 3 min 2 sec) 
Heartbeat CPU 0 instructions: 72000000 cycles: 105145974 heartbeat IPC: 0.267185 cumulative IPC: 0.252689 (Simulation time: 3 hr 5 min 43 sec) 
Heartbeat CPU 0 instructions: 73000001 cycles: 108772692 heartbeat IPC: 0.275732 cumulative IPC: 0.253611 (Simulation time: 3 hr 8 min 27 sec) 
Heartbeat CPU 0 instructions: 74000002 cycles: 111810903 heartbeat IPC: 0.329141 cumulative IPC: 0.256059 (Simulation time: 3 hr 11 min 3 sec) 
Heartbeat CPU 0 instructions: 75000002 cycles: 115533515 heartbeat IPC: 0.268629 cumulative IPC: 0.256539 (Simulation time: 3 hr 13 min 12 sec) 
Heartbeat CPU 0 instructions: 76000000 cycles: 119757592 heartbeat IPC: 0.236738 cumulative IPC: 0.255717 (Simulation time: 3 hr 15 min 30 sec) 
Heartbeat CPU 0 instructions: 77000000 cycles: 124828418 heartbeat IPC: 0.197207 cumulative IPC: 0.252937 (Simulation time: 3 hr 18 min 21 sec) 
Heartbeat CPU 0 instructions: 78000003 cycles: 129909418 heartbeat IPC: 0.196812 cumulative IPC: 0.250387 (Simulation time: 3 hr 21 min 33 sec) 
Heartbeat CPU 0 instructions: 79000001 cycles: 134122879 heartbeat IPC: 0.237334 cumulative IPC: 0.249913 (Simulation time: 3 hr 25 min 0 sec) 
Heartbeat CPU 0 instructions: 80000000 cycles: 138758967 heartbeat IPC: 0.215699 cumulative IPC: 0.248599 (Simulation time: 3 hr 28 min 13 sec) 
Heartbeat CPU 0 instructions: 81000001 cycles: 143831987 heartbeat IPC: 0.197121 cumulative IPC: 0.246522 (Simulation time: 3 hr 31 min 55 sec) 
Heartbeat CPU 0 instructions: 82000002 cycles: 148426520 heartbeat IPC: 0.21765 cumulative IPC: 0.245504 (Simulation time: 3 hr 35 min 10 sec) 
Heartbeat CPU 0 instructions: 83000002 cycles: 152702271 heartbeat IPC: 0.233877 cumulative IPC: 0.245135 (Simulation time: 3 hr 39 min 11 sec) 
Heartbeat CPU 0 instructions: 84000000 cycles: 156903090 heartbeat IPC: 0.238048 cumulative IPC: 0.244921 (Simulation time: 3 hr 42 min 6 sec) 
Heartbeat CPU 0 instructions: 85000000 cycles: 160755575 heartbeat IPC: 0.259573 cumulative IPC: 0.245316 (Simulation time: 3 hr 44 min 43 sec) 
Heartbeat CPU 0 instructions: 86000001 cycles: 164543979 heartbeat IPC: 0.263964 cumulative IPC: 0.245798 (Simulation time: 3 hr 47 min 22 sec) 
Heartbeat CPU 0 instructions: 87000000 cycles: 168218711 heartbeat IPC: 0.272128 cumulative IPC: 0.246443 (Simulation time: 3 hr 50 min 21 sec) 
Heartbeat CPU 0 instructions: 88000000 cycles: 172323055 heartbeat IPC: 0.243644 cumulative IPC: 0.246368 (Simulation time: 3 hr 54 min 32 sec) 
Heartbeat CPU 0 instructions: 89000000 cycles: 177065756 heartbeat IPC: 0.21085 cumulative IPC: 0.245309 (Simulation time: 3 hr 58 min 4 sec) 
Heartbeat CPU 0 instructions: 90000001 cycles: 181407935 heartbeat IPC: 0.230299 cumulative IPC: 0.24491 (Simulation time: 4 hr 0 min 53 sec) 
Heartbeat CPU 0 instructions: 91000000 cycles: 185724987 heartbeat IPC: 0.231639 cumulative IPC: 0.244568 (Simulation time: 4 hr 4 min 31 sec) 
Heartbeat CPU 0 instructions: 92000000 cycles: 190631182 heartbeat IPC: 0.203824 cumulative IPC: 0.24341 (Simulation time: 4 hr 7 min 11 sec) 
Heartbeat CPU 0 instructions: 93000000 cycles: 194958400 heartbeat IPC: 0.231095 cumulative IPC: 0.243108 (Simulation time: 4 hr 9 min 58 sec) 
Heartbeat CPU 0 instructions: 94000003 cycles: 199185438 heartbeat IPC: 0.236573 cumulative IPC: 0.242956 (Simulation time: 4 hr 12 min 33 sec) 
Heartbeat CPU 0 instructions: 95000000 cycles: 203104139 heartbeat IPC: 0.255186 cumulative IPC: 0.243215 (Simulation time: 4 hr 16 min 17 sec) 
Heartbeat CPU 0 instructions: 96000000 cycles: 206853645 heartbeat IPC: 0.266702 cumulative IPC: 0.243681 (Simulation time: 4 hr 18 min 53 sec) 
Heartbeat CPU 0 instructions: 97000000 cycles: 210361899 heartbeat IPC: 0.285042 cumulative IPC: 0.244436 (Simulation time: 4 hr 21 min 38 sec) 
Heartbeat CPU 0 instructions: 98000000 cycles: 214112995 heartbeat IPC: 0.266589 cumulative IPC: 0.24486 (Simulation time: 4 hr 24 min 40 sec) 
Heartbeat CPU 0 instructions: 99000002 cycles: 218447930 heartbeat IPC: 0.230684 cumulative IPC: 0.244553 (Simulation time: 4 hr 27 min 25 sec) 
Heartbeat CPU 0 instructions: 100000000 cycles: 222717805 heartbeat IPC: 0.234198 cumulative IPC: 0.244337 (Simulation time: 4 hr 29 min 52 sec) 
Heartbeat CPU 0 instructions: 101000000 cycles: 227165405 heartbeat IPC: 0.22484 cumulative IPC: 0.243922 (Simulation time: 4 hr 32 min 41 sec) 
Heartbeat CPU 0 instructions: 102000001 cycles: 232378215 heartbeat IPC: 0.191835 cumulative IPC: 0.242655 (Simulation time: 4 hr 35 min 45 sec) 
Heartbeat CPU 0 instructions: 103000002 cycles: 237697889 heartbeat IPC: 0.187982 cumulative IPC: 0.241331 (Simulation time: 4 hr 38 min 35 sec) 
Heartbeat CPU 0 instructions: 104000000 cycles: 242714737 heartbeat IPC: 0.199328 cumulative IPC: 0.240393 (Simulation time: 4 hr 41 min 12 sec) 
Heartbeat CPU 0 instructions: 105000001 cycles: 247438717 heartbeat IPC: 0.211686 cumulative IPC: 0.239802 (Simulation time: 4 hr 43 min 58 sec) 
Heartbeat CPU 0 instructions: 106000001 cycles: 251760583 heartbeat IPC: 0.231382 cumulative IPC: 0.239646 (Simulation time: 4 hr 46 min 30 sec) 
Heartbeat CPU 0 instructions: 107000002 cycles: 256024422 heartbeat IPC: 0.234531 cumulative IPC: 0.239554 (Simulation time: 4 hr 49 min 19 sec) 
Heartbeat CPU 0 instructions: 108000000 cycles: 260582639 heartbeat IPC: 0.219384 cumulative IPC: 0.239175 (Simulation time: 4 hr 52 min 18 sec) 
Heartbeat CPU 0 instructions: 109000003 cycles: 265275368 heartbeat IPC: 0.213096 cumulative IPC: 0.23868 (Simulation time: 4 hr 54 min 54 sec) 
Heartbeat CPU 0 instructions: 110000003 cycles: 270098134 heartbeat IPC: 0.20735 cumulative IPC: 0.238081 (Simulation time: 4 hr 57 min 45 sec) 
Heartbeat CPU 0 instructions: 111000001 cycles: 275019967 heartbeat IPC: 0.203176 cumulative IPC: 0.237412 (Simulation time: 5 hr 0 min 34 sec) 
Heartbeat CPU 0 instructions: 112000000 cycles: 279892554 heartbeat IPC: 0.20523 cumulative IPC: 0.236813 (Simulation time: 5 hr 3 min 17 sec) 
Heartbeat CPU 0 instructions: 113000001 cycles: 284475121 heartbeat IPC: 0.218219 cumulative IPC: 0.236493 (Simulation time: 5 hr 6 min 31 sec) 
Heartbeat CPU 0 instructions: 114000000 cycles: 289095790 heartbeat IPC: 0.216419 cumulative IPC: 0.236151 (Simulation time: 5 hr 9 min 14 sec) 
Heartbeat CPU 0 instructions: 115000000 cycles: 293674424 heartbeat IPC: 0.218406 cumulative IPC: 0.235856 (Simulation time: 5 hr 12 min 24 sec) 
Heartbeat CPU 0 instructions: 116000000 cycles: 298133320 heartbeat IPC: 0.224271 cumulative IPC: 0.235672 (Simulation time: 5 hr 15 min 0 sec) 
Heartbeat CPU 0 instructions: 117000001 cycles: 302056189 heartbeat IPC: 0.254916 cumulative IPC: 0.235937 (Simulation time: 5 hr 17 min 55 sec) 
Heartbeat CPU 0 instructions: 118000002 cycles: 306033554 heartbeat IPC: 0.251423 cumulative IPC: 0.236151 (Simulation time: 5 hr 21 min 13 sec) 
Heartbeat CPU 0 instructions: 119000002 cycles: 310223752 heartbeat IPC: 0.238652 cumulative IPC: 0.236187 (Simulation time: 5 hr 23 min 59 sec) 
Heartbeat CPU 0 instructions: 120000000 cycles: 314824747 heartbeat IPC: 0.217344 cumulative IPC: 0.235895 (Simulation time: 5 hr 27 min 11 sec) 
Heartbeat CPU 0 instructions: 121000002 cycles: 319454090 heartbeat IPC: 0.216014 cumulative IPC: 0.23559 (Simulation time: 5 hr 30 min 3 sec) 
Heartbeat CPU 0 instructions: 122000001 cycles: 324093783 heartbeat IPC: 0.215531 cumulative IPC: 0.235285 (Simulation time: 5 hr 32 min 44 sec) 
Heartbeat CPU 0 instructions: 123000000 cycles: 329142241 heartbeat IPC: 0.19808 cumulative IPC: 0.234682 (Simulation time: 5 hr 35 min 49 sec) 
Heartbeat CPU 0 instructions: 124000000 cycles: 334392837 heartbeat IPC: 0.190455 cumulative IPC: 0.233947 (Simulation time: 5 hr 38 min 10 sec) 
Heartbeat CPU 0 instructions: 125000002 cycles: 339556496 heartbeat IPC: 0.193662 cumulative IPC: 0.2333 (Simulation time: 5 hr 40 min 36 sec) 
Heartbeat CPU 0 instructions: 126000000 cycles: 345149594 heartbeat IPC: 0.178791 cumulative IPC: 0.232368 (Simulation time: 5 hr 43 min 20 sec) 
Heartbeat CPU 0 instructions: 127000002 cycles: 351090472 heartbeat IPC: 0.168326 cumulative IPC: 0.231226 (Simulation time: 5 hr 45 min 50 sec) 
Heartbeat CPU 0 instructions: 128000000 cycles: 356872136 heartbeat IPC: 0.17296 cumulative IPC: 0.230231 (Simulation time: 5 hr 49 min 19 sec) 
Heartbeat CPU 0 instructions: 129000003 cycles: 362704820 heartbeat IPC: 0.171448 cumulative IPC: 0.229236 (Simulation time: 5 hr 51 min 52 sec) 
Heartbeat CPU 0 instructions: 130000003 cycles: 368390452 heartbeat IPC: 0.175882 cumulative IPC: 0.228371 (Simulation time: 5 hr 54 min 13 sec) 
Heartbeat CPU 0 instructions: 131000000 cycles: 373752303 heartbeat IPC: 0.186502 cumulative IPC: 0.227739 (Simulation time: 5 hr 56 min 57 sec) 
Heartbeat CPU 0 instructions: 132000000 cycles: 379487795 heartbeat IPC: 0.174353 cumulative IPC: 0.226892 (Simulation time: 5 hr 59 min 43 sec) 
Heartbeat CPU 0 instructions: 133000002 cycles: 385074656 heartbeat IPC: 0.178992 cumulative IPC: 0.226163 (Simulation time: 6 hr 2 min 26 sec) 
Heartbeat CPU 0 instructions: 134000000 cycles: 390816001 heartbeat IPC: 0.174175 cumulative IPC: 0.225362 (Simulation time: 6 hr 5 min 21 sec) 
Heartbeat CPU 0 instructions: 135000001 cycles: 396847108 heartbeat IPC: 0.165807 cumulative IPC: 0.224414 (Simulation time: 6 hr 7 min 59 sec) 
Heartbeat CPU 0 instructions: 136000000 cycles: 403187710 heartbeat IPC: 0.157714 cumulative IPC: 0.223316 (Simulation time: 6 hr 10 min 33 sec) 
Heartbeat CPU 0 instructions: 137000000 cycles: 409803670 heartbeat IPC: 0.15115 cumulative IPC: 0.222097 (Simulation time: 6 hr 13 min 34 sec) 
Heartbeat CPU 0 instructions: 138000000 cycles: 415136885 heartbeat IPC: 0.187504 cumulative IPC: 0.221632 (Simulation time: 6 hr 16 min 4 sec) 
Heartbeat CPU 0 instructions: 139000001 cycles: 418252494 heartbeat IPC: 0.320965 cumulative IPC: 0.222406 (Simulation time: 6 hr 18 min 15 sec) 
Heartbeat CPU 0 instructions: 140000000 cycles: 422131114 heartbeat IPC: 0.257823 cumulative IPC: 0.222745 (Simulation time: 6 hr 20 min 34 sec) 
Heartbeat CPU 0 instructions: 141000000 cycles: 424947907 heartbeat IPC: 0.355014 cumulative IPC: 0.223661 (Simulation time: 6 hr 22 min 29 sec) 
Heartbeat CPU 0 instructions: 142000000 cycles: 428290448 heartbeat IPC: 0.299174 cumulative IPC: 0.224277 (Simulation time: 6 hr 24 min 32 sec) 
Heartbeat CPU 0 instructions: 143000000 cycles: 431942923 heartbeat IPC: 0.273787 cumulative IPC: 0.224713 (Simulation time: 6 hr 26 min 42 sec) 
Heartbeat CPU 0 instructions: 144000000 cycles: 435628159 heartbeat IPC: 0.271353 cumulative IPC: 0.225125 (Simulation time: 6 hr 28 min 50 sec) 
Heartbeat CPU 0 instructions: 145000000 cycles: 439435403 heartbeat IPC: 0.262657 cumulative IPC: 0.225464 (Simulation time: 6 hr 30 min 57 sec) 
Heartbeat CPU 0 instructions: 146000001 cycles: 444498950 heartbeat IPC: 0.19749 cumulative IPC: 0.225132 (Simulation time: 6 hr 33 min 26 sec) 
Heartbeat CPU 0 instructions: 147000001 cycles: 449381320 heartbeat IPC: 0.204819 cumulative IPC: 0.224902 (Simulation time: 6 hr 35 min 49 sec) 
Heartbeat CPU 0 instructions: 148000000 cycles: 454176564 heartbeat IPC: 0.20854 cumulative IPC: 0.224722 (Simulation time: 6 hr 38 min 1 sec) 
Heartbeat CPU 0 instructions: 149000002 cycles: 459137450 heartbeat IPC: 0.201577 cumulative IPC: 0.224462 (Simulation time: 6 hr 40 min 11 sec) 
Heartbeat CPU 0 instructions: 150000001 cycles: 464502943 heartbeat IPC: 0.186376 cumulative IPC: 0.224004 (Simulation time: 6 hr 42 min 12 sec) 
Finished CPU 0 instructions: 100000000 cycles: 446420414 cummulative IPC: 0.224004 (Simulation time: 6 hr 42 min 12 sec) 

ChampSim completed all CPUs

Region of Interest Statistics

CPU 0 cummulative IPC: 0.224004 instructions: 100000000 cycles: 446420414
LLC TOTAL     ACCESS:    5175636  HIT:    2019830  MISS:    3155806
LLC LOAD      ACCESS:    2110786  HIT:     848478  MISS:    1262308
LLC RFO       ACCESS:      25554  HIT:      25114  MISS:        440
LLC PREFETCH  ACCESS:    2246545  HIT:     696991  MISS:    1549554
LLC WRITEBACK ACCESS:     792751  HIT:     449247  MISS:     343504
