
*** ChampSim Multicore Out-of-Order Simulator ***

Warmup Instructions: 50000000
Simulation Instructions: 100000000
Configuration: 2
Number of CPUs: 1
LLC sets: 2048
LLC ways: 16
Off-chip DRAM Channels: 1 Width: 64-bit Data Rate: 1600 MT/s

CPU 0 runs /datasets/cs240c-wi22-a00-public/data/Assignment2-gz/cactusADM_734B.trace.gz
CPU 0 L1D next line prefetcher
CPU 0 L2C IP-based stride prefetcher
Heartbeat CPU 0 instructions: 1000003 cycles: 592726 heartbeat IPC: 1.68713 cumulative IPC: 1.68713 (Simulation time: 0 hr 2 min 40 sec) 
Heartbeat CPU 0 instructions: 2000001 cycles: 1185927 heartbeat IPC: 1.68577 cumulative IPC: 1.68645 (Simulation time: 0 hr 5 min 15 sec) 
Heartbeat CPU 0 instructions: 3000003 cycles: 1778979 heartbeat IPC: 1.6862 cumulative IPC: 1.68636 (Simulation time: 0 hr 8 min 1 sec) 
Heartbeat CPU 0 instructions: 4000000 cycles: 2371929 heartbeat IPC: 1.68648 cumulative IPC: 1.68639 (Simulation time: 0 hr 10 min 36 sec) 
Heartbeat CPU 0 instructions: 5000000 cycles: 2965279 heartbeat IPC: 1.68535 cumulative IPC: 1.68618 (Simulation time: 0 hr 13 min 5 sec) 
Heartbeat CPU 0 instructions: 6000002 cycles: 3558551 heartbeat IPC: 1.68557 cumulative IPC: 1.68608 (Simulation time: 0 hr 15 min 23 sec) 
Heartbeat CPU 0 instructions: 7000000 cycles: 4151394 heartbeat IPC: 1.68678 cumulative IPC: 1.68618 (Simulation time: 0 hr 18 min 22 sec) 
Heartbeat CPU 0 instructions: 8000000 cycles: 4744343 heartbeat IPC: 1.68649 cumulative IPC: 1.68622 (Simulation time: 0 hr 21 min 10 sec) 
Heartbeat CPU 0 instructions: 9000001 cycles: 5337493 heartbeat IPC: 1.68592 cumulative IPC: 1.68619 (Simulation time: 0 hr 24 min 13 sec) 
Heartbeat CPU 0 instructions: 10000003 cycles: 5958967 heartbeat IPC: 1.60908 cumulative IPC: 1.67814 (Simulation time: 0 hr 26 min 59 sec) 
Heartbeat CPU 0 instructions: 11000003 cycles: 6686250 heartbeat IPC: 1.37498 cumulative IPC: 1.64517 (Simulation time: 0 hr 31 min 1 sec) 
Heartbeat CPU 0 instructions: 12000000 cycles: 7278948 heartbeat IPC: 1.68719 cumulative IPC: 1.64859 (Simulation time: 0 hr 33 min 46 sec) 
Heartbeat CPU 0 instructions: 13000002 cycles: 7872559 heartbeat IPC: 1.68461 cumulative IPC: 1.65131 (Simulation time: 0 hr 36 min 20 sec) 
Heartbeat CPU 0 instructions: 14000000 cycles: 8465698 heartbeat IPC: 1.68594 cumulative IPC: 1.65373 (Simulation time: 0 hr 39 min 13 sec) 
Heartbeat CPU 0 instructions: 15000000 cycles: 9058600 heartbeat IPC: 1.68662 cumulative IPC: 1.65588 (Simulation time: 0 hr 41 min 31 sec) 
Heartbeat CPU 0 instructions: 16000000 cycles: 9651836 heartbeat IPC: 1.68567 cumulative IPC: 1.65772 (Simulation time: 0 hr 44 min 17 sec) 
Heartbeat CPU 0 instructions: 17000002 cycles: 10244952 heartbeat IPC: 1.68601 cumulative IPC: 1.65935 (Simulation time: 0 hr 46 min 58 sec) 
Heartbeat CPU 0 instructions: 18000001 cycles: 10838403 heartbeat IPC: 1.68506 cumulative IPC: 1.66076 (Simulation time: 0 hr 49 min 44 sec) 
Heartbeat CPU 0 instructions: 19000001 cycles: 11431207 heartbeat IPC: 1.6869 cumulative IPC: 1.66212 (Simulation time: 0 hr 52 min 33 sec) 
Heartbeat CPU 0 instructions: 20000000 cycles: 12024439 heartbeat IPC: 1.68568 cumulative IPC: 1.66328 (Simulation time: 0 hr 55 min 11 sec) 
Heartbeat CPU 0 instructions: 21000002 cycles: 12617738 heartbeat IPC: 1.68549 cumulative IPC: 1.66432 (Simulation time: 0 hr 57 min 40 sec) 
Heartbeat CPU 0 instructions: 22000000 cycles: 13210781 heartbeat IPC: 1.68622 cumulative IPC: 1.66531 (Simulation time: 1 hr 0 min 17 sec) 
Heartbeat CPU 0 instructions: 23000001 cycles: 13804172 heartbeat IPC: 1.68523 cumulative IPC: 1.66616 (Simulation time: 1 hr 3 min 18 sec) 
Heartbeat CPU 0 instructions: 24000000 cycles: 14558533 heartbeat IPC: 1.32562 cumulative IPC: 1.64852 (Simulation time: 1 hr 6 min 44 sec) 
Heartbeat CPU 0 instructions: 25000000 cycles: 15151534 heartbeat IPC: 1.68634 cumulative IPC: 1.65 (Simulation time: 1 hr 8 min 58 sec) 
Heartbeat CPU 0 instructions: 26000001 cycles: 15744208 heartbeat IPC: 1.68727 cumulative IPC: 1.6514 (Simulation time: 1 hr 11 min 22 sec) 
Heartbeat CPU 0 instructions: 27000003 cycles: 16337591 heartbeat IPC: 1.68526 cumulative IPC: 1.65263 (Simulation time: 1 hr 13 min 58 sec) 
Heartbeat CPU 0 instructions: 28000000 cycles: 16930570 heartbeat IPC: 1.6864 cumulative IPC: 1.65381 (Simulation time: 1 hr 16 min 26 sec) 
Heartbeat CPU 0 instructions: 29000001 cycles: 17523832 heartbeat IPC: 1.6856 cumulative IPC: 1.65489 (Simulation time: 1 hr 19 min 20 sec) 
Heartbeat CPU 0 instructions: 30000001 cycles: 18116412 heartbeat IPC: 1.68754 cumulative IPC: 1.65596 (Simulation time: 1 hr 21 min 58 sec) 
Heartbeat CPU 0 instructions: 31000000 cycles: 18709552 heartbeat IPC: 1.68594 cumulative IPC: 1.65691 (Simulation time: 1 hr 24 min 31 sec) 
Heartbeat CPU 0 instructions: 32000000 cycles: 19302652 heartbeat IPC: 1.68606 cumulative IPC: 1.6578 (Simulation time: 1 hr 27 min 28 sec) 
Heartbeat CPU 0 instructions: 33000000 cycles: 19895397 heartbeat IPC: 1.68707 cumulative IPC: 1.65868 (Simulation time: 1 hr 30 min 13 sec) 
Heartbeat CPU 0 instructions: 34000002 cycles: 20488649 heartbeat IPC: 1.68563 cumulative IPC: 1.65946 (Simulation time: 1 hr 32 min 57 sec) 
Heartbeat CPU 0 instructions: 35000001 cycles: 21081671 heartbeat IPC: 1.68628 cumulative IPC: 1.66021 (Simulation time: 1 hr 35 min 28 sec) 
Heartbeat CPU 0 instructions: 36000000 cycles: 21674773 heartbeat IPC: 1.68605 cumulative IPC: 1.66092 (Simulation time: 1 hr 38 min 13 sec) 
Heartbeat CPU 0 instructions: 37000003 cycles: 22428952 heartbeat IPC: 1.32595 cumulative IPC: 1.64965 (Simulation time: 1 hr 42 min 13 sec) 
Heartbeat CPU 0 instructions: 38000001 cycles: 23022043 heartbeat IPC: 1.68608 cumulative IPC: 1.65059 (Simulation time: 1 hr 45 min 9 sec) 
Heartbeat CPU 0 instructions: 39000003 cycles: 23615026 heartbeat IPC: 1.68639 cumulative IPC: 1.65149 (Simulation time: 1 hr 47 min 30 sec) 
Heartbeat CPU 0 instructions: 40000000 cycles: 24207833 heartbeat IPC: 1.68688 cumulative IPC: 1.65236 (Simulation time: 1 hr 49 min 53 sec) 
Heartbeat CPU 0 instructions: 41000001 cycles: 24801059 heartbeat IPC: 1.6857 cumulative IPC: 1.65316 (Simulation time: 1 hr 52 min 39 sec) 
Heartbeat CPU 0 instructions: 42000002 cycles: 25394138 heartbeat IPC: 1.68612 cumulative IPC: 1.65393 (Simulation time: 1 hr 55 min 34 sec) 
Heartbeat CPU 0 instructions: 43000000 cycles: 25987195 heartbeat IPC: 1.68618 cumulative IPC: 1.65466 (Simulation time: 1 hr 58 min 6 sec) 
Heartbeat CPU 0 instructions: 44000000 cycles: 26580054 heartbeat IPC: 1.68674 cumulative IPC: 1.65538 (Simulation time: 2 hr 1 min 15 sec) 
Heartbeat CPU 0 instructions: 45000003 cycles: 27173040 heartbeat IPC: 1.68639 cumulative IPC: 1.65605 (Simulation time: 2 hr 3 min 48 sec) 
Heartbeat CPU 0 instructions: 46000003 cycles: 27766302 heartbeat IPC: 1.6856 cumulative IPC: 1.65668 (Simulation time: 2 hr 6 min 50 sec) 
Heartbeat CPU 0 instructions: 47000001 cycles: 28358918 heartbeat IPC: 1.68743 cumulative IPC: 1.65733 (Simulation time: 2 hr 9 min 13 sec) 
Heartbeat CPU 0 instructions: 48000000 cycles: 28951884 heartbeat IPC: 1.68644 cumulative IPC: 1.65792 (Simulation time: 2 hr 11 min 35 sec) 
Heartbeat CPU 0 instructions: 49000000 cycles: 29544884 heartbeat IPC: 1.68634 cumulative IPC: 1.65849 (Simulation time: 2 hr 13 min 50 sec) 
Heartbeat CPU 0 instructions: 50000000 cycles: 30299437 heartbeat IPC: 1.32529 cumulative IPC: 1.6502 (Simulation time: 2 hr 17 min 34 sec) 

Warmup complete CPU 0 instructions: 50000004 cycles: 30299438 (Simulation time: 2 hr 17 min 34 sec) 

Heartbeat CPU 0 instructions: 51000000 cycles: 32028727 heartbeat IPC: 0.578272 cumulative IPC: 0.57827 (Simulation time: 2 hr 20 min 14 sec) 
Heartbeat CPU 0 instructions: 52000000 cycles: 33764935 heartbeat IPC: 0.575968 cumulative IPC: 0.577117 (Simulation time: 2 hr 23 min 18 sec) 
Heartbeat CPU 0 instructions: 53000003 cycles: 35502141 heartbeat IPC: 0.575639 cumulative IPC: 0.576623 (Simulation time: 2 hr 26 min 7 sec) 
Heartbeat CPU 0 instructions: 54000000 cycles: 37188865 heartbeat IPC: 0.592863 cumulative IPC: 0.580599 (Simulation time: 2 hr 29 min 1 sec) 
Heartbeat CPU 0 instructions: 55000001 cycles: 38862420 heartbeat IPC: 0.597531 cumulative IPC: 0.583908 (Simulation time: 2 hr 32 min 2 sec) 
Heartbeat CPU 0 instructions: 56000000 cycles: 40612208 heartbeat IPC: 0.571497 cumulative IPC: 0.581803 (Simulation time: 2 hr 34 min 23 sec) 
Heartbeat CPU 0 instructions: 57000000 cycles: 42358549 heartbeat IPC: 0.572626 cumulative IPC: 0.580474 (Simulation time: 2 hr 36 min 58 sec) 
Heartbeat CPU 0 instructions: 58000001 cycles: 44091001 heartbeat IPC: 0.577217 cumulative IPC: 0.580065 (Simulation time: 2 hr 39 min 59 sec) 
Heartbeat CPU 0 instructions: 59000000 cycles: 45747556 heartbeat IPC: 0.603662 cumulative IPC: 0.582595 (Simulation time: 2 hr 43 min 1 sec) 
Heartbeat CPU 0 instructions: 60000000 cycles: 47452786 heartbeat IPC: 0.586431 cumulative IPC: 0.582976 (Simulation time: 2 hr 46 min 18 sec) 
Heartbeat CPU 0 instructions: 61000002 cycles: 49190923 heartbeat IPC: 0.57533 cumulative IPC: 0.582273 (Simulation time: 2 hr 49 min 48 sec) 
Heartbeat CPU 0 instructions: 62000002 cycles: 50929575 heartbeat IPC: 0.575158 cumulative IPC: 0.581673 (Simulation time: 2 hr 52 min 58 sec) 
Heartbeat CPU 0 instructions: 63000002 cycles: 58328793 heartbeat IPC: 0.135149 cumulative IPC: 0.463799 (Simulation time: 2 hr 56 min 40 sec) 
Heartbeat CPU 0 instructions: 64000000 cycles: 60281287 heartbeat IPC: 0.512164 cumulative IPC: 0.466949 (Simulation time: 2 hr 59 min 56 sec) 
Heartbeat CPU 0 instructions: 65000003 cycles: 62016556 heartbeat IPC: 0.576281 cumulative IPC: 0.472931 (Simulation time: 3 hr 3 min 33 sec) 
Heartbeat CPU 0 instructions: 66000001 cycles: 63755633 heartbeat IPC: 0.575016 cumulative IPC: 0.478237 (Simulation time: 3 hr 6 min 35 sec) 
Heartbeat CPU 0 instructions: 67000000 cycles: 65489964 heartbeat IPC: 0.576591 cumulative IPC: 0.483084 (Simulation time: 3 hr 9 min 43 sec) 
Heartbeat CPU 0 instructions: 68000000 cycles: 67151852 heartbeat IPC: 0.601725 cumulative IPC: 0.488435 (Simulation time: 3 hr 12 min 53 sec) 
Heartbeat CPU 0 instructions: 69000000 cycles: 68851048 heartbeat IPC: 0.588514 cumulative IPC: 0.492846 (Simulation time: 3 hr 15 min 45 sec) 
Heartbeat CPU 0 instructions: 70000001 cycles: 70589853 heartbeat IPC: 0.575108 cumulative IPC: 0.496396 (Simulation time: 3 hr 18 min 43 sec) 
Heartbeat CPU 0 instructions: 71000001 cycles: 72329226 heartbeat IPC: 0.57492 cumulative IPC: 0.499646 (Simulation time: 3 hr 21 min 30 sec) 
Heartbeat CPU 0 instructions: 72000000 cycles: 74048549 heartbeat IPC: 0.581624 cumulative IPC: 0.502867 (Simulation time: 3 hr 24 min 17 sec) 
Heartbeat CPU 0 instructions: 73000003 cycles: 75696809 heartbeat IPC: 0.606702 cumulative IPC: 0.506637 (Simulation time: 3 hr 26 min 32 sec) 
Heartbeat CPU 0 instructions: 74000002 cycles: 77427372 heartbeat IPC: 0.577846 cumulative IPC: 0.509252 (Simulation time: 3 hr 29 min 16 sec) 
Heartbeat CPU 0 instructions: 75000002 cycles: 79166108 heartbeat IPC: 0.57513 cumulative IPC: 0.511596 (Simulation time: 3 hr 32 min 18 sec) 
Heartbeat CPU 0 instructions: 76000000 cycles: 85361921 heartbeat IPC: 0.161399 cumulative IPC: 0.472191 (Simulation time: 3 hr 35 min 54 sec) 
Heartbeat CPU 0 instructions: 77000000 cycles: 88550745 heartbeat IPC: 0.313595 cumulative IPC: 0.463509 (Simulation time: 3 hr 39 min 30 sec) 
Heartbeat CPU 0 instructions: 78000002 cycles: 90246271 heartbeat IPC: 0.589789 cumulative IPC: 0.467081 (Simulation time: 3 hr 42 min 29 sec) 
Heartbeat CPU 0 instructions: 79000002 cycles: 91985589 heartbeat IPC: 0.574938 cumulative IPC: 0.470122 (Simulation time: 3 hr 45 min 46 sec) 
Heartbeat CPU 0 instructions: 80000000 cycles: 93722930 heartbeat IPC: 0.575591 cumulative IPC: 0.473011 (Simulation time: 3 hr 48 min 56 sec) 
Heartbeat CPU 0 instructions: 81000000 cycles: 95448001 heartbeat IPC: 0.579686 cumulative IPC: 0.475835 (Simulation time: 3 hr 51 min 34 sec) 
Heartbeat CPU 0 instructions: 82000003 cycles: 97091674 heartbeat IPC: 0.608395 cumulative IPC: 0.479098 (Simulation time: 3 hr 55 min 15 sec) 
Heartbeat CPU 0 instructions: 83000003 cycles: 98820107 heartbeat IPC: 0.578559 cumulative IPC: 0.481606 (Simulation time: 3 hr 58 min 9 sec) 
Heartbeat CPU 0 instructions: 84000000 cycles: 100556448 heartbeat IPC: 0.575922 cumulative IPC: 0.483937 (Simulation time: 4 hr 0 min 51 sec) 
Heartbeat CPU 0 instructions: 85000003 cycles: 102294019 heartbeat IPC: 0.575518 cumulative IPC: 0.486148 (Simulation time: 4 hr 4 min 26 sec) 
Heartbeat CPU 0 instructions: 86000000 cycles: 103986847 heartbeat IPC: 0.590726 cumulative IPC: 0.48855 (Simulation time: 4 hr 8 min 15 sec) 
Heartbeat CPU 0 instructions: 87000000 cycles: 105657814 heartbeat IPC: 0.598456 cumulative IPC: 0.490987 (Simulation time: 4 hr 11 min 29 sec) 
Heartbeat CPU 0 instructions: 88000000 cycles: 107422578 heartbeat IPC: 0.566648 cumulative IPC: 0.492718 (Simulation time: 4 hr 14 min 15 sec) 
Heartbeat CPU 0 instructions: 89000002 cycles: 112521999 heartbeat IPC: 0.196101 cumulative IPC: 0.474322 (Simulation time: 4 hr 17 min 57 sec) 
Heartbeat CPU 0 instructions: 90000002 cycles: 116777442 heartbeat IPC: 0.234993 cumulative IPC: 0.462545 (Simulation time: 4 hr 21 min 17 sec) 
Heartbeat CPU 0 instructions: 91000003 cycles: 118425160 heartbeat IPC: 0.606901 cumulative IPC: 0.465244 (Simulation time: 4 hr 24 min 45 sec) 
Heartbeat CPU 0 instructions: 92000000 cycles: 120151406 heartbeat IPC: 0.57929 cumulative IPC: 0.467435 (Simulation time: 4 hr 27 min 35 sec) 
Heartbeat CPU 0 instructions: 93000000 cycles: 121890935 heartbeat IPC: 0.574868 cumulative IPC: 0.469476 (Simulation time: 4 hr 30 min 56 sec) 
Heartbeat CPU 0 instructions: 94000003 cycles: 123631206 heartbeat IPC: 0.574625 cumulative IPC: 0.471436 (Simulation time: 4 hr 33 min 52 sec) 
Heartbeat CPU 0 instructions: 95000000 cycles: 125329069 heartbeat IPC: 0.588974 cumulative IPC: 0.473536 (Simulation time: 4 hr 36 min 34 sec) 
Heartbeat CPU 0 instructions: 96000000 cycles: 126998160 heartbeat IPC: 0.599128 cumulative IPC: 0.475704 (Simulation time: 4 hr 39 min 10 sec) 
Heartbeat CPU 0 instructions: 97000001 cycles: 128732691 heartbeat IPC: 0.576525 cumulative IPC: 0.477481 (Simulation time: 4 hr 41 min 50 sec) 
Heartbeat CPU 0 instructions: 98000000 cycles: 130471938 heartbeat IPC: 0.574961 cumulative IPC: 0.479173 (Simulation time: 4 hr 44 min 45 sec) 
Heartbeat CPU 0 instructions: 99000001 cycles: 132209177 heartbeat IPC: 0.575627 cumulative IPC: 0.480818 (Simulation time: 4 hr 47 min 44 sec) 
Heartbeat CPU 0 instructions: 100000000 cycles: 133877716 heartbeat IPC: 0.599326 cumulative IPC: 0.482727 (Simulation time: 4 hr 50 min 58 sec) 
Heartbeat CPU 0 instructions: 101000000 cycles: 135577612 heartbeat IPC: 0.588271 cumulative IPC: 0.484431 (Simulation time: 4 hr 53 min 50 sec) 
Heartbeat CPU 0 instructions: 102000002 cycles: 139602134 heartbeat IPC: 0.248477 cumulative IPC: 0.475743 (Simulation time: 4 hr 57 min 2 sec) 
Heartbeat CPU 0 instructions: 103000000 cycles: 144961176 heartbeat IPC: 0.1866 cumulative IPC: 0.462229 (Simulation time: 5 hr 0 min 26 sec) 
Heartbeat CPU 0 instructions: 104000000 cycles: 146664924 heartbeat IPC: 0.586941 cumulative IPC: 0.464055 (Simulation time: 5 hr 3 min 1 sec) 
Heartbeat CPU 0 instructions: 105000000 cycles: 148326507 heartbeat IPC: 0.601836 cumulative IPC: 0.465995 (Simulation time: 5 hr 5 min 41 sec) 
Heartbeat CPU 0 instructions: 106000002 cycles: 150059674 heartbeat IPC: 0.57698 cumulative IPC: 0.467601 (Simulation time: 5 hr 8 min 16 sec) 
Heartbeat CPU 0 instructions: 107000001 cycles: 151798724 heartbeat IPC: 0.575026 cumulative IPC: 0.469139 (Simulation time: 5 hr 11 min 27 sec) 
Heartbeat CPU 0 instructions: 108000000 cycles: 153534010 heartbeat IPC: 0.576273 cumulative IPC: 0.470647 (Simulation time: 5 hr 14 min 16 sec) 
Heartbeat CPU 0 instructions: 109000001 cycles: 155205539 heartbeat IPC: 0.598255 cumulative IPC: 0.472355 (Simulation time: 5 hr 17 min 6 sec) 
Heartbeat CPU 0 instructions: 110000003 cycles: 156897089 heartbeat IPC: 0.591175 cumulative IPC: 0.473942 (Simulation time: 5 hr 19 min 58 sec) 
Heartbeat CPU 0 instructions: 111000002 cycles: 158634788 heartbeat IPC: 0.575473 cumulative IPC: 0.475317 (Simulation time: 5 hr 23 min 9 sec) 
Heartbeat CPU 0 instructions: 112000000 cycles: 160373181 heartbeat IPC: 0.575243 cumulative IPC: 0.476653 (Simulation time: 5 hr 25 min 25 sec) 
Heartbeat CPU 0 instructions: 113000002 cycles: 162099711 heartbeat IPC: 0.579198 cumulative IPC: 0.477996 (Simulation time: 5 hr 28 min 14 sec) 
Heartbeat CPU 0 instructions: 114000000 cycles: 163744576 heartbeat IPC: 0.607951 cumulative IPC: 0.479598 (Simulation time: 5 hr 32 min 3 sec) 
Heartbeat CPU 0 instructions: 115000002 cycles: 166552728 heartbeat IPC: 0.356107 cumulative IPC: 0.477053 (Simulation time: 5 hr 34 min 49 sec) 
Heartbeat CPU 0 instructions: 116000000 cycles: 173102569 heartbeat IPC: 0.152675 cumulative IPC: 0.462175 (Simulation time: 5 hr 38 min 21 sec) 
Heartbeat CPU 0 instructions: 117000000 cycles: 174851867 heartbeat IPC: 0.571658 cumulative IPC: 0.4635 (Simulation time: 5 hr 41 min 7 sec) 
Heartbeat CPU 0 instructions: 118000002 cycles: 176529976 heartbeat IPC: 0.59591 cumulative IPC: 0.465019 (Simulation time: 5 hr 44 min 3 sec) 
Heartbeat CPU 0 instructions: 119000003 cycles: 178221609 heartbeat IPC: 0.591145 cumulative IPC: 0.466462 (Simulation time: 5 hr 46 min 44 sec) 
Heartbeat CPU 0 instructions: 120000000 cycles: 179962088 heartbeat IPC: 0.574553 cumulative IPC: 0.467719 (Simulation time: 5 hr 50 min 1 sec) 
Heartbeat CPU 0 instructions: 121000001 cycles: 181703675 heartbeat IPC: 0.57419 cumulative IPC: 0.468943 (Simulation time: 5 hr 52 min 53 sec) 
Heartbeat CPU 0 instructions: 122000003 cycles: 183433826 heartbeat IPC: 0.577985 cumulative IPC: 0.470175 (Simulation time: 5 hr 55 min 43 sec) 
Heartbeat CPU 0 instructions: 123000000 cycles: 185085828 heartbeat IPC: 0.605324 cumulative IPC: 0.471618 (Simulation time: 5 hr 58 min 13 sec) 
Heartbeat CPU 0 instructions: 124000000 cycles: 186809447 heartbeat IPC: 0.580175 cumulative IPC: 0.472813 (Simulation time: 6 hr 1 min 5 sec) 
Heartbeat CPU 0 instructions: 125000002 cycles: 188550264 heartbeat IPC: 0.574444 cumulative IPC: 0.473931 (Simulation time: 6 hr 3 min 53 sec) 
Heartbeat CPU 0 instructions: 126000000 cycles: 190290257 heartbeat IPC: 0.574714 cumulative IPC: 0.475027 (Simulation time: 6 hr 6 min 13 sec) 
Heartbeat CPU 0 instructions: 127000001 cycles: 191993869 heartbeat IPC: 0.586989 cumulative IPC: 0.476207 (Simulation time: 6 hr 8 min 56 sec) 
Heartbeat CPU 0 instructions: 128000000 cycles: 193662339 heartbeat IPC: 0.599351 cumulative IPC: 0.477465 (Simulation time: 6 hr 11 min 40 sec) 
Heartbeat CPU 0 instructions: 129000002 cycles: 201296274 heartbeat IPC: 0.130994 cumulative IPC: 0.461997 (Simulation time: 6 hr 15 min 42 sec) 
Heartbeat CPU 0 instructions: 130000001 cycles: 203035882 heartbeat IPC: 0.574842 cumulative IPC: 0.463133 (Simulation time: 6 hr 18 min 17 sec) 
Heartbeat CPU 0 instructions: 131000002 cycles: 204768074 heartbeat IPC: 0.577304 cumulative IPC: 0.464267 (Simulation time: 6 hr 20 min 51 sec) 
Heartbeat CPU 0 instructions: 132000000 cycles: 206424464 heartbeat IPC: 0.603721 cumulative IPC: 0.465578 (Simulation time: 6 hr 23 min 9 sec) 
Heartbeat CPU 0 instructions: 133000000 cycles: 208143119 heartbeat IPC: 0.58185 cumulative IPC: 0.466702 (Simulation time: 6 hr 25 min 22 sec) 
Heartbeat CPU 0 instructions: 134000000 cycles: 209882945 heartbeat IPC: 0.57477 cumulative IPC: 0.467749 (Simulation time: 6 hr 27 min 45 sec) 
Heartbeat CPU 0 instructions: 135000003 cycles: 211623605 heartbeat IPC: 0.574496 cumulative IPC: 0.468774 (Simulation time: 6 hr 29 min 59 sec) 
Heartbeat CPU 0 instructions: 136000000 cycles: 213329393 heartbeat IPC: 0.586238 cumulative IPC: 0.469868 (Simulation time: 6 hr 32 min 12 sec) 
Heartbeat CPU 0 instructions: 137000001 cycles: 214993817 heartbeat IPC: 0.600809 cumulative IPC: 0.471048 (Simulation time: 6 hr 34 min 24 sec) 
Heartbeat CPU 0 instructions: 138000003 cycles: 216728552 heartbeat IPC: 0.576458 cumulative IPC: 0.472029 (Simulation time: 6 hr 36 min 32 sec) 
Heartbeat CPU 0 instructions: 139000000 cycles: 218470433 heartbeat IPC: 0.57409 cumulative IPC: 0.472974 (Simulation time: 6 hr 38 min 35 sec) 
Heartbeat CPU 0 instructions: 140000000 cycles: 220207663 heartbeat IPC: 0.575629 cumulative IPC: 0.473913 (Simulation time: 6 hr 40 min 28 sec) 
Heartbeat CPU 0 instructions: 141000002 cycles: 221882635 heartbeat IPC: 0.597026 cumulative IPC: 0.474989 (Simulation time: 6 hr 42 min 18 sec) 
Heartbeat CPU 0 instructions: 142000000 cycles: 229053833 heartbeat IPC: 0.139446 cumulative IPC: 0.462883 (Simulation time: 6 hr 44 min 24 sec) 
Heartbeat CPU 0 instructions: 143000000 cycles: 230794842 heartbeat IPC: 0.57438 cumulative IPC: 0.463851 (Simulation time: 6 hr 45 min 56 sec) 
Heartbeat CPU 0 instructions: 144000000 cycles: 232536405 heartbeat IPC: 0.574197 cumulative IPC: 0.464801 (Simulation time: 6 hr 47 min 33 sec) 
Heartbeat CPU 0 instructions: 145000002 cycles: 234249131 heartbeat IPC: 0.583866 cumulative IPC: 0.465801 (Simulation time: 6 hr 49 min 5 sec) 
Heartbeat CPU 0 instructions: 146000003 cycles: 235909988 heartbeat IPC: 0.602099 cumulative IPC: 0.466902 (Simulation time: 6 hr 50 min 36 sec) 
Heartbeat CPU 0 instructions: 147000001 cycles: 237644194 heartbeat IPC: 0.576632 cumulative IPC: 0.46782 (Simulation time: 6 hr 52 min 4 sec) 
Heartbeat CPU 0 instructions: 148000000 cycles: 239425614 heartbeat IPC: 0.561349 cumulative IPC: 0.468617 (Simulation time: 6 hr 53 min 33 sec) 
Heartbeat CPU 0 instructions: 149000001 cycles: 241166119 heartbeat IPC: 0.574546 cumulative IPC: 0.469491 (Simulation time: 6 hr 54 min 42 sec) 
Heartbeat CPU 0 instructions: 150000000 cycles: 242844800 heartbeat IPC: 0.595705 cumulative IPC: 0.470488 (Simulation time: 6 hr 55 min 45 sec) 
Finished CPU 0 instructions: 100000000 cycles: 212545367 cummulative IPC: 0.470488 (Simulation time: 6 hr 55 min 45 sec) 

ChampSim completed all CPUs

Region of Interest Statistics

CPU 0 cummulative IPC: 0.470488 instructions: 100000000 cycles: 212545367
LLC TOTAL     ACCESS:    1109371  HIT:     287152  MISS:     822219
LLC LOAD      ACCESS:      21550  HIT:       3010  MISS:      18540
LLC RFO       ACCESS:     245174  HIT:      45237  MISS:     199937
LLC PREFETCH  ACCESS:     596071  HIT:     161576  MISS:     434495
LLC WRITEBACK ACCESS:     246576  HIT:      77329  MISS:     169247
