
*** ChampSim Multicore Out-of-Order Simulator ***

Warmup Instructions: 50000000
Simulation Instructions: 100000000
Configuration: 2
Number of CPUs: 1
LLC sets: 2048
LLC ways: 16
Off-chip DRAM Channels: 1 Width: 64-bit Data Rate: 1600 MT/s

CPU 0 runs /datasets/cs240c-wi22-a00-public/data/Assignment2-gz/zeusmp_100B.trace.gz
CPU 0 L1D next line prefetcher
CPU 0 L2C IP-based stride prefetcher
Heartbeat CPU 0 instructions: 1000002 cycles: 462679 heartbeat IPC: 2.16133 cumulative IPC: 2.16133 (Simulation time: 0 hr 2 min 5 sec) 
Heartbeat CPU 0 instructions: 2000001 cycles: 925469 heartbeat IPC: 2.16081 cumulative IPC: 2.16107 (Simulation time: 0 hr 4 min 28 sec) 
Heartbeat CPU 0 instructions: 3000003 cycles: 1388509 heartbeat IPC: 2.15964 cumulative IPC: 2.16059 (Simulation time: 0 hr 7 min 26 sec) 
Heartbeat CPU 0 instructions: 4000000 cycles: 1851237 heartbeat IPC: 2.16109 cumulative IPC: 2.16072 (Simulation time: 0 hr 9 min 47 sec) 
Heartbeat CPU 0 instructions: 5000003 cycles: 2314176 heartbeat IPC: 2.16012 cumulative IPC: 2.1606 (Simulation time: 0 hr 12 min 29 sec) 
Heartbeat CPU 0 instructions: 6000001 cycles: 2777028 heartbeat IPC: 2.16051 cumulative IPC: 2.16058 (Simulation time: 0 hr 14 min 56 sec) 
Heartbeat CPU 0 instructions: 7000001 cycles: 3239718 heartbeat IPC: 2.16127 cumulative IPC: 2.16068 (Simulation time: 0 hr 16 min 59 sec) 
Heartbeat CPU 0 instructions: 8000000 cycles: 3702627 heartbeat IPC: 2.16025 cumulative IPC: 2.16063 (Simulation time: 0 hr 18 min 52 sec) 
Heartbeat CPU 0 instructions: 9000003 cycles: 4165409 heartbeat IPC: 2.16085 cumulative IPC: 2.16065 (Simulation time: 0 hr 21 min 7 sec) 
Heartbeat CPU 0 instructions: 10000001 cycles: 4628756 heartbeat IPC: 2.15821 cumulative IPC: 2.16041 (Simulation time: 0 hr 23 min 42 sec) 
Heartbeat CPU 0 instructions: 11000000 cycles: 5092412 heartbeat IPC: 2.15677 cumulative IPC: 2.16008 (Simulation time: 0 hr 25 min 54 sec) 
Heartbeat CPU 0 instructions: 12000000 cycles: 5556154 heartbeat IPC: 2.15637 cumulative IPC: 2.15977 (Simulation time: 0 hr 28 min 17 sec) 
Heartbeat CPU 0 instructions: 13000001 cycles: 6019307 heartbeat IPC: 2.15912 cumulative IPC: 2.15972 (Simulation time: 0 hr 30 min 54 sec) 
Heartbeat CPU 0 instructions: 14000002 cycles: 6482085 heartbeat IPC: 2.16087 cumulative IPC: 2.1598 (Simulation time: 0 hr 33 min 5 sec) 
Heartbeat CPU 0 instructions: 15000002 cycles: 6945081 heartbeat IPC: 2.15985 cumulative IPC: 2.1598 (Simulation time: 0 hr 35 min 36 sec) 
Heartbeat CPU 0 instructions: 16000000 cycles: 7407790 heartbeat IPC: 2.16118 cumulative IPC: 2.15989 (Simulation time: 0 hr 37 min 50 sec) 
Heartbeat CPU 0 instructions: 17000000 cycles: 7838456 heartbeat IPC: 2.32199 cumulative IPC: 2.16879 (Simulation time: 0 hr 40 min 32 sec) 
Heartbeat CPU 0 instructions: 18000001 cycles: 8266131 heartbeat IPC: 2.33823 cumulative IPC: 2.17756 (Simulation time: 0 hr 42 min 59 sec) 
Heartbeat CPU 0 instructions: 19000002 cycles: 8693347 heartbeat IPC: 2.34074 cumulative IPC: 2.18558 (Simulation time: 0 hr 45 min 29 sec) 
Heartbeat CPU 0 instructions: 20000000 cycles: 9120762 heartbeat IPC: 2.33964 cumulative IPC: 2.1928 (Simulation time: 0 hr 48 min 3 sec) 
Heartbeat CPU 0 instructions: 21000001 cycles: 9548040 heartbeat IPC: 2.3404 cumulative IPC: 2.1994 (Simulation time: 0 hr 50 min 34 sec) 
Heartbeat CPU 0 instructions: 22000001 cycles: 9975471 heartbeat IPC: 2.33956 cumulative IPC: 2.20541 (Simulation time: 0 hr 52 min 58 sec) 
Heartbeat CPU 0 instructions: 23000000 cycles: 10403539 heartbeat IPC: 2.33608 cumulative IPC: 2.21079 (Simulation time: 0 hr 55 min 22 sec) 
Heartbeat CPU 0 instructions: 24000000 cycles: 10830853 heartbeat IPC: 2.3402 cumulative IPC: 2.21589 (Simulation time: 0 hr 57 min 41 sec) 
Heartbeat CPU 0 instructions: 25000002 cycles: 11258098 heartbeat IPC: 2.34058 cumulative IPC: 2.22062 (Simulation time: 1 hr 0 min 17 sec) 
Heartbeat CPU 0 instructions: 26000001 cycles: 11685547 heartbeat IPC: 2.33946 cumulative IPC: 2.22497 (Simulation time: 1 hr 2 min 55 sec) 
Heartbeat CPU 0 instructions: 27000002 cycles: 12113344 heartbeat IPC: 2.33756 cumulative IPC: 2.22895 (Simulation time: 1 hr 5 min 33 sec) 
Heartbeat CPU 0 instructions: 28000000 cycles: 12540844 heartbeat IPC: 2.33918 cumulative IPC: 2.2327 (Simulation time: 1 hr 8 min 15 sec) 
Heartbeat CPU 0 instructions: 29000002 cycles: 12968025 heartbeat IPC: 2.34093 cumulative IPC: 2.23627 (Simulation time: 1 hr 11 min 3 sec) 
Heartbeat CPU 0 instructions: 30000003 cycles: 13395484 heartbeat IPC: 2.33941 cumulative IPC: 2.23956 (Simulation time: 1 hr 13 min 18 sec) 
Heartbeat CPU 0 instructions: 31000001 cycles: 13823174 heartbeat IPC: 2.33814 cumulative IPC: 2.24261 (Simulation time: 1 hr 16 min 0 sec) 
Heartbeat CPU 0 instructions: 32000000 cycles: 14250892 heartbeat IPC: 2.33799 cumulative IPC: 2.24547 (Simulation time: 1 hr 19 min 3 sec) 
Heartbeat CPU 0 instructions: 33000002 cycles: 14677887 heartbeat IPC: 2.34195 cumulative IPC: 2.24828 (Simulation time: 1 hr 21 min 41 sec) 
Heartbeat CPU 0 instructions: 34000001 cycles: 15105059 heartbeat IPC: 2.34098 cumulative IPC: 2.2509 (Simulation time: 1 hr 24 min 11 sec) 
Heartbeat CPU 0 instructions: 35000003 cycles: 15532502 heartbeat IPC: 2.3395 cumulative IPC: 2.25334 (Simulation time: 1 hr 26 min 23 sec) 
Heartbeat CPU 0 instructions: 36000000 cycles: 15960151 heartbeat IPC: 2.33836 cumulative IPC: 2.25562 (Simulation time: 1 hr 29 min 8 sec) 
Heartbeat CPU 0 instructions: 37000001 cycles: 16387598 heartbeat IPC: 2.33947 cumulative IPC: 2.25781 (Simulation time: 1 hr 31 min 46 sec) 
Heartbeat CPU 0 instructions: 38000003 cycles: 16815092 heartbeat IPC: 2.33922 cumulative IPC: 2.25987 (Simulation time: 1 hr 34 min 17 sec) 
Heartbeat CPU 0 instructions: 39000000 cycles: 17242696 heartbeat IPC: 2.33861 cumulative IPC: 2.26183 (Simulation time: 1 hr 37 min 16 sec) 
Heartbeat CPU 0 instructions: 40000000 cycles: 17670031 heartbeat IPC: 2.34008 cumulative IPC: 2.26372 (Simulation time: 1 hr 39 min 48 sec) 
Heartbeat CPU 0 instructions: 41000003 cycles: 18097937 heartbeat IPC: 2.33697 cumulative IPC: 2.26545 (Simulation time: 1 hr 42 min 15 sec) 
Heartbeat CPU 0 instructions: 42000000 cycles: 18525041 heartbeat IPC: 2.34134 cumulative IPC: 2.2672 (Simulation time: 1 hr 44 min 43 sec) 
Heartbeat CPU 0 instructions: 43000003 cycles: 18952469 heartbeat IPC: 2.33958 cumulative IPC: 2.26883 (Simulation time: 1 hr 47 min 11 sec) 
Heartbeat CPU 0 instructions: 44000000 cycles: 19379923 heartbeat IPC: 2.33943 cumulative IPC: 2.27039 (Simulation time: 1 hr 49 min 42 sec) 
Heartbeat CPU 0 instructions: 45000001 cycles: 19807510 heartbeat IPC: 2.33871 cumulative IPC: 2.27187 (Simulation time: 1 hr 52 min 11 sec) 
Heartbeat CPU 0 instructions: 46000000 cycles: 20235107 heartbeat IPC: 2.33865 cumulative IPC: 2.27328 (Simulation time: 1 hr 54 min 44 sec) 
Heartbeat CPU 0 instructions: 47000003 cycles: 20662362 heartbeat IPC: 2.34053 cumulative IPC: 2.27467 (Simulation time: 1 hr 57 min 9 sec) 
Heartbeat CPU 0 instructions: 48000000 cycles: 21089819 heartbeat IPC: 2.33941 cumulative IPC: 2.27598 (Simulation time: 1 hr 59 min 35 sec) 
Heartbeat CPU 0 instructions: 49000001 cycles: 21516895 heartbeat IPC: 2.34151 cumulative IPC: 2.27728 (Simulation time: 2 hr 1 min 47 sec) 
Heartbeat CPU 0 instructions: 50000000 cycles: 21944938 heartbeat IPC: 2.33621 cumulative IPC: 2.27843 (Simulation time: 2 hr 4 min 29 sec) 

Warmup complete CPU 0 instructions: 50000003 cycles: 21944939 (Simulation time: 2 hr 4 min 29 sec) 

Heartbeat CPU 0 instructions: 51000002 cycles: 22656647 heartbeat IPC: 1.40507 cumulative IPC: 1.40507 (Simulation time: 2 hr 6 min 42 sec) 
Heartbeat CPU 0 instructions: 52000000 cycles: 23350050 heartbeat IPC: 1.44216 cumulative IPC: 1.42337 (Simulation time: 2 hr 9 min 11 sec) 
Heartbeat CPU 0 instructions: 53000001 cycles: 24062319 heartbeat IPC: 1.40397 cumulative IPC: 1.41684 (Simulation time: 2 hr 11 min 30 sec) 
Heartbeat CPU 0 instructions: 54000003 cycles: 24761945 heartbeat IPC: 1.42934 cumulative IPC: 1.41995 (Simulation time: 2 hr 13 min 45 sec) 
Heartbeat CPU 0 instructions: 55000003 cycles: 25468168 heartbeat IPC: 1.41598 cumulative IPC: 1.41915 (Simulation time: 2 hr 16 min 13 sec) 
Heartbeat CPU 0 instructions: 56000000 cycles: 26176744 heartbeat IPC: 1.41128 cumulative IPC: 1.41783 (Simulation time: 2 hr 18 min 30 sec) 
Heartbeat CPU 0 instructions: 57000003 cycles: 26871988 heartbeat IPC: 1.43835 cumulative IPC: 1.42073 (Simulation time: 2 hr 21 min 0 sec) 
Heartbeat CPU 0 instructions: 58000003 cycles: 27582684 heartbeat IPC: 1.40707 cumulative IPC: 1.41901 (Simulation time: 2 hr 23 min 39 sec) 
Heartbeat CPU 0 instructions: 59000000 cycles: 28283573 heartbeat IPC: 1.42676 cumulative IPC: 1.41986 (Simulation time: 2 hr 26 min 9 sec) 
Heartbeat CPU 0 instructions: 60000000 cycles: 29000191 heartbeat IPC: 1.39544 cumulative IPC: 1.41738 (Simulation time: 2 hr 28 min 58 sec) 
Heartbeat CPU 0 instructions: 61000000 cycles: 29702775 heartbeat IPC: 1.42332 cumulative IPC: 1.41792 (Simulation time: 2 hr 31 min 46 sec) 
Heartbeat CPU 0 instructions: 62000001 cycles: 30415731 heartbeat IPC: 1.40261 cumulative IPC: 1.41663 (Simulation time: 2 hr 33 min 58 sec) 
Heartbeat CPU 0 instructions: 63000001 cycles: 31114901 heartbeat IPC: 1.43027 cumulative IPC: 1.41767 (Simulation time: 2 hr 36 min 12 sec) 
Heartbeat CPU 0 instructions: 64000000 cycles: 31828916 heartbeat IPC: 1.40053 cumulative IPC: 1.41643 (Simulation time: 2 hr 38 min 37 sec) 
Heartbeat CPU 0 instructions: 65000003 cycles: 32524375 heartbeat IPC: 1.4379 cumulative IPC: 1.41785 (Simulation time: 2 hr 41 min 44 sec) 
Heartbeat CPU 0 instructions: 66000003 cycles: 33233816 heartbeat IPC: 1.40956 cumulative IPC: 1.41732 (Simulation time: 2 hr 44 min 10 sec) 
Heartbeat CPU 0 instructions: 67000000 cycles: 33930488 heartbeat IPC: 1.43539 cumulative IPC: 1.41837 (Simulation time: 2 hr 46 min 27 sec) 
Heartbeat CPU 0 instructions: 68000000 cycles: 34637721 heartbeat IPC: 1.41396 cumulative IPC: 1.41813 (Simulation time: 2 hr 48 min 40 sec) 
Heartbeat CPU 0 instructions: 69000000 cycles: 35339212 heartbeat IPC: 1.42554 cumulative IPC: 1.41852 (Simulation time: 2 hr 51 min 41 sec) 
Heartbeat CPU 0 instructions: 70000003 cycles: 36033808 heartbeat IPC: 1.43969 cumulative IPC: 1.41956 (Simulation time: 2 hr 54 min 16 sec) 
Heartbeat CPU 0 instructions: 71000003 cycles: 36745010 heartbeat IPC: 1.40607 cumulative IPC: 1.41891 (Simulation time: 2 hr 56 min 11 sec) 
Heartbeat CPU 0 instructions: 72000000 cycles: 37445719 heartbeat IPC: 1.42712 cumulative IPC: 1.41928 (Simulation time: 2 hr 58 min 23 sec) 
Heartbeat CPU 0 instructions: 73000003 cycles: 38159528 heartbeat IPC: 1.40094 cumulative IPC: 1.41848 (Simulation time: 3 hr 1 min 18 sec) 
Heartbeat CPU 0 instructions: 74000003 cycles: 38853518 heartbeat IPC: 1.44094 cumulative IPC: 1.4194 (Simulation time: 3 hr 3 min 46 sec) 
Heartbeat CPU 0 instructions: 75000003 cycles: 39560313 heartbeat IPC: 1.41484 cumulative IPC: 1.41921 (Simulation time: 3 hr 6 min 46 sec) 
Heartbeat CPU 0 instructions: 76000000 cycles: 40256443 heartbeat IPC: 1.43651 cumulative IPC: 1.41987 (Simulation time: 3 hr 9 min 20 sec) 
Heartbeat CPU 0 instructions: 77000000 cycles: 40976014 heartbeat IPC: 1.38972 cumulative IPC: 1.41873 (Simulation time: 3 hr 12 min 12 sec) 
Heartbeat CPU 0 instructions: 78000002 cycles: 41675437 heartbeat IPC: 1.42975 cumulative IPC: 1.41912 (Simulation time: 3 hr 14 min 43 sec) 
Heartbeat CPU 0 instructions: 79000000 cycles: 42386125 heartbeat IPC: 1.40708 cumulative IPC: 1.4187 (Simulation time: 3 hr 17 min 48 sec) 
Heartbeat CPU 0 instructions: 80000000 cycles: 43080836 heartbeat IPC: 1.43945 cumulative IPC: 1.41939 (Simulation time: 3 hr 20 min 57 sec) 
Heartbeat CPU 0 instructions: 81000003 cycles: 43794383 heartbeat IPC: 1.40145 cumulative IPC: 1.4188 (Simulation time: 3 hr 23 min 49 sec) 
Heartbeat CPU 0 instructions: 82000000 cycles: 44493461 heartbeat IPC: 1.43045 cumulative IPC: 1.41916 (Simulation time: 3 hr 26 min 29 sec) 
Heartbeat CPU 0 instructions: 83000002 cycles: 45187848 heartbeat IPC: 1.44012 cumulative IPC: 1.41979 (Simulation time: 3 hr 28 min 54 sec) 
Heartbeat CPU 0 instructions: 84000000 cycles: 45897633 heartbeat IPC: 1.40887 cumulative IPC: 1.41946 (Simulation time: 3 hr 32 min 16 sec) 
Heartbeat CPU 0 instructions: 85000001 cycles: 46593352 heartbeat IPC: 1.43736 cumulative IPC: 1.41997 (Simulation time: 3 hr 35 min 1 sec) 
Heartbeat CPU 0 instructions: 86000001 cycles: 47307435 heartbeat IPC: 1.4004 cumulative IPC: 1.41942 (Simulation time: 3 hr 37 min 47 sec) 
Heartbeat CPU 0 instructions: 87000001 cycles: 48013609 heartbeat IPC: 1.41608 cumulative IPC: 1.41933 (Simulation time: 3 hr 40 min 36 sec) 
Heartbeat CPU 0 instructions: 88000000 cycles: 48722787 heartbeat IPC: 1.41008 cumulative IPC: 1.41908 (Simulation time: 3 hr 43 min 30 sec) 
Heartbeat CPU 0 instructions: 89000003 cycles: 49420631 heartbeat IPC: 1.43299 cumulative IPC: 1.41944 (Simulation time: 3 hr 47 min 19 sec) 
Heartbeat CPU 0 instructions: 90000001 cycles: 50131542 heartbeat IPC: 1.40664 cumulative IPC: 1.41911 (Simulation time: 3 hr 50 min 45 sec) 
Heartbeat CPU 0 instructions: 91000002 cycles: 50832445 heartbeat IPC: 1.42673 cumulative IPC: 1.4193 (Simulation time: 3 hr 53 min 57 sec) 
Heartbeat CPU 0 instructions: 92000000 cycles: 51547460 heartbeat IPC: 1.39857 cumulative IPC: 1.4188 (Simulation time: 3 hr 56 min 57 sec) 
Heartbeat CPU 0 instructions: 93000001 cycles: 52247140 heartbeat IPC: 1.42923 cumulative IPC: 1.41904 (Simulation time: 3 hr 59 min 45 sec) 
Heartbeat CPU 0 instructions: 94000003 cycles: 52959671 heartbeat IPC: 1.40345 cumulative IPC: 1.41868 (Simulation time: 4 hr 3 min 2 sec) 
Heartbeat CPU 0 instructions: 95000003 cycles: 53666588 heartbeat IPC: 1.41459 cumulative IPC: 1.41859 (Simulation time: 4 hr 6 min 0 sec) 
Heartbeat CPU 0 instructions: 96000000 cycles: 54375849 heartbeat IPC: 1.40991 cumulative IPC: 1.4184 (Simulation time: 4 hr 8 min 59 sec) 
Heartbeat CPU 0 instructions: 97000000 cycles: 55086470 heartbeat IPC: 1.40722 cumulative IPC: 1.41816 (Simulation time: 4 hr 11 min 53 sec) 
Heartbeat CPU 0 instructions: 98000001 cycles: 55782970 heartbeat IPC: 1.43575 cumulative IPC: 1.41852 (Simulation time: 4 hr 14 min 57 sec) 
Heartbeat CPU 0 instructions: 99000001 cycles: 56505804 heartbeat IPC: 1.38344 cumulative IPC: 1.41779 (Simulation time: 4 hr 17 min 17 sec) 
Heartbeat CPU 0 instructions: 100000000 cycles: 57220951 heartbeat IPC: 1.39831 cumulative IPC: 1.41739 (Simulation time: 4 hr 19 min 38 sec) 
Heartbeat CPU 0 instructions: 101000002 cycles: 57948399 heartbeat IPC: 1.37467 cumulative IPC: 1.41653 (Simulation time: 4 hr 22 min 24 sec) 
Heartbeat CPU 0 instructions: 102000003 cycles: 58673814 heartbeat IPC: 1.37852 cumulative IPC: 1.41578 (Simulation time: 4 hr 24 min 59 sec) 
Heartbeat CPU 0 instructions: 103000001 cycles: 59415028 heartbeat IPC: 1.34914 cumulative IPC: 1.41446 (Simulation time: 4 hr 28 min 6 sec) 
Heartbeat CPU 0 instructions: 104000000 cycles: 60136602 heartbeat IPC: 1.38586 cumulative IPC: 1.41392 (Simulation time: 4 hr 31 min 14 sec) 
Heartbeat CPU 0 instructions: 105000003 cycles: 60872043 heartbeat IPC: 1.35973 cumulative IPC: 1.4129 (Simulation time: 4 hr 34 min 0 sec) 
Heartbeat CPU 0 instructions: 106000002 cycles: 61587922 heartbeat IPC: 1.39688 cumulative IPC: 1.41261 (Simulation time: 4 hr 36 min 41 sec) 
Heartbeat CPU 0 instructions: 107000000 cycles: 62313473 heartbeat IPC: 1.37826 cumulative IPC: 1.41199 (Simulation time: 4 hr 39 min 4 sec) 
Heartbeat CPU 0 instructions: 108000000 cycles: 63015907 heartbeat IPC: 1.42362 cumulative IPC: 1.41219 (Simulation time: 4 hr 42 min 12 sec) 
Heartbeat CPU 0 instructions: 109000002 cycles: 63712658 heartbeat IPC: 1.43524 cumulative IPC: 1.41257 (Simulation time: 4 hr 45 min 29 sec) 
Heartbeat CPU 0 instructions: 110000000 cycles: 64423100 heartbeat IPC: 1.40757 cumulative IPC: 1.41249 (Simulation time: 4 hr 48 min 41 sec) 
Heartbeat CPU 0 instructions: 111000002 cycles: 65118659 heartbeat IPC: 1.4377 cumulative IPC: 1.4129 (Simulation time: 4 hr 51 min 15 sec) 
Heartbeat CPU 0 instructions: 112000000 cycles: 65828996 heartbeat IPC: 1.40778 cumulative IPC: 1.41281 (Simulation time: 4 hr 54 min 8 sec) 
Heartbeat CPU 0 instructions: 113000001 cycles: 66527665 heartbeat IPC: 1.43129 cumulative IPC: 1.4131 (Simulation time: 4 hr 56 min 49 sec) 
Heartbeat CPU 0 instructions: 114000000 cycles: 67248902 heartbeat IPC: 1.38651 cumulative IPC: 1.41268 (Simulation time: 4 hr 59 min 43 sec) 
Heartbeat CPU 0 instructions: 115000000 cycles: 67956031 heartbeat IPC: 1.41417 cumulative IPC: 1.4127 (Simulation time: 5 hr 2 min 24 sec) 
Heartbeat CPU 0 instructions: 116000000 cycles: 68665185 heartbeat IPC: 1.41013 cumulative IPC: 1.41266 (Simulation time: 5 hr 4 min 59 sec) 
Heartbeat CPU 0 instructions: 117000003 cycles: 69364164 heartbeat IPC: 1.43066 cumulative IPC: 1.41293 (Simulation time: 5 hr 8 min 15 sec) 
Heartbeat CPU 0 instructions: 118000001 cycles: 70083667 heartbeat IPC: 1.38985 cumulative IPC: 1.41258 (Simulation time: 5 hr 10 min 37 sec) 
Heartbeat CPU 0 instructions: 119000003 cycles: 70785988 heartbeat IPC: 1.42385 cumulative IPC: 1.41275 (Simulation time: 5 hr 13 min 0 sec) 
Heartbeat CPU 0 instructions: 120000000 cycles: 71497666 heartbeat IPC: 1.40513 cumulative IPC: 1.41264 (Simulation time: 5 hr 15 min 44 sec) 
Heartbeat CPU 0 instructions: 121000000 cycles: 72191611 heartbeat IPC: 1.44104 cumulative IPC: 1.41303 (Simulation time: 5 hr 18 min 26 sec) 
Heartbeat CPU 0 instructions: 122000001 cycles: 72894266 heartbeat IPC: 1.42317 cumulative IPC: 1.41317 (Simulation time: 5 hr 21 min 2 sec) 
Heartbeat CPU 0 instructions: 123000001 cycles: 73601686 heartbeat IPC: 1.41359 cumulative IPC: 1.41317 (Simulation time: 5 hr 24 min 8 sec) 
Heartbeat CPU 0 instructions: 124000000 cycles: 74298528 heartbeat IPC: 1.43504 cumulative IPC: 1.41347 (Simulation time: 5 hr 26 min 58 sec) 
Heartbeat CPU 0 instructions: 125000002 cycles: 75008149 heartbeat IPC: 1.40921 cumulative IPC: 1.41341 (Simulation time: 5 hr 29 min 46 sec) 
Heartbeat CPU 0 instructions: 126000001 cycles: 75705711 heartbeat IPC: 1.43356 cumulative IPC: 1.41367 (Simulation time: 5 hr 31 min 54 sec) 
Heartbeat CPU 0 instructions: 127000002 cycles: 76412618 heartbeat IPC: 1.41461 cumulative IPC: 1.41368 (Simulation time: 5 hr 34 min 55 sec) 
Heartbeat CPU 0 instructions: 128000000 cycles: 77106328 heartbeat IPC: 1.44152 cumulative IPC: 1.41403 (Simulation time: 5 hr 37 min 34 sec) 
Heartbeat CPU 0 instructions: 129000001 cycles: 77814534 heartbeat IPC: 1.41202 cumulative IPC: 1.41401 (Simulation time: 5 hr 39 min 57 sec) 
Heartbeat CPU 0 instructions: 130000002 cycles: 78510950 heartbeat IPC: 1.43592 cumulative IPC: 1.41428 (Simulation time: 5 hr 42 min 26 sec) 
Heartbeat CPU 0 instructions: 131000000 cycles: 79222301 heartbeat IPC: 1.40577 cumulative IPC: 1.41417 (Simulation time: 5 hr 45 min 9 sec) 
Heartbeat CPU 0 instructions: 132000000 cycles: 79918214 heartbeat IPC: 1.43696 cumulative IPC: 1.41444 (Simulation time: 5 hr 47 min 24 sec) 
Heartbeat CPU 0 instructions: 133000001 cycles: 80630223 heartbeat IPC: 1.40448 cumulative IPC: 1.41432 (Simulation time: 5 hr 49 min 45 sec) 
Heartbeat CPU 0 instructions: 134000000 cycles: 81323845 heartbeat IPC: 1.44171 cumulative IPC: 1.41464 (Simulation time: 5 hr 51 min 53 sec) 
Heartbeat CPU 0 instructions: 135000001 cycles: 82031208 heartbeat IPC: 1.4137 cumulative IPC: 1.41463 (Simulation time: 5 hr 53 min 55 sec) 
Heartbeat CPU 0 instructions: 136000000 cycles: 82729356 heartbeat IPC: 1.43236 cumulative IPC: 1.41484 (Simulation time: 5 hr 56 min 2 sec) 
Heartbeat CPU 0 instructions: 137000001 cycles: 83424950 heartbeat IPC: 1.43762 cumulative IPC: 1.41509 (Simulation time: 5 hr 58 min 24 sec) 
Heartbeat CPU 0 instructions: 138000002 cycles: 84130992 heartbeat IPC: 1.41635 cumulative IPC: 1.41511 (Simulation time: 6 hr 0 min 31 sec) 
Heartbeat CPU 0 instructions: 139000001 cycles: 84827338 heartbeat IPC: 1.43607 cumulative IPC: 1.41534 (Simulation time: 6 hr 2 min 46 sec) 
Heartbeat CPU 0 instructions: 140000000 cycles: 85542469 heartbeat IPC: 1.39834 cumulative IPC: 1.41515 (Simulation time: 6 hr 4 min 42 sec) 
Heartbeat CPU 0 instructions: 141000001 cycles: 86237798 heartbeat IPC: 1.43817 cumulative IPC: 1.4154 (Simulation time: 6 hr 7 min 15 sec) 
Heartbeat CPU 0 instructions: 142000001 cycles: 86950491 heartbeat IPC: 1.40313 cumulative IPC: 1.41526 (Simulation time: 6 hr 10 min 3 sec) 
Heartbeat CPU 0 instructions: 143000000 cycles: 87648371 heartbeat IPC: 1.43291 cumulative IPC: 1.41545 (Simulation time: 6 hr 12 min 30 sec) 
Heartbeat CPU 0 instructions: 144000000 cycles: 88360884 heartbeat IPC: 1.40348 cumulative IPC: 1.41532 (Simulation time: 6 hr 14 min 41 sec) 
Heartbeat CPU 0 instructions: 145000001 cycles: 89055547 heartbeat IPC: 1.43955 cumulative IPC: 1.41557 (Simulation time: 6 hr 16 min 46 sec) 
Heartbeat CPU 0 instructions: 146000003 cycles: 89769957 heartbeat IPC: 1.39976 cumulative IPC: 1.41541 (Simulation time: 6 hr 18 min 54 sec) 
Heartbeat CPU 0 instructions: 147000002 cycles: 90467590 heartbeat IPC: 1.43342 cumulative IPC: 1.41559 (Simulation time: 6 hr 20 min 58 sec) 
Heartbeat CPU 0 instructions: 148000000 cycles: 91177867 heartbeat IPC: 1.4079 cumulative IPC: 1.41551 (Simulation time: 6 hr 22 min 54 sec) 
Heartbeat CPU 0 instructions: 149000001 cycles: 91882019 heartbeat IPC: 1.42015 cumulative IPC: 1.41556 (Simulation time: 6 hr 24 min 47 sec) 
Heartbeat CPU 0 instructions: 150000001 cycles: 92579552 heartbeat IPC: 1.43362 cumulative IPC: 1.41574 (Simulation time: 6 hr 26 min 44 sec) 
Finished CPU 0 instructions: 100000002 cycles: 70634614 cummulative IPC: 1.41574 (Simulation time: 6 hr 26 min 44 sec) 

ChampSim completed all CPUs

Region of Interest Statistics

CPU 0 cummulative IPC: 1.41574 instructions: 100000002 cycles: 70634614
LLC TOTAL     ACCESS:     824460  HIT:      44350  MISS:     780110
LLC LOAD      ACCESS:      17132  HIT:       2669  MISS:      14463
LLC RFO       ACCESS:     202308  HIT:       3834  MISS:     198474
LLC PREFETCH  ACCESS:     402281  HIT:       9903  MISS:     392378
LLC WRITEBACK ACCESS:     202739  HIT:      27944  MISS:     174795
