
*** ChampSim Multicore Out-of-Order Simulator ***

Warmup Instructions: 50000000
Simulation Instructions: 100000000
Configuration: 2
Number of CPUs: 1
LLC sets: 2048
LLC ways: 16
Off-chip DRAM Channels: 1 Width: 64-bit Data Rate: 1600 MT/s

CPU 0 runs /datasets/cs240c-wi22-a00-public/data/Assignment2-gz/soplex_66B.trace.gz
CPU 0 L1D next line prefetcher
CPU 0 L2C IP-based stride prefetcher
Initialize Hawkeye state
Heartbeat CPU 0 instructions: 1000003 cycles: 415067 heartbeat IPC: 2.40926 cumulative IPC: 2.40926 (Simulation time: 0 hr 0 min 38 sec) 
Heartbeat CPU 0 instructions: 2000003 cycles: 837422 heartbeat IPC: 2.36768 cumulative IPC: 2.38829 (Simulation time: 0 hr 1 min 15 sec) 
Heartbeat CPU 0 instructions: 3000003 cycles: 1242452 heartbeat IPC: 2.46895 cumulative IPC: 2.41458 (Simulation time: 0 hr 1 min 48 sec) 
Heartbeat CPU 0 instructions: 4000000 cycles: 1626564 heartbeat IPC: 2.6034 cumulative IPC: 2.45917 (Simulation time: 0 hr 2 min 21 sec) 
Heartbeat CPU 0 instructions: 5000000 cycles: 2037923 heartbeat IPC: 2.43097 cumulative IPC: 2.45348 (Simulation time: 0 hr 2 min 55 sec) 
Heartbeat CPU 0 instructions: 6000000 cycles: 2510079 heartbeat IPC: 2.11794 cumulative IPC: 2.39036 (Simulation time: 0 hr 3 min 27 sec) 
Heartbeat CPU 0 instructions: 7000002 cycles: 2882274 heartbeat IPC: 2.68677 cumulative IPC: 2.42864 (Simulation time: 0 hr 4 min 1 sec) 
Heartbeat CPU 0 instructions: 8000000 cycles: 3307644 heartbeat IPC: 2.35089 cumulative IPC: 2.41864 (Simulation time: 0 hr 4 min 38 sec) 
Heartbeat CPU 0 instructions: 9000001 cycles: 3746208 heartbeat IPC: 2.28017 cumulative IPC: 2.40243 (Simulation time: 0 hr 5 min 7 sec) 
Heartbeat CPU 0 instructions: 10000002 cycles: 4158348 heartbeat IPC: 2.42636 cumulative IPC: 2.4048 (Simulation time: 0 hr 5 min 39 sec) 
Heartbeat CPU 0 instructions: 11000001 cycles: 4569570 heartbeat IPC: 2.43177 cumulative IPC: 2.40723 (Simulation time: 0 hr 6 min 11 sec) 
Heartbeat CPU 0 instructions: 12000000 cycles: 4953507 heartbeat IPC: 2.60459 cumulative IPC: 2.42253 (Simulation time: 0 hr 6 min 43 sec) 
Heartbeat CPU 0 instructions: 13000003 cycles: 5352286 heartbeat IPC: 2.50766 cumulative IPC: 2.42887 (Simulation time: 0 hr 7 min 12 sec) 
Heartbeat CPU 0 instructions: 14000002 cycles: 5840132 heartbeat IPC: 2.04983 cumulative IPC: 2.39721 (Simulation time: 0 hr 7 min 42 sec) 
Heartbeat CPU 0 instructions: 15000003 cycles: 6214637 heartbeat IPC: 2.67019 cumulative IPC: 2.41366 (Simulation time: 0 hr 8 min 12 sec) 
Heartbeat CPU 0 instructions: 16000000 cycles: 6622616 heartbeat IPC: 2.4511 cumulative IPC: 2.41596 (Simulation time: 0 hr 8 min 44 sec) 
Heartbeat CPU 0 instructions: 17000001 cycles: 7076571 heartbeat IPC: 2.20286 cumulative IPC: 2.40229 (Simulation time: 0 hr 9 min 13 sec) 
Heartbeat CPU 0 instructions: 18000003 cycles: 7485654 heartbeat IPC: 2.4445 cumulative IPC: 2.4046 (Simulation time: 0 hr 9 min 50 sec) 
Heartbeat CPU 0 instructions: 19000002 cycles: 7903718 heartbeat IPC: 2.39198 cumulative IPC: 2.40393 (Simulation time: 0 hr 10 min 27 sec) 
Heartbeat CPU 0 instructions: 20000000 cycles: 8287688 heartbeat IPC: 2.60436 cumulative IPC: 2.41322 (Simulation time: 0 hr 10 min 57 sec) 
Heartbeat CPU 0 instructions: 21000000 cycles: 8681828 heartbeat IPC: 2.53717 cumulative IPC: 2.41885 (Simulation time: 0 hr 11 min 25 sec) 
Heartbeat CPU 0 instructions: 22000000 cycles: 9175733 heartbeat IPC: 2.02468 cumulative IPC: 2.39763 (Simulation time: 0 hr 11 min 59 sec) 
Heartbeat CPU 0 instructions: 23000002 cycles: 9548724 heartbeat IPC: 2.68104 cumulative IPC: 2.4087 (Simulation time: 0 hr 12 min 30 sec) 
Heartbeat CPU 0 instructions: 24000000 cycles: 9940049 heartbeat IPC: 2.55542 cumulative IPC: 2.41447 (Simulation time: 0 hr 13 min 0 sec) 
Heartbeat CPU 0 instructions: 25000003 cycles: 10418344 heartbeat IPC: 2.09077 cumulative IPC: 2.39961 (Simulation time: 0 hr 13 min 32 sec) 
Heartbeat CPU 0 instructions: 26000001 cycles: 10817218 heartbeat IPC: 2.50705 cumulative IPC: 2.40358 (Simulation time: 0 hr 14 min 7 sec) 
Heartbeat CPU 0 instructions: 27000002 cycles: 11235238 heartbeat IPC: 2.39223 cumulative IPC: 2.40315 (Simulation time: 0 hr 14 min 50 sec) 
Heartbeat CPU 0 instructions: 28000000 cycles: 11619426 heartbeat IPC: 2.60289 cumulative IPC: 2.40976 (Simulation time: 0 hr 15 min 23 sec) 
Heartbeat CPU 0 instructions: 29000000 cycles: 12009256 heartbeat IPC: 2.56522 cumulative IPC: 2.4148 (Simulation time: 0 hr 15 min 58 sec) 
Heartbeat CPU 0 instructions: 30000003 cycles: 12507798 heartbeat IPC: 2.00586 cumulative IPC: 2.3985 (Simulation time: 0 hr 16 min 34 sec) 
Heartbeat CPU 0 instructions: 31000001 cycles: 12879980 heartbeat IPC: 2.68685 cumulative IPC: 2.40684 (Simulation time: 0 hr 17 min 12 sec) 
Heartbeat CPU 0 instructions: 32000000 cycles: 13260049 heartbeat IPC: 2.6311 cumulative IPC: 2.41326 (Simulation time: 0 hr 17 min 48 sec) 
Heartbeat CPU 0 instructions: 33000002 cycles: 13683151 heartbeat IPC: 2.3635 cumulative IPC: 2.41173 (Simulation time: 0 hr 18 min 29 sec) 
Heartbeat CPU 0 instructions: 34000003 cycles: 14094746 heartbeat IPC: 2.42958 cumulative IPC: 2.41225 (Simulation time: 0 hr 19 min 10 sec) 
Heartbeat CPU 0 instructions: 35000003 cycles: 14505570 heartbeat IPC: 2.43413 cumulative IPC: 2.41287 (Simulation time: 0 hr 19 min 51 sec) 
Heartbeat CPU 0 instructions: 36000000 cycles: 14889325 heartbeat IPC: 2.60582 cumulative IPC: 2.41784 (Simulation time: 0 hr 20 min 24 sec) 
Heartbeat CPU 0 instructions: 37000000 cycles: 15287926 heartbeat IPC: 2.50877 cumulative IPC: 2.42021 (Simulation time: 0 hr 20 min 59 sec) 
Heartbeat CPU 0 instructions: 38000000 cycles: 15775052 heartbeat IPC: 2.05286 cumulative IPC: 2.40887 (Simulation time: 0 hr 21 min 36 sec) 
Heartbeat CPU 0 instructions: 39000002 cycles: 16146496 heartbeat IPC: 2.6922 cumulative IPC: 2.41538 (Simulation time: 0 hr 22 min 15 sec) 
Heartbeat CPU 0 instructions: 40000000 cycles: 16555652 heartbeat IPC: 2.44405 cumulative IPC: 2.41609 (Simulation time: 0 hr 22 min 56 sec) 
Heartbeat CPU 0 instructions: 41000001 cycles: 17010221 heartbeat IPC: 2.19989 cumulative IPC: 2.41032 (Simulation time: 0 hr 23 min 37 sec) 
Heartbeat CPU 0 instructions: 42000000 cycles: 17419249 heartbeat IPC: 2.44482 cumulative IPC: 2.41113 (Simulation time: 0 hr 24 min 16 sec) 
Heartbeat CPU 0 instructions: 43000000 cycles: 17837689 heartbeat IPC: 2.38983 cumulative IPC: 2.41063 (Simulation time: 0 hr 24 min 58 sec) 
Heartbeat CPU 0 instructions: 44000000 cycles: 18221405 heartbeat IPC: 2.60609 cumulative IPC: 2.41474 (Simulation time: 0 hr 25 min 33 sec) 
Heartbeat CPU 0 instructions: 45000003 cycles: 18614725 heartbeat IPC: 2.54247 cumulative IPC: 2.41744 (Simulation time: 0 hr 26 min 6 sec) 
Heartbeat CPU 0 instructions: 46000001 cycles: 19108508 heartbeat IPC: 2.02518 cumulative IPC: 2.4073 (Simulation time: 0 hr 26 min 42 sec) 
Heartbeat CPU 0 instructions: 47000001 cycles: 19482820 heartbeat IPC: 2.67157 cumulative IPC: 2.41238 (Simulation time: 0 hr 27 min 19 sec) 
Heartbeat CPU 0 instructions: 48000000 cycles: 19873007 heartbeat IPC: 2.56287 cumulative IPC: 2.41534 (Simulation time: 0 hr 27 min 54 sec) 
Heartbeat CPU 0 instructions: 49000000 cycles: 20528889 heartbeat IPC: 1.52466 cumulative IPC: 2.38688 (Simulation time: 0 hr 28 min 38 sec) 
Heartbeat CPU 0 instructions: 50000003 cycles: 21053928 heartbeat IPC: 1.90463 cumulative IPC: 2.37485 (Simulation time: 0 hr 29 min 18 sec) 

Warmup complete CPU 0 instructions: 50000003 cycles: 21053928 (Simulation time: 0 hr 29 min 18 sec) 

Heartbeat CPU 0 instructions: 51000002 cycles: 23540461 heartbeat IPC: 0.402166 cumulative IPC: 0.402166 (Simulation time: 0 hr 30 min 14 sec) 
Heartbeat CPU 0 instructions: 52000000 cycles: 27276327 heartbeat IPC: 0.267675 cumulative IPC: 0.321419 (Simulation time: 0 hr 31 min 2 sec) 
Heartbeat CPU 0 instructions: 53000003 cycles: 29922124 heartbeat IPC: 0.377959 cumulative IPC: 0.338288 (Simulation time: 0 hr 31 min 50 sec) 
Heartbeat CPU 0 instructions: 54000000 cycles: 32369470 heartbeat IPC: 0.408605 cumulative IPC: 0.353496 (Simulation time: 0 hr 32 min 35 sec) 
Heartbeat CPU 0 instructions: 55000002 cycles: 35777110 heartbeat IPC: 0.293459 cumulative IPC: 0.3396 (Simulation time: 0 hr 33 min 18 sec) 
Heartbeat CPU 0 instructions: 56000000 cycles: 39012577 heartbeat IPC: 0.309074 cumulative IPC: 0.334101 (Simulation time: 0 hr 34 min 3 sec) 
Heartbeat CPU 0 instructions: 57000003 cycles: 41567040 heartbeat IPC: 0.391473 cumulative IPC: 0.341245 (Simulation time: 0 hr 34 min 40 sec) 
Heartbeat CPU 0 instructions: 58000002 cycles: 43747483 heartbeat IPC: 0.458622 cumulative IPC: 0.352523 (Simulation time: 0 hr 35 min 23 sec) 
Heartbeat CPU 0 instructions: 59000002 cycles: 45269647 heartbeat IPC: 0.656959 cumulative IPC: 0.371659 (Simulation time: 0 hr 36 min 0 sec) 
Heartbeat CPU 0 instructions: 60000000 cycles: 46762691 heartbeat IPC: 0.669771 cumulative IPC: 0.388972 (Simulation time: 0 hr 36 min 34 sec) 
Heartbeat CPU 0 instructions: 61000002 cycles: 49466228 heartbeat IPC: 0.369887 cumulative IPC: 0.387156 (Simulation time: 0 hr 37 min 20 sec) 
Heartbeat CPU 0 instructions: 62000000 cycles: 51884494 heartbeat IPC: 0.413519 cumulative IPC: 0.389224 (Simulation time: 0 hr 38 min 6 sec) 
Heartbeat CPU 0 instructions: 63000002 cycles: 53798635 heartbeat IPC: 0.522429 cumulative IPC: 0.397011 (Simulation time: 0 hr 38 min 48 sec) 
Heartbeat CPU 0 instructions: 64000000 cycles: 56235750 heartbeat IPC: 0.41032 cumulative IPC: 0.397933 (Simulation time: 0 hr 39 min 32 sec) 
Heartbeat CPU 0 instructions: 65000000 cycles: 59495197 heartbeat IPC: 0.306801 cumulative IPC: 0.390206 (Simulation time: 0 hr 40 min 17 sec) 
Heartbeat CPU 0 instructions: 66000001 cycles: 60711646 heartbeat IPC: 0.822066 cumulative IPC: 0.403452 (Simulation time: 0 hr 40 min 42 sec) 
Heartbeat CPU 0 instructions: 67000000 cycles: 61998187 heartbeat IPC: 0.777277 cumulative IPC: 0.415199 (Simulation time: 0 hr 41 min 12 sec) 
Heartbeat CPU 0 instructions: 68000000 cycles: 65383192 heartbeat IPC: 0.295421 cumulative IPC: 0.406052 (Simulation time: 0 hr 41 min 54 sec) 
Heartbeat CPU 0 instructions: 69000000 cycles: 68015722 heartbeat IPC: 0.379863 cumulative IPC: 0.404584 (Simulation time: 0 hr 42 min 28 sec) 
Heartbeat CPU 0 instructions: 70000001 cycles: 70518460 heartbeat IPC: 0.399563 cumulative IPC: 0.40433 (Simulation time: 0 hr 43 min 1 sec) 
Heartbeat CPU 0 instructions: 71000000 cycles: 72999013 heartbeat IPC: 0.403136 cumulative IPC: 0.404273 (Simulation time: 0 hr 43 min 53 sec) 
Heartbeat CPU 0 instructions: 72000000 cycles: 75842406 heartbeat IPC: 0.351692 cumulative IPC: 0.401544 (Simulation time: 0 hr 44 min 31 sec) 
Heartbeat CPU 0 instructions: 73000001 cycles: 78634245 heartbeat IPC: 0.358187 cumulative IPC: 0.399442 (Simulation time: 0 hr 45 min 22 sec) 
Heartbeat CPU 0 instructions: 74000000 cycles: 80515271 heartbeat IPC: 0.531624 cumulative IPC: 0.403624 (Simulation time: 0 hr 45 min 52 sec) 
Heartbeat CPU 0 instructions: 75000002 cycles: 81732466 heartbeat IPC: 0.821563 cumulative IPC: 0.412007 (Simulation time: 0 hr 46 min 21 sec) 
Heartbeat CPU 0 instructions: 76000000 cycles: 85252274 heartbeat IPC: 0.284106 cumulative IPC: 0.404995 (Simulation time: 0 hr 47 min 7 sec) 
Heartbeat CPU 0 instructions: 77000000 cycles: 87709238 heartbeat IPC: 0.407006 cumulative IPC: 0.405069 (Simulation time: 0 hr 47 min 36 sec) 
Heartbeat CPU 0 instructions: 78000003 cycles: 90237028 heartbeat IPC: 0.395604 cumulative IPC: 0.404723 (Simulation time: 0 hr 48 min 8 sec) 
Heartbeat CPU 0 instructions: 79000001 cycles: 93536579 heartbeat IPC: 0.303071 cumulative IPC: 0.400096 (Simulation time: 0 hr 48 min 55 sec) 
Heartbeat CPU 0 instructions: 80000000 cycles: 95964891 heartbeat IPC: 0.411808 cumulative IPC: 0.400475 (Simulation time: 0 hr 49 min 42 sec) 
Heartbeat CPU 0 instructions: 81000003 cycles: 98920766 heartbeat IPC: 0.33831 cumulative IPC: 0.398116 (Simulation time: 0 hr 50 min 28 sec) 
Heartbeat CPU 0 instructions: 82000000 cycles: 100544753 heartbeat IPC: 0.615767 cumulative IPC: 0.402562 (Simulation time: 0 hr 51 min 3 sec) 
Heartbeat CPU 0 instructions: 83000001 cycles: 101816909 heartbeat IPC: 0.786068 cumulative IPC: 0.408603 (Simulation time: 0 hr 51 min 34 sec) 
Heartbeat CPU 0 instructions: 84000000 cycles: 105131019 heartbeat IPC: 0.30174 cumulative IPC: 0.404391 (Simulation time: 0 hr 52 min 17 sec) 
Heartbeat CPU 0 instructions: 85000000 cycles: 107571634 heartbeat IPC: 0.409733 cumulative IPC: 0.404541 (Simulation time: 0 hr 52 min 47 sec) 
Heartbeat CPU 0 instructions: 86000000 cycles: 110237338 heartbeat IPC: 0.375135 cumulative IPC: 0.403662 (Simulation time: 0 hr 53 min 20 sec) 
Heartbeat CPU 0 instructions: 87000000 cycles: 113320402 heartbeat IPC: 0.324353 cumulative IPC: 0.401012 (Simulation time: 0 hr 54 min 11 sec) 
Heartbeat CPU 0 instructions: 88000000 cycles: 115484644 heartbeat IPC: 0.462056 cumulative IPC: 0.402411 (Simulation time: 0 hr 54 min 45 sec) 
Heartbeat CPU 0 instructions: 89000001 cycles: 118837382 heartbeat IPC: 0.298264 cumulative IPC: 0.39884 (Simulation time: 0 hr 55 min 28 sec) 
Heartbeat CPU 0 instructions: 90000002 cycles: 120053241 heartbeat IPC: 0.822465 cumulative IPC: 0.404043 (Simulation time: 0 hr 55 min 54 sec) 
Heartbeat CPU 0 instructions: 91000000 cycles: 121378096 heartbeat IPC: 0.754798 cumulative IPC: 0.408675 (Simulation time: 0 hr 56 min 20 sec) 
Heartbeat CPU 0 instructions: 92000000 cycles: 124977919 heartbeat IPC: 0.277791 cumulative IPC: 0.404141 (Simulation time: 0 hr 57 min 5 sec) 
Heartbeat CPU 0 instructions: 93000000 cycles: 127631609 heartbeat IPC: 0.376834 cumulative IPC: 0.403462 (Simulation time: 0 hr 57 min 37 sec) 
Heartbeat CPU 0 instructions: 94000001 cycles: 130196500 heartbeat IPC: 0.389881 cumulative IPC: 0.403142 (Simulation time: 0 hr 58 min 15 sec) 
Heartbeat CPU 0 instructions: 95000003 cycles: 133401682 heartbeat IPC: 0.311995 cumulative IPC: 0.400542 (Simulation time: 0 hr 59 min 3 sec) 
Heartbeat CPU 0 instructions: 96000000 cycles: 135257007 heartbeat IPC: 0.538988 cumulative IPC: 0.402791 (Simulation time: 0 hr 59 min 38 sec) 
Heartbeat CPU 0 instructions: 97000003 cycles: 138360611 heartbeat IPC: 0.322207 cumulative IPC: 0.400659 (Simulation time: 1 hr 0 min 18 sec) 
Heartbeat CPU 0 instructions: 98000003 cycles: 139585946 heartbeat IPC: 0.816103 cumulative IPC: 0.404954 (Simulation time: 1 hr 0 min 42 sec) 
Heartbeat CPU 0 instructions: 99000000 cycles: 142004574 heartbeat IPC: 0.413456 cumulative IPC: 0.405124 (Simulation time: 1 hr 1 min 14 sec) 
Heartbeat CPU 0 instructions: 100000000 cycles: 144719991 heartbeat IPC: 0.368268 cumulative IPC: 0.404315 (Simulation time: 1 hr 1 min 56 sec) 
Heartbeat CPU 0 instructions: 101000001 cycles: 147281370 heartbeat IPC: 0.390415 cumulative IPC: 0.404033 (Simulation time: 1 hr 2 min 28 sec) 
Heartbeat CPU 0 instructions: 102000002 cycles: 150030352 heartbeat IPC: 0.363771 cumulative IPC: 0.403174 (Simulation time: 1 hr 3 min 3 sec) 
Heartbeat CPU 0 instructions: 103000002 cycles: 153153819 heartbeat IPC: 0.320157 cumulative IPC: 0.401212 (Simulation time: 1 hr 3 min 45 sec) 
Heartbeat CPU 0 instructions: 104000000 cycles: 155384017 heartbeat IPC: 0.44839 cumulative IPC: 0.401995 (Simulation time: 1 hr 4 min 28 sec) 
Heartbeat CPU 0 instructions: 105000000 cycles: 157725422 heartbeat IPC: 0.427094 cumulative IPC: 0.402425 (Simulation time: 1 hr 5 min 7 sec) 
Heartbeat CPU 0 instructions: 106000001 cycles: 158940620 heartbeat IPC: 0.822912 cumulative IPC: 0.406131 (Simulation time: 1 hr 5 min 36 sec) 
Heartbeat CPU 0 instructions: 107000001 cycles: 162184483 heartbeat IPC: 0.308274 cumulative IPC: 0.403881 (Simulation time: 1 hr 6 min 19 sec) 
Heartbeat CPU 0 instructions: 108000000 cycles: 164525862 heartbeat IPC: 0.427098 cumulative IPC: 0.40426 (Simulation time: 1 hr 6 min 57 sec) 
Heartbeat CPU 0 instructions: 109000003 cycles: 167153020 heartbeat IPC: 0.380641 cumulative IPC: 0.403836 (Simulation time: 1 hr 7 min 32 sec) 
Heartbeat CPU 0 instructions: 110000001 cycles: 170309268 heartbeat IPC: 0.316831 cumulative IPC: 0.401996 (Simulation time: 1 hr 8 min 13 sec) 
Heartbeat CPU 0 instructions: 111000001 cycles: 172279217 heartbeat IPC: 0.507627 cumulative IPC: 0.403372 (Simulation time: 1 hr 8 min 49 sec) 
Heartbeat CPU 0 instructions: 112000000 cycles: 174288386 heartbeat IPC: 0.497718 cumulative IPC: 0.404609 (Simulation time: 1 hr 9 min 27 sec) 
Heartbeat CPU 0 instructions: 113000000 cycles: 176910433 heartbeat IPC: 0.381381 cumulative IPC: 0.404218 (Simulation time: 1 hr 10 min 0 sec) 
Heartbeat CPU 0 instructions: 114000000 cycles: 178153158 heartbeat IPC: 0.804683 cumulative IPC: 0.407386 (Simulation time: 1 hr 10 min 29 sec) 
Heartbeat CPU 0 instructions: 115000003 cycles: 181257094 heartbeat IPC: 0.322173 cumulative IPC: 0.405735 (Simulation time: 1 hr 11 min 5 sec) 
Heartbeat CPU 0 instructions: 116000000 cycles: 183688205 heartbeat IPC: 0.411333 cumulative IPC: 0.405818 (Simulation time: 1 hr 11 min 36 sec) 
Heartbeat CPU 0 instructions: 117000000 cycles: 186353390 heartbeat IPC: 0.375208 cumulative IPC: 0.405325 (Simulation time: 1 hr 12 min 6 sec) 
Heartbeat CPU 0 instructions: 118000003 cycles: 189706716 heartbeat IPC: 0.298212 cumulative IPC: 0.403195 (Simulation time: 1 hr 12 min 49 sec) 
Heartbeat CPU 0 instructions: 119000002 cycles: 191561449 heartbeat IPC: 0.539161 cumulative IPC: 0.404674 (Simulation time: 1 hr 13 min 20 sec) 
Heartbeat CPU 0 instructions: 120000000 cycles: 193506050 heartbeat IPC: 0.514243 cumulative IPC: 0.40591 (Simulation time: 1 hr 13 min 51 sec) 
Heartbeat CPU 0 instructions: 121000000 cycles: 196345108 heartbeat IPC: 0.35223 cumulative IPC: 0.40504 (Simulation time: 1 hr 14 min 22 sec) 
Heartbeat CPU 0 instructions: 122000000 cycles: 197555135 heartbeat IPC: 0.826428 cumulative IPC: 0.407929 (Simulation time: 1 hr 14 min 43 sec) 
Heartbeat CPU 0 instructions: 123000000 cycles: 200272991 heartbeat IPC: 0.367937 cumulative IPC: 0.407323 (Simulation time: 1 hr 15 min 17 sec) 
Heartbeat CPU 0 instructions: 124000000 cycles: 202835328 heartbeat IPC: 0.390269 cumulative IPC: 0.407082 (Simulation time: 1 hr 15 min 48 sec) 
Heartbeat CPU 0 instructions: 125000001 cycles: 205421352 heartbeat IPC: 0.386694 cumulative IPC: 0.406796 (Simulation time: 1 hr 16 min 17 sec) 
Heartbeat CPU 0 instructions: 126000000 cycles: 208313998 heartbeat IPC: 0.345704 cumulative IPC: 0.405853 (Simulation time: 1 hr 16 min 53 sec) 
Heartbeat CPU 0 instructions: 127000002 cycles: 211223089 heartbeat IPC: 0.343751 cumulative IPC: 0.404903 (Simulation time: 1 hr 17 min 29 sec) 
Heartbeat CPU 0 instructions: 128000000 cycles: 213615373 heartbeat IPC: 0.41801 cumulative IPC: 0.405066 (Simulation time: 1 hr 18 min 4 sec) 
Heartbeat CPU 0 instructions: 129000000 cycles: 215751017 heartbeat IPC: 0.468243 cumulative IPC: 0.405759 (Simulation time: 1 hr 18 min 29 sec) 
Heartbeat CPU 0 instructions: 130000000 cycles: 217008664 heartbeat IPC: 0.795136 cumulative IPC: 0.408258 (Simulation time: 1 hr 18 min 48 sec) 
Heartbeat CPU 0 instructions: 131000000 cycles: 220283361 heartbeat IPC: 0.305372 cumulative IPC: 0.406566 (Simulation time: 1 hr 19 min 19 sec) 
Heartbeat CPU 0 instructions: 132000000 cycles: 222733874 heartbeat IPC: 0.408078 cumulative IPC: 0.406585 (Simulation time: 1 hr 19 min 42 sec) 
Heartbeat CPU 0 instructions: 133000000 cycles: 225354093 heartbeat IPC: 0.381647 cumulative IPC: 0.406265 (Simulation time: 1 hr 20 min 4 sec) 
Heartbeat CPU 0 instructions: 134000001 cycles: 228752255 heartbeat IPC: 0.294277 cumulative IPC: 0.404433 (Simulation time: 1 hr 20 min 36 sec) 
Heartbeat CPU 0 instructions: 135000003 cycles: 230680470 heartbeat IPC: 0.518615 cumulative IPC: 0.405483 (Simulation time: 1 hr 21 min 1 sec) 
Heartbeat CPU 0 instructions: 136000000 cycles: 232681674 heartbeat IPC: 0.499698 cumulative IPC: 0.406374 (Simulation time: 1 hr 21 min 31 sec) 
Heartbeat CPU 0 instructions: 137000000 cycles: 235375042 heartbeat IPC: 0.371282 cumulative IPC: 0.405933 (Simulation time: 1 hr 21 min 54 sec) 
Heartbeat CPU 0 instructions: 138000000 cycles: 236586028 heartbeat IPC: 0.825773 cumulative IPC: 0.408292 (Simulation time: 1 hr 22 min 13 sec) 
Heartbeat CPU 0 instructions: 139000001 cycles: 239398895 heartbeat IPC: 0.35551 cumulative IPC: 0.407612 (Simulation time: 1 hr 22 min 36 sec) 
Heartbeat CPU 0 instructions: 140000000 cycles: 241835399 heartbeat IPC: 0.410424 cumulative IPC: 0.407643 (Simulation time: 1 hr 22 min 57 sec) 
Heartbeat CPU 0 instructions: 141000003 cycles: 244468822 heartbeat IPC: 0.379735 cumulative IPC: 0.407314 (Simulation time: 1 hr 23 min 18 sec) 
Heartbeat CPU 0 instructions: 142000003 cycles: 247660896 heartbeat IPC: 0.313276 cumulative IPC: 0.405989 (Simulation time: 1 hr 23 min 44 sec) 
Heartbeat CPU 0 instructions: 143000001 cycles: 252055049 heartbeat IPC: 0.227575 cumulative IPC: 0.402595 (Simulation time: 1 hr 24 min 15 sec) 
Heartbeat CPU 0 instructions: 144000000 cycles: 255656662 heartbeat IPC: 0.277653 cumulative IPC: 0.400677 (Simulation time: 1 hr 24 min 46 sec) 
Heartbeat CPU 0 instructions: 145000001 cycles: 258581321 heartbeat IPC: 0.341921 cumulative IPC: 0.399954 (Simulation time: 1 hr 25 min 14 sec) 
Heartbeat CPU 0 instructions: 146000000 cycles: 262420703 heartbeat IPC: 0.260458 cumulative IPC: 0.397735 (Simulation time: 1 hr 25 min 42 sec) 
Heartbeat CPU 0 instructions: 147000000 cycles: 264947107 heartbeat IPC: 0.39582 cumulative IPC: 0.397715 (Simulation time: 1 hr 26 min 9 sec) 
Heartbeat CPU 0 instructions: 148000000 cycles: 268001834 heartbeat IPC: 0.327361 cumulative IPC: 0.396845 (Simulation time: 1 hr 26 min 36 sec) 
Heartbeat CPU 0 instructions: 149000000 cycles: 271008785 heartbeat IPC: 0.332563 cumulative IPC: 0.396071 (Simulation time: 1 hr 26 min 58 sec) 
Heartbeat CPU 0 instructions: 150000001 cycles: 273840628 heartbeat IPC: 0.353127 cumulative IPC: 0.39559 (Simulation time: 1 hr 27 min 22 sec) 
Finished CPU 0 instructions: 100000001 cycles: 252786704 cummulative IPC: 0.39559 (Simulation time: 1 hr 27 min 22 sec) 

ChampSim completed all CPUs

Region of Interest Statistics

CPU 0 cummulative IPC: 0.39559 instructions: 100000001 cycles: 252786704
LLC TOTAL     ACCESS:    6714147  HIT:    3341883  MISS:    3372264
LLC LOAD      ACCESS:    1679987  HIT:     723893  MISS:     956094
LLC RFO       ACCESS:     736913  HIT:     255715  MISS:     481198
LLC PREFETCH  ACCESS:    2657077  HIT:    1146750  MISS:    1510327
LLC WRITEBACK ACCESS:    1640170  HIT:    1215525  MISS:     424645
OPTgen accesses: 53019
OPTgen hits: 37750
OPTgen hit rate: 71.2009


