
*** ChampSim Multicore Out-of-Order Simulator ***

Warmup Instructions: 50000000
Simulation Instructions: 100000000
Configuration: 2
Number of CPUs: 1
LLC sets: 2048
LLC ways: 16
Off-chip DRAM Channels: 1 Width: 64-bit Data Rate: 1600 MT/s

CPU 0 runs /datasets/cs240c-wi22-a00-public/data/Assignment2-gz/soplex_205B.trace.gz
CPU 0 L1D next line prefetcher
CPU 0 L2C IP-based stride prefetcher
Initialize Hawkeye state
Heartbeat CPU 0 instructions: 1000000 cycles: 395620 heartbeat IPC: 2.52768 cumulative IPC: 2.52768 (Simulation time: 0 hr 0 min 30 sec) 
Heartbeat CPU 0 instructions: 2000002 cycles: 928717 heartbeat IPC: 1.87583 cumulative IPC: 2.15351 (Simulation time: 0 hr 1 min 3 sec) 
Heartbeat CPU 0 instructions: 3000000 cycles: 1400487 heartbeat IPC: 2.11967 cumulative IPC: 2.14211 (Simulation time: 0 hr 1 min 44 sec) 
Heartbeat CPU 0 instructions: 4000000 cycles: 1761654 heartbeat IPC: 2.7688 cumulative IPC: 2.27059 (Simulation time: 0 hr 2 min 18 sec) 
Heartbeat CPU 0 instructions: 5000003 cycles: 2205047 heartbeat IPC: 2.25534 cumulative IPC: 2.26753 (Simulation time: 0 hr 2 min 54 sec) 
Heartbeat CPU 0 instructions: 6000003 cycles: 2624718 heartbeat IPC: 2.38282 cumulative IPC: 2.28596 (Simulation time: 0 hr 3 min 33 sec) 
Heartbeat CPU 0 instructions: 7000000 cycles: 3009152 heartbeat IPC: 2.60122 cumulative IPC: 2.32624 (Simulation time: 0 hr 4 min 4 sec) 
Heartbeat CPU 0 instructions: 8000000 cycles: 3401646 heartbeat IPC: 2.54781 cumulative IPC: 2.3518 (Simulation time: 0 hr 4 min 36 sec) 
Heartbeat CPU 0 instructions: 9000003 cycles: 3924165 heartbeat IPC: 1.91381 cumulative IPC: 2.29348 (Simulation time: 0 hr 5 min 9 sec) 
Heartbeat CPU 0 instructions: 10000000 cycles: 4409444 heartbeat IPC: 2.06066 cumulative IPC: 2.26786 (Simulation time: 0 hr 5 min 48 sec) 
Heartbeat CPU 0 instructions: 11000001 cycles: 4779381 heartbeat IPC: 2.70317 cumulative IPC: 2.30155 (Simulation time: 0 hr 6 min 23 sec) 
Heartbeat CPU 0 instructions: 12000000 cycles: 5216275 heartbeat IPC: 2.28888 cumulative IPC: 2.30049 (Simulation time: 0 hr 7 min 0 sec) 
Heartbeat CPU 0 instructions: 13000001 cycles: 5638667 heartbeat IPC: 2.36747 cumulative IPC: 2.30551 (Simulation time: 0 hr 7 min 41 sec) 
Heartbeat CPU 0 instructions: 14000003 cycles: 6022989 heartbeat IPC: 2.60199 cumulative IPC: 2.32443 (Simulation time: 0 hr 8 min 9 sec) 
Heartbeat CPU 0 instructions: 15000000 cycles: 6433733 heartbeat IPC: 2.4346 cumulative IPC: 2.33146 (Simulation time: 0 hr 8 min 35 sec) 
Heartbeat CPU 0 instructions: 16000000 cycles: 6965774 heartbeat IPC: 1.87955 cumulative IPC: 2.29695 (Simulation time: 0 hr 9 min 6 sec) 
Heartbeat CPU 0 instructions: 17000001 cycles: 7522148 heartbeat IPC: 1.79735 cumulative IPC: 2.25999 (Simulation time: 0 hr 9 min 53 sec) 
Heartbeat CPU 0 instructions: 18000000 cycles: 8034202 heartbeat IPC: 1.95292 cumulative IPC: 2.24042 (Simulation time: 0 hr 10 min 32 sec) 
Heartbeat CPU 0 instructions: 19000002 cycles: 8709447 heartbeat IPC: 1.48095 cumulative IPC: 2.18154 (Simulation time: 0 hr 11 min 16 sec) 
Heartbeat CPU 0 instructions: 20000000 cycles: 9465538 heartbeat IPC: 1.32259 cumulative IPC: 2.11293 (Simulation time: 0 hr 11 min 56 sec) 
Heartbeat CPU 0 instructions: 21000001 cycles: 9911859 heartbeat IPC: 2.24054 cumulative IPC: 2.11867 (Simulation time: 0 hr 12 min 34 sec) 
Heartbeat CPU 0 instructions: 22000000 cycles: 10357188 heartbeat IPC: 2.24553 cumulative IPC: 2.12413 (Simulation time: 0 hr 13 min 20 sec) 
Heartbeat CPU 0 instructions: 23000000 cycles: 10798917 heartbeat IPC: 2.26383 cumulative IPC: 2.12984 (Simulation time: 0 hr 14 min 1 sec) 
Heartbeat CPU 0 instructions: 24000000 cycles: 11300174 heartbeat IPC: 1.99498 cumulative IPC: 2.12386 (Simulation time: 0 hr 14 min 38 sec) 
Heartbeat CPU 0 instructions: 25000002 cycles: 11841200 heartbeat IPC: 1.84834 cumulative IPC: 2.11127 (Simulation time: 0 hr 15 min 21 sec) 
Heartbeat CPU 0 instructions: 26000002 cycles: 12480755 heartbeat IPC: 1.56359 cumulative IPC: 2.08321 (Simulation time: 0 hr 16 min 10 sec) 
Heartbeat CPU 0 instructions: 27000003 cycles: 13067669 heartbeat IPC: 1.70383 cumulative IPC: 2.06617 (Simulation time: 0 hr 16 min 55 sec) 
Heartbeat CPU 0 instructions: 28000000 cycles: 13837762 heartbeat IPC: 1.29854 cumulative IPC: 2.02345 (Simulation time: 0 hr 17 min 43 sec) 
Heartbeat CPU 0 instructions: 29000002 cycles: 14419710 heartbeat IPC: 1.71837 cumulative IPC: 2.01114 (Simulation time: 0 hr 18 min 17 sec) 
Heartbeat CPU 0 instructions: 30000003 cycles: 14840047 heartbeat IPC: 2.37905 cumulative IPC: 2.02156 (Simulation time: 0 hr 18 min 52 sec) 
Heartbeat CPU 0 instructions: 31000003 cycles: 15306477 heartbeat IPC: 2.14394 cumulative IPC: 2.02529 (Simulation time: 0 hr 19 min 28 sec) 
Heartbeat CPU 0 instructions: 32000000 cycles: 15813855 heartbeat IPC: 1.97091 cumulative IPC: 2.02354 (Simulation time: 0 hr 20 min 12 sec) 
Heartbeat CPU 0 instructions: 33000000 cycles: 16347166 heartbeat IPC: 1.87508 cumulative IPC: 2.0187 (Simulation time: 0 hr 20 min 54 sec) 
Heartbeat CPU 0 instructions: 34000003 cycles: 16846487 heartbeat IPC: 2.00273 cumulative IPC: 2.01823 (Simulation time: 0 hr 21 min 31 sec) 
Heartbeat CPU 0 instructions: 35000003 cycles: 17214411 heartbeat IPC: 2.71795 cumulative IPC: 2.03318 (Simulation time: 0 hr 22 min 2 sec) 
Heartbeat CPU 0 instructions: 36000000 cycles: 17655894 heartbeat IPC: 2.26509 cumulative IPC: 2.03898 (Simulation time: 0 hr 22 min 42 sec) 
Heartbeat CPU 0 instructions: 37000000 cycles: 18076992 heartbeat IPC: 2.37474 cumulative IPC: 2.0468 (Simulation time: 0 hr 23 min 19 sec) 
Heartbeat CPU 0 instructions: 38000003 cycles: 18461022 heartbeat IPC: 2.60397 cumulative IPC: 2.05839 (Simulation time: 0 hr 23 min 50 sec) 
Heartbeat CPU 0 instructions: 39000003 cycles: 18851592 heartbeat IPC: 2.56036 cumulative IPC: 2.06879 (Simulation time: 0 hr 24 min 20 sec) 
Heartbeat CPU 0 instructions: 40000000 cycles: 19375701 heartbeat IPC: 1.90799 cumulative IPC: 2.06444 (Simulation time: 0 hr 24 min 59 sec) 
Heartbeat CPU 0 instructions: 41000000 cycles: 19771299 heartbeat IPC: 2.52782 cumulative IPC: 2.07371 (Simulation time: 0 hr 25 min 38 sec) 
Heartbeat CPU 0 instructions: 42000001 cycles: 20189597 heartbeat IPC: 2.39064 cumulative IPC: 2.08028 (Simulation time: 0 hr 26 min 16 sec) 
Heartbeat CPU 0 instructions: 43000001 cycles: 20614249 heartbeat IPC: 2.35487 cumulative IPC: 2.08594 (Simulation time: 0 hr 26 min 52 sec) 
Heartbeat CPU 0 instructions: 44000000 cycles: 21013523 heartbeat IPC: 2.50454 cumulative IPC: 2.09389 (Simulation time: 0 hr 27 min 24 sec) 
Heartbeat CPU 0 instructions: 45000001 cycles: 21398224 heartbeat IPC: 2.59942 cumulative IPC: 2.10298 (Simulation time: 0 hr 27 min 56 sec) 
Heartbeat CPU 0 instructions: 46000000 cycles: 21883491 heartbeat IPC: 2.06072 cumulative IPC: 2.10204 (Simulation time: 0 hr 28 min 27 sec) 
Heartbeat CPU 0 instructions: 47000000 cycles: 22339316 heartbeat IPC: 2.19382 cumulative IPC: 2.10391 (Simulation time: 0 hr 29 min 10 sec) 
Heartbeat CPU 0 instructions: 48000000 cycles: 22781048 heartbeat IPC: 2.26382 cumulative IPC: 2.10701 (Simulation time: 0 hr 29 min 51 sec) 
Heartbeat CPU 0 instructions: 49000001 cycles: 23196637 heartbeat IPC: 2.40623 cumulative IPC: 2.11238 (Simulation time: 0 hr 30 min 28 sec) 
Heartbeat CPU 0 instructions: 50000003 cycles: 23617996 heartbeat IPC: 2.37328 cumulative IPC: 2.11703 (Simulation time: 0 hr 31 min 12 sec) 

Warmup complete CPU 0 instructions: 50000003 cycles: 23617996 (Simulation time: 0 hr 31 min 12 sec) 

Heartbeat CPU 0 instructions: 51000003 cycles: 25883861 heartbeat IPC: 0.441333 cumulative IPC: 0.441333 (Simulation time: 0 hr 31 min 52 sec) 
Heartbeat CPU 0 instructions: 52000000 cycles: 26997837 heartbeat IPC: 0.897683 cumulative IPC: 0.591743 (Simulation time: 0 hr 32 min 25 sec) 
Heartbeat CPU 0 instructions: 53000003 cycles: 30193092 heartbeat IPC: 0.312965 cumulative IPC: 0.456267 (Simulation time: 0 hr 33 min 9 sec) 
Heartbeat CPU 0 instructions: 54000001 cycles: 33484598 heartbeat IPC: 0.303812 cumulative IPC: 0.405408 (Simulation time: 0 hr 34 min 7 sec) 
Heartbeat CPU 0 instructions: 55000001 cycles: 36533854 heartbeat IPC: 0.327949 cumulative IPC: 0.387121 (Simulation time: 0 hr 34 min 57 sec) 
Heartbeat CPU 0 instructions: 56000000 cycles: 38332705 heartbeat IPC: 0.55591 cumulative IPC: 0.407755 (Simulation time: 0 hr 35 min 37 sec) 
Heartbeat CPU 0 instructions: 57000000 cycles: 41619925 heartbeat IPC: 0.304208 cumulative IPC: 0.388847 (Simulation time: 0 hr 36 min 27 sec) 
Heartbeat CPU 0 instructions: 58000000 cycles: 43749460 heartbeat IPC: 0.469586 cumulative IPC: 0.397388 (Simulation time: 0 hr 37 min 2 sec) 
Heartbeat CPU 0 instructions: 59000001 cycles: 44852425 heartbeat IPC: 0.906648 cumulative IPC: 0.42384 (Simulation time: 0 hr 37 min 32 sec) 
Heartbeat CPU 0 instructions: 60000000 cycles: 48117923 heartbeat IPC: 0.306232 cumulative IPC: 0.408164 (Simulation time: 0 hr 38 min 18 sec) 
Heartbeat CPU 0 instructions: 61000003 cycles: 51377596 heartbeat IPC: 0.30678 cumulative IPC: 0.396259 (Simulation time: 0 hr 39 min 8 sec) 
Heartbeat CPU 0 instructions: 62000002 cycles: 54583749 heartbeat IPC: 0.3119 cumulative IPC: 0.387525 (Simulation time: 0 hr 40 min 0 sec) 
Heartbeat CPU 0 instructions: 63000001 cycles: 56160198 heartbeat IPC: 0.634336 cumulative IPC: 0.399481 (Simulation time: 0 hr 40 min 42 sec) 
Heartbeat CPU 0 instructions: 64000000 cycles: 59842321 heartbeat IPC: 0.271582 cumulative IPC: 0.386481 (Simulation time: 0 hr 41 min 38 sec) 
Heartbeat CPU 0 instructions: 65000001 cycles: 61613964 heartbeat IPC: 0.564448 cumulative IPC: 0.394779 (Simulation time: 0 hr 42 min 8 sec) 
Heartbeat CPU 0 instructions: 66000000 cycles: 62707263 heartbeat IPC: 0.914662 cumulative IPC: 0.409319 (Simulation time: 0 hr 42 min 39 sec) 
Heartbeat CPU 0 instructions: 67000003 cycles: 65719607 heartbeat IPC: 0.331968 cumulative IPC: 0.403785 (Simulation time: 0 hr 43 min 22 sec) 
Heartbeat CPU 0 instructions: 68000000 cycles: 68992148 heartbeat IPC: 0.305572 cumulative IPC: 0.396702 (Simulation time: 0 hr 44 min 9 sec) 
Heartbeat CPU 0 instructions: 69000001 cycles: 71858958 heartbeat IPC: 0.34882 cumulative IPC: 0.393856 (Simulation time: 0 hr 44 min 53 sec) 
Heartbeat CPU 0 instructions: 70000000 cycles: 73667746 heartbeat IPC: 0.552856 cumulative IPC: 0.399602 (Simulation time: 0 hr 45 min 34 sec) 
Heartbeat CPU 0 instructions: 71000001 cycles: 77010492 heartbeat IPC: 0.299156 cumulative IPC: 0.393314 (Simulation time: 0 hr 46 min 22 sec) 
Heartbeat CPU 0 instructions: 72000000 cycles: 79136680 heartbeat IPC: 0.470325 cumulative IPC: 0.396263 (Simulation time: 0 hr 46 min 58 sec) 
Heartbeat CPU 0 instructions: 73000000 cycles: 80248931 heartbeat IPC: 0.899078 cumulative IPC: 0.406138 (Simulation time: 0 hr 47 min 27 sec) 
Heartbeat CPU 0 instructions: 74000001 cycles: 83267396 heartbeat IPC: 0.331295 cumulative IPC: 0.402351 (Simulation time: 0 hr 48 min 6 sec) 
Heartbeat CPU 0 instructions: 75000003 cycles: 86540439 heartbeat IPC: 0.305527 cumulative IPC: 0.397315 (Simulation time: 0 hr 48 min 54 sec) 
Heartbeat CPU 0 instructions: 76000000 cycles: 89877780 heartbeat IPC: 0.299639 cumulative IPC: 0.392395 (Simulation time: 0 hr 49 min 42 sec) 
Heartbeat CPU 0 instructions: 77000000 cycles: 91407245 heartbeat IPC: 0.653823 cumulative IPC: 0.398293 (Simulation time: 0 hr 50 min 26 sec) 
Heartbeat CPU 0 instructions: 78000000 cycles: 95181867 heartbeat IPC: 0.264927 cumulative IPC: 0.391259 (Simulation time: 0 hr 51 min 21 sec) 
Heartbeat CPU 0 instructions: 79000002 cycles: 96868459 heartbeat IPC: 0.592913 cumulative IPC: 0.395902 (Simulation time: 0 hr 51 min 48 sec) 
Heartbeat CPU 0 instructions: 80000000 cycles: 97957768 heartbeat IPC: 0.918011 cumulative IPC: 0.403552 (Simulation time: 0 hr 52 min 15 sec) 
Heartbeat CPU 0 instructions: 81000000 cycles: 101041252 heartbeat IPC: 0.324308 cumulative IPC: 0.400396 (Simulation time: 0 hr 52 min 55 sec) 
Heartbeat CPU 0 instructions: 82000000 cycles: 104370949 heartbeat IPC: 0.300328 cumulative IPC: 0.39627 (Simulation time: 0 hr 53 min 48 sec) 
Heartbeat CPU 0 instructions: 83000000 cycles: 107638511 heartbeat IPC: 0.306039 cumulative IPC: 0.392761 (Simulation time: 0 hr 54 min 37 sec) 
Heartbeat CPU 0 instructions: 84000000 cycles: 109282809 heartbeat IPC: 0.608162 cumulative IPC: 0.396896 (Simulation time: 0 hr 55 min 21 sec) 
Heartbeat CPU 0 instructions: 85000000 cycles: 113091417 heartbeat IPC: 0.262563 cumulative IPC: 0.391178 (Simulation time: 0 hr 56 min 15 sec) 
Heartbeat CPU 0 instructions: 86000002 cycles: 114429052 heartbeat IPC: 0.74759 cumulative IPC: 0.396427 (Simulation time: 0 hr 56 min 42 sec) 
Heartbeat CPU 0 instructions: 87000002 cycles: 115513943 heartbeat IPC: 0.921752 cumulative IPC: 0.402629 (Simulation time: 0 hr 57 min 8 sec) 
Heartbeat CPU 0 instructions: 88000000 cycles: 118900258 heartbeat IPC: 0.295306 cumulative IPC: 0.398815 (Simulation time: 0 hr 57 min 53 sec) 
Heartbeat CPU 0 instructions: 89000001 cycles: 122489314 heartbeat IPC: 0.278625 cumulative IPC: 0.394452 (Simulation time: 0 hr 58 min 45 sec) 
Heartbeat CPU 0 instructions: 90000001 cycles: 125542624 heartbeat IPC: 0.327513 cumulative IPC: 0.392447 (Simulation time: 0 hr 59 min 32 sec) 
Heartbeat CPU 0 instructions: 91000003 cycles: 127354225 heartbeat IPC: 0.551999 cumulative IPC: 0.395233 (Simulation time: 1 hr 0 min 16 sec) 
Heartbeat CPU 0 instructions: 92000000 cycles: 130980676 heartbeat IPC: 0.275751 cumulative IPC: 0.391197 (Simulation time: 1 hr 1 min 4 sec) 
Heartbeat CPU 0 instructions: 93000000 cycles: 132167588 heartbeat IPC: 0.842522 cumulative IPC: 0.396132 (Simulation time: 1 hr 1 min 38 sec) 
Heartbeat CPU 0 instructions: 94000000 cycles: 133441662 heartbeat IPC: 0.784884 cumulative IPC: 0.400642 (Simulation time: 1 hr 2 min 10 sec) 
Heartbeat CPU 0 instructions: 95000002 cycles: 136940320 heartbeat IPC: 0.285824 cumulative IPC: 0.397097 (Simulation time: 1 hr 3 min 2 sec) 
Heartbeat CPU 0 instructions: 96000000 cycles: 139872783 heartbeat IPC: 0.34101 cumulative IPC: 0.395683 (Simulation time: 1 hr 3 min 51 sec) 
Heartbeat CPU 0 instructions: 97000003 cycles: 142563223 heartbeat IPC: 0.371688 cumulative IPC: 0.39514 (Simulation time: 1 hr 4 min 32 sec) 
Heartbeat CPU 0 instructions: 98000003 cycles: 144813998 heartbeat IPC: 0.444291 cumulative IPC: 0.396053 (Simulation time: 1 hr 5 min 15 sec) 
Heartbeat CPU 0 instructions: 99000000 cycles: 148020483 heartbeat IPC: 0.311867 cumulative IPC: 0.393883 (Simulation time: 1 hr 5 min 57 sec) 
Heartbeat CPU 0 instructions: 100000000 cycles: 149187778 heartbeat IPC: 0.856681 cumulative IPC: 0.398185 (Simulation time: 1 hr 6 min 26 sec) 
Heartbeat CPU 0 instructions: 101000003 cycles: 151057213 heartbeat IPC: 0.534923 cumulative IPC: 0.400191 (Simulation time: 1 hr 7 min 6 sec) 
Heartbeat CPU 0 instructions: 102000002 cycles: 154377505 heartbeat IPC: 0.301178 cumulative IPC: 0.397677 (Simulation time: 1 hr 7 min 54 sec) 
Heartbeat CPU 0 instructions: 103000000 cycles: 156471604 heartbeat IPC: 0.477531 cumulative IPC: 0.398935 (Simulation time: 1 hr 8 min 41 sec) 
Heartbeat CPU 0 instructions: 104000000 cycles: 165126250 heartbeat IPC: 0.115545 cumulative IPC: 0.381603 (Simulation time: 1 hr 9 min 44 sec) 
Heartbeat CPU 0 instructions: 105000000 cycles: 167176938 heartbeat IPC: 0.487641 cumulative IPC: 0.383118 (Simulation time: 1 hr 10 min 39 sec) 
Heartbeat CPU 0 instructions: 106000002 cycles: 171328766 heartbeat IPC: 0.240858 cumulative IPC: 0.379119 (Simulation time: 1 hr 11 min 36 sec) 
Heartbeat CPU 0 instructions: 107000003 cycles: 175604530 heartbeat IPC: 0.233877 cumulative IPC: 0.375033 (Simulation time: 1 hr 12 min 32 sec) 
Heartbeat CPU 0 instructions: 108000000 cycles: 178923318 heartbeat IPC: 0.301314 cumulative IPC: 0.373458 (Simulation time: 1 hr 13 min 9 sec) 
Heartbeat CPU 0 instructions: 109000000 cycles: 182279058 heartbeat IPC: 0.297997 cumulative IPC: 0.371862 (Simulation time: 1 hr 13 min 45 sec) 
Heartbeat CPU 0 instructions: 110000003 cycles: 185703234 heartbeat IPC: 0.292042 cumulative IPC: 0.370176 (Simulation time: 1 hr 14 min 23 sec) 
Heartbeat CPU 0 instructions: 111000002 cycles: 189242234 heartbeat IPC: 0.282565 cumulative IPC: 0.368304 (Simulation time: 1 hr 15 min 5 sec) 
Heartbeat CPU 0 instructions: 112000000 cycles: 191871866 heartbeat IPC: 0.380281 cumulative IPC: 0.368491 (Simulation time: 1 hr 15 min 37 sec) 
Heartbeat CPU 0 instructions: 113000001 cycles: 195221274 heartbeat IPC: 0.298561 cumulative IPC: 0.367126 (Simulation time: 1 hr 16 min 18 sec) 
Heartbeat CPU 0 instructions: 114000000 cycles: 197177432 heartbeat IPC: 0.511206 cumulative IPC: 0.36875 (Simulation time: 1 hr 16 min 54 sec) 
Heartbeat CPU 0 instructions: 115000002 cycles: 198498445 heartbeat IPC: 0.756996 cumulative IPC: 0.371682 (Simulation time: 1 hr 17 min 23 sec) 
Heartbeat CPU 0 instructions: 116000000 cycles: 199825570 heartbeat IPC: 0.753507 cumulative IPC: 0.374558 (Simulation time: 1 hr 17 min 54 sec) 
Heartbeat CPU 0 instructions: 117000001 cycles: 202391952 heartbeat IPC: 0.389654 cumulative IPC: 0.374775 (Simulation time: 1 hr 18 min 29 sec) 
Heartbeat CPU 0 instructions: 118000002 cycles: 205228552 heartbeat IPC: 0.352535 cumulative IPC: 0.374428 (Simulation time: 1 hr 19 min 14 sec) 
Heartbeat CPU 0 instructions: 119000001 cycles: 207186081 heartbeat IPC: 0.510848 cumulative IPC: 0.375882 (Simulation time: 1 hr 19 min 43 sec) 
Heartbeat CPU 0 instructions: 120000000 cycles: 209868511 heartbeat IPC: 0.372796 cumulative IPC: 0.375838 (Simulation time: 1 hr 20 min 11 sec) 
Heartbeat CPU 0 instructions: 121000000 cycles: 211598790 heartbeat IPC: 0.577941 cumulative IPC: 0.377698 (Simulation time: 1 hr 20 min 42 sec) 
Heartbeat CPU 0 instructions: 122000000 cycles: 215446683 heartbeat IPC: 0.259882 cumulative IPC: 0.375335 (Simulation time: 1 hr 21 min 22 sec) 
Heartbeat CPU 0 instructions: 123000001 cycles: 216663525 heartbeat IPC: 0.8218 cumulative IPC: 0.378149 (Simulation time: 1 hr 21 min 40 sec) 
Heartbeat CPU 0 instructions: 124000000 cycles: 217898258 heartbeat IPC: 0.809891 cumulative IPC: 0.380893 (Simulation time: 1 hr 21 min 58 sec) 
Heartbeat CPU 0 instructions: 125000000 cycles: 220872592 heartbeat IPC: 0.33621 cumulative IPC: 0.380219 (Simulation time: 1 hr 22 min 30 sec) 
Heartbeat CPU 0 instructions: 126000000 cycles: 224868789 heartbeat IPC: 0.250238 cumulative IPC: 0.377638 (Simulation time: 1 hr 23 min 4 sec) 
Heartbeat CPU 0 instructions: 127000003 cycles: 227241986 heartbeat IPC: 0.421374 cumulative IPC: 0.378148 (Simulation time: 1 hr 23 min 32 sec) 
Heartbeat CPU 0 instructions: 128000000 cycles: 230070403 heartbeat IPC: 0.353554 cumulative IPC: 0.377811 (Simulation time: 1 hr 24 min 0 sec) 
Heartbeat CPU 0 instructions: 129000000 cycles: 232745318 heartbeat IPC: 0.373844 cumulative IPC: 0.37776 (Simulation time: 1 hr 24 min 24 sec) 
Heartbeat CPU 0 instructions: 130000003 cycles: 233883545 heartbeat IPC: 0.878562 cumulative IPC: 0.380471 (Simulation time: 1 hr 24 min 40 sec) 
Heartbeat CPU 0 instructions: 131000001 cycles: 236425114 heartbeat IPC: 0.393457 cumulative IPC: 0.380626 (Simulation time: 1 hr 25 min 2 sec) 
Heartbeat CPU 0 instructions: 132000000 cycles: 239697151 heartbeat IPC: 0.30562 cumulative IPC: 0.379491 (Simulation time: 1 hr 25 min 34 sec) 
Heartbeat CPU 0 instructions: 133000000 cycles: 242523548 heartbeat IPC: 0.353807 cumulative IPC: 0.379159 (Simulation time: 1 hr 25 min 59 sec) 
Heartbeat CPU 0 instructions: 134000002 cycles: 244079162 heartbeat IPC: 0.642834 cumulative IPC: 0.381019 (Simulation time: 1 hr 26 min 21 sec) 
Heartbeat CPU 0 instructions: 135000002 cycles: 247826614 heartbeat IPC: 0.266848 cumulative IPC: 0.379111 (Simulation time: 1 hr 26 min 52 sec) 
Heartbeat CPU 0 instructions: 136000000 cycles: 249577064 heartbeat IPC: 0.571281 cumulative IPC: 0.3806 (Simulation time: 1 hr 27 min 10 sec) 
Heartbeat CPU 0 instructions: 137000000 cycles: 250672681 heartbeat IPC: 0.912728 cumulative IPC: 0.383168 (Simulation time: 1 hr 27 min 25 sec) 
Heartbeat CPU 0 instructions: 138000003 cycles: 253771781 heartbeat IPC: 0.322675 cumulative IPC: 0.382353 (Simulation time: 1 hr 27 min 49 sec) 
Heartbeat CPU 0 instructions: 139000000 cycles: 256945281 heartbeat IPC: 0.315109 cumulative IPC: 0.381438 (Simulation time: 1 hr 28 min 16 sec) 
Heartbeat CPU 0 instructions: 140000000 cycles: 259050776 heartbeat IPC: 0.474948 cumulative IPC: 0.382275 (Simulation time: 1 hr 28 min 35 sec) 
Heartbeat CPU 0 instructions: 141000002 cycles: 260766767 heartbeat IPC: 0.582755 cumulative IPC: 0.383725 (Simulation time: 1 hr 28 min 56 sec) 
Heartbeat CPU 0 instructions: 142000002 cycles: 264302471 heartbeat IPC: 0.282829 cumulative IPC: 0.382243 (Simulation time: 1 hr 29 min 22 sec) 
Heartbeat CPU 0 instructions: 143000003 cycles: 266284456 heartbeat IPC: 0.504545 cumulative IPC: 0.383242 (Simulation time: 1 hr 29 min 38 sec) 
Heartbeat CPU 0 instructions: 144000000 cycles: 267391597 heartbeat IPC: 0.903225 cumulative IPC: 0.385604 (Simulation time: 1 hr 29 min 52 sec) 
Heartbeat CPU 0 instructions: 145000000 cycles: 270393933 heartbeat IPC: 0.333074 cumulative IPC: 0.384965 (Simulation time: 1 hr 30 min 15 sec) 
Heartbeat CPU 0 instructions: 146000003 cycles: 273689745 heartbeat IPC: 0.303416 cumulative IPC: 0.38389 (Simulation time: 1 hr 30 min 40 sec) 
Heartbeat CPU 0 instructions: 147000000 cycles: 275698683 heartbeat IPC: 0.497774 cumulative IPC: 0.384797 (Simulation time: 1 hr 30 min 59 sec) 
Heartbeat CPU 0 instructions: 148000000 cycles: 277199164 heartbeat IPC: 0.666453 cumulative IPC: 0.386464 (Simulation time: 1 hr 31 min 18 sec) 
Heartbeat CPU 0 instructions: 149000001 cycles: 281045495 heartbeat IPC: 0.259988 cumulative IPC: 0.384574 (Simulation time: 1 hr 31 min 42 sec) 
Heartbeat CPU 0 instructions: 150000002 cycles: 282738915 heartbeat IPC: 0.590522 cumulative IPC: 0.38592 (Simulation time: 1 hr 31 min 56 sec) 
Finished CPU 0 instructions: 100000002 cycles: 259120921 cummulative IPC: 0.38592 (Simulation time: 1 hr 31 min 56 sec) 

ChampSim completed all CPUs

Region of Interest Statistics

CPU 0 cummulative IPC: 0.38592 instructions: 100000002 cycles: 259120921
LLC TOTAL     ACCESS:    8439669  HIT:    4599149  MISS:    3840520
LLC LOAD      ACCESS:    2160971  HIT:    1008678  MISS:    1152293
LLC RFO       ACCESS:     775965  HIT:     268459  MISS:     507506
LLC PREFETCH  ACCESS:    3416819  HIT:    1597638  MISS:    1819181
LLC WRITEBACK ACCESS:    2085914  HIT:    1724374  MISS:     361540
OPTgen accesses: 69986
OPTgen hits: 51366
OPTgen hit rate: 73.3947


