
*** ChampSim Multicore Out-of-Order Simulator ***

Warmup Instructions: 50000000
Simulation Instructions: 100000000
Configuration: 2
Number of CPUs: 1
LLC sets: 2048
LLC ways: 16
Off-chip DRAM Channels: 1 Width: 64-bit Data Rate: 1600 MT/s

CPU 0 runs /datasets/cs240c-wi22-a00-public/data/Assignment2-gz/GemsFDTD_109B.trace.gz
CPU 0 L1D next line prefetcher
CPU 0 L2C IP-based stride prefetcher
Initialize Hawkeye state
Heartbeat CPU 0 instructions: 1000002 cycles: 579772 heartbeat IPC: 1.72482 cumulative IPC: 1.72482 (Simulation time: 0 hr 0 min 47 sec) 
Heartbeat CPU 0 instructions: 2000001 cycles: 1159543 heartbeat IPC: 1.72482 cumulative IPC: 1.72482 (Simulation time: 0 hr 1 min 32 sec) 
Heartbeat CPU 0 instructions: 3000000 cycles: 1738735 heartbeat IPC: 1.72654 cumulative IPC: 1.72539 (Simulation time: 0 hr 2 min 15 sec) 
Heartbeat CPU 0 instructions: 4000000 cycles: 2317737 heartbeat IPC: 1.72711 cumulative IPC: 1.72582 (Simulation time: 0 hr 2 min 55 sec) 
Heartbeat CPU 0 instructions: 5000000 cycles: 2897551 heartbeat IPC: 1.72469 cumulative IPC: 1.7256 (Simulation time: 0 hr 3 min 45 sec) 
Heartbeat CPU 0 instructions: 6000002 cycles: 3478271 heartbeat IPC: 1.722 cumulative IPC: 1.725 (Simulation time: 0 hr 4 min 29 sec) 
Heartbeat CPU 0 instructions: 7000001 cycles: 4058933 heartbeat IPC: 1.72217 cumulative IPC: 1.72459 (Simulation time: 0 hr 5 min 13 sec) 
Heartbeat CPU 0 instructions: 8000000 cycles: 4639129 heartbeat IPC: 1.72355 cumulative IPC: 1.72446 (Simulation time: 0 hr 5 min 55 sec) 
Heartbeat CPU 0 instructions: 9000002 cycles: 5219299 heartbeat IPC: 1.72364 cumulative IPC: 1.72437 (Simulation time: 0 hr 6 min 42 sec) 
Heartbeat CPU 0 instructions: 10000001 cycles: 5799482 heartbeat IPC: 1.72359 cumulative IPC: 1.72429 (Simulation time: 0 hr 7 min 21 sec) 
Heartbeat CPU 0 instructions: 11000000 cycles: 6379303 heartbeat IPC: 1.72467 cumulative IPC: 1.72433 (Simulation time: 0 hr 8 min 4 sec) 
Heartbeat CPU 0 instructions: 12000000 cycles: 6959186 heartbeat IPC: 1.72449 cumulative IPC: 1.72434 (Simulation time: 0 hr 8 min 46 sec) 
Heartbeat CPU 0 instructions: 13000001 cycles: 7539244 heartbeat IPC: 1.72397 cumulative IPC: 1.72431 (Simulation time: 0 hr 9 min 27 sec) 
Heartbeat CPU 0 instructions: 14000003 cycles: 8119139 heartbeat IPC: 1.72445 cumulative IPC: 1.72432 (Simulation time: 0 hr 10 min 13 sec) 
Heartbeat CPU 0 instructions: 15000000 cycles: 8699238 heartbeat IPC: 1.72384 cumulative IPC: 1.72429 (Simulation time: 0 hr 10 min 56 sec) 
Heartbeat CPU 0 instructions: 16000000 cycles: 9279411 heartbeat IPC: 1.72362 cumulative IPC: 1.72425 (Simulation time: 0 hr 11 min 37 sec) 
Heartbeat CPU 0 instructions: 17000002 cycles: 9859633 heartbeat IPC: 1.72348 cumulative IPC: 1.7242 (Simulation time: 0 hr 12 min 23 sec) 
Heartbeat CPU 0 instructions: 18000003 cycles: 10439479 heartbeat IPC: 1.7246 cumulative IPC: 1.72422 (Simulation time: 0 hr 13 min 5 sec) 
Heartbeat CPU 0 instructions: 19000000 cycles: 11019321 heartbeat IPC: 1.7246 cumulative IPC: 1.72424 (Simulation time: 0 hr 13 min 49 sec) 
Heartbeat CPU 0 instructions: 20000000 cycles: 11596236 heartbeat IPC: 1.73336 cumulative IPC: 1.7247 (Simulation time: 0 hr 14 min 23 sec) 
Heartbeat CPU 0 instructions: 21000000 cycles: 12041369 heartbeat IPC: 2.24652 cumulative IPC: 1.74399 (Simulation time: 0 hr 14 min 55 sec) 
Heartbeat CPU 0 instructions: 22000000 cycles: 12573582 heartbeat IPC: 1.87895 cumulative IPC: 1.7497 (Simulation time: 0 hr 15 min 32 sec) 
Heartbeat CPU 0 instructions: 23000000 cycles: 13023020 heartbeat IPC: 2.225 cumulative IPC: 1.7661 (Simulation time: 0 hr 16 min 7 sec) 
Heartbeat CPU 0 instructions: 24000000 cycles: 13564895 heartbeat IPC: 1.84544 cumulative IPC: 1.76927 (Simulation time: 0 hr 16 min 43 sec) 
Heartbeat CPU 0 instructions: 25000001 cycles: 14023980 heartbeat IPC: 2.17825 cumulative IPC: 1.78266 (Simulation time: 0 hr 17 min 15 sec) 
Heartbeat CPU 0 instructions: 26000000 cycles: 14554217 heartbeat IPC: 1.88595 cumulative IPC: 1.78642 (Simulation time: 0 hr 17 min 51 sec) 
Heartbeat CPU 0 instructions: 27000000 cycles: 15030188 heartbeat IPC: 2.10097 cumulative IPC: 1.79638 (Simulation time: 0 hr 18 min 25 sec) 
Heartbeat CPU 0 instructions: 28000000 cycles: 15533184 heartbeat IPC: 1.98809 cumulative IPC: 1.80259 (Simulation time: 0 hr 19 min 2 sec) 
Heartbeat CPU 0 instructions: 29000000 cycles: 16006154 heartbeat IPC: 2.1143 cumulative IPC: 1.8118 (Simulation time: 0 hr 19 min 32 sec) 
Heartbeat CPU 0 instructions: 30000001 cycles: 16526092 heartbeat IPC: 1.92331 cumulative IPC: 1.81531 (Simulation time: 0 hr 20 min 3 sec) 
Heartbeat CPU 0 instructions: 31000001 cycles: 17026821 heartbeat IPC: 1.99709 cumulative IPC: 1.82066 (Simulation time: 0 hr 20 min 37 sec) 
Heartbeat CPU 0 instructions: 32000000 cycles: 17509027 heartbeat IPC: 2.0738 cumulative IPC: 1.82763 (Simulation time: 0 hr 21 min 11 sec) 
Heartbeat CPU 0 instructions: 33000003 cycles: 18012030 heartbeat IPC: 1.98807 cumulative IPC: 1.83211 (Simulation time: 0 hr 21 min 45 sec) 
Heartbeat CPU 0 instructions: 34000002 cycles: 18491916 heartbeat IPC: 2.08383 cumulative IPC: 1.83864 (Simulation time: 0 hr 22 min 17 sec) 
Heartbeat CPU 0 instructions: 35000002 cycles: 18994629 heartbeat IPC: 1.98921 cumulative IPC: 1.84263 (Simulation time: 0 hr 22 min 50 sec) 
Heartbeat CPU 0 instructions: 36000000 cycles: 19486780 heartbeat IPC: 2.03189 cumulative IPC: 1.84741 (Simulation time: 0 hr 23 min 21 sec) 
Heartbeat CPU 0 instructions: 37000000 cycles: 19901827 heartbeat IPC: 2.40937 cumulative IPC: 1.85913 (Simulation time: 0 hr 23 min 55 sec) 
Heartbeat CPU 0 instructions: 38000001 cycles: 20316872 heartbeat IPC: 2.40938 cumulative IPC: 1.87037 (Simulation time: 0 hr 24 min 30 sec) 
Heartbeat CPU 0 instructions: 39000000 cycles: 20731858 heartbeat IPC: 2.40972 cumulative IPC: 1.88116 (Simulation time: 0 hr 25 min 3 sec) 
Heartbeat CPU 0 instructions: 40000000 cycles: 21146867 heartbeat IPC: 2.40959 cumulative IPC: 1.89153 (Simulation time: 0 hr 25 min 38 sec) 
Heartbeat CPU 0 instructions: 41000000 cycles: 21657599 heartbeat IPC: 1.95797 cumulative IPC: 1.8931 (Simulation time: 0 hr 26 min 10 sec) 
Heartbeat CPU 0 instructions: 42000000 cycles: 22072616 heartbeat IPC: 2.40954 cumulative IPC: 1.90281 (Simulation time: 0 hr 26 min 42 sec) 
Heartbeat CPU 0 instructions: 43000000 cycles: 22487669 heartbeat IPC: 2.40933 cumulative IPC: 1.91216 (Simulation time: 0 hr 27 min 18 sec) 
Heartbeat CPU 0 instructions: 44000000 cycles: 22902621 heartbeat IPC: 2.40992 cumulative IPC: 1.92118 (Simulation time: 0 hr 27 min 54 sec) 
Heartbeat CPU 0 instructions: 45000000 cycles: 23317630 heartbeat IPC: 2.40959 cumulative IPC: 1.92987 (Simulation time: 0 hr 28 min 30 sec) 
Heartbeat CPU 0 instructions: 46000003 cycles: 23728093 heartbeat IPC: 2.43628 cumulative IPC: 1.93863 (Simulation time: 0 hr 29 min 9 sec) 
Heartbeat CPU 0 instructions: 47000001 cycles: 24361973 heartbeat IPC: 1.57758 cumulative IPC: 1.92924 (Simulation time: 0 hr 29 min 42 sec) 
Heartbeat CPU 0 instructions: 48000000 cycles: 24962819 heartbeat IPC: 1.66432 cumulative IPC: 1.92286 (Simulation time: 0 hr 30 min 16 sec) 
Heartbeat CPU 0 instructions: 49000003 cycles: 25556691 heartbeat IPC: 1.68387 cumulative IPC: 1.91731 (Simulation time: 0 hr 31 min 12 sec) 
Heartbeat CPU 0 instructions: 50000001 cycles: 26222918 heartbeat IPC: 1.50099 cumulative IPC: 1.90673 (Simulation time: 0 hr 32 min 1 sec) 

Warmup complete CPU 0 instructions: 50000001 cycles: 26222918 (Simulation time: 0 hr 32 min 1 sec) 

Heartbeat CPU 0 instructions: 51000001 cycles: 27731316 heartbeat IPC: 0.662955 cumulative IPC: 0.662955 (Simulation time: 0 hr 32 min 48 sec) 
Heartbeat CPU 0 instructions: 52000000 cycles: 29285257 heartbeat IPC: 0.643524 cumulative IPC: 0.653095 (Simulation time: 0 hr 33 min 44 sec) 
Heartbeat CPU 0 instructions: 53000000 cycles: 30890694 heartbeat IPC: 0.622883 cumulative IPC: 0.642704 (Simulation time: 0 hr 34 min 35 sec) 
Heartbeat CPU 0 instructions: 54000000 cycles: 32499658 heartbeat IPC: 0.621518 cumulative IPC: 0.637273 (Simulation time: 0 hr 35 min 25 sec) 
Heartbeat CPU 0 instructions: 55000003 cycles: 34101922 heartbeat IPC: 0.624119 cumulative IPC: 0.634598 (Simulation time: 0 hr 36 min 13 sec) 
Heartbeat CPU 0 instructions: 56000000 cycles: 35709261 heartbeat IPC: 0.622144 cumulative IPC: 0.632488 (Simulation time: 0 hr 37 min 6 sec) 
Heartbeat CPU 0 instructions: 57000002 cycles: 37351153 heartbeat IPC: 0.609055 cumulative IPC: 0.629031 (Simulation time: 0 hr 37 min 55 sec) 
Heartbeat CPU 0 instructions: 58000002 cycles: 38963077 heartbeat IPC: 0.620377 cumulative IPC: 0.627936 (Simulation time: 0 hr 38 min 47 sec) 
Heartbeat CPU 0 instructions: 59000001 cycles: 40585120 heartbeat IPC: 0.616506 cumulative IPC: 0.626645 (Simulation time: 0 hr 39 min 36 sec) 
Heartbeat CPU 0 instructions: 60000000 cycles: 42205515 heartbeat IPC: 0.617133 cumulative IPC: 0.625681 (Simulation time: 0 hr 40 min 23 sec) 
Heartbeat CPU 0 instructions: 61000000 cycles: 43796289 heartbeat IPC: 0.628625 cumulative IPC: 0.625947 (Simulation time: 0 hr 41 min 8 sec) 
Heartbeat CPU 0 instructions: 62000003 cycles: 45381990 heartbeat IPC: 0.630638 cumulative IPC: 0.626335 (Simulation time: 0 hr 41 min 57 sec) 
Heartbeat CPU 0 instructions: 63000002 cycles: 46982191 heartbeat IPC: 0.624921 cumulative IPC: 0.626226 (Simulation time: 0 hr 42 min 47 sec) 
Heartbeat CPU 0 instructions: 64000000 cycles: 48609333 heartbeat IPC: 0.614573 cumulative IPC: 0.625379 (Simulation time: 0 hr 43 min 39 sec) 
Heartbeat CPU 0 instructions: 65000003 cycles: 50238590 heartbeat IPC: 0.613779 cumulative IPC: 0.624592 (Simulation time: 0 hr 44 min 27 sec) 
Heartbeat CPU 0 instructions: 66000001 cycles: 51875017 heartbeat IPC: 0.611086 cumulative IPC: 0.623731 (Simulation time: 0 hr 45 min 17 sec) 
Heartbeat CPU 0 instructions: 67000000 cycles: 53483670 heartbeat IPC: 0.621637 cumulative IPC: 0.623607 (Simulation time: 0 hr 46 min 11 sec) 
Heartbeat CPU 0 instructions: 68000000 cycles: 55109828 heartbeat IPC: 0.614946 cumulative IPC: 0.62312 (Simulation time: 0 hr 47 min 1 sec) 
Heartbeat CPU 0 instructions: 69000000 cycles: 56727884 heartbeat IPC: 0.618026 cumulative IPC: 0.622849 (Simulation time: 0 hr 47 min 44 sec) 
Heartbeat CPU 0 instructions: 70000003 cycles: 58309100 heartbeat IPC: 0.632427 cumulative IPC: 0.623321 (Simulation time: 0 hr 48 min 28 sec) 
Heartbeat CPU 0 instructions: 71000003 cycles: 59922944 heartbeat IPC: 0.619639 cumulative IPC: 0.623145 (Simulation time: 0 hr 49 min 16 sec) 
Heartbeat CPU 0 instructions: 72000000 cycles: 61512583 heartbeat IPC: 0.629072 cumulative IPC: 0.623412 (Simulation time: 0 hr 50 min 3 sec) 
Heartbeat CPU 0 instructions: 73000002 cycles: 63132844 heartbeat IPC: 0.617186 cumulative IPC: 0.623139 (Simulation time: 0 hr 50 min 50 sec) 
Heartbeat CPU 0 instructions: 74000001 cycles: 64765143 heartbeat IPC: 0.612632 cumulative IPC: 0.622694 (Simulation time: 0 hr 51 min 37 sec) 
Heartbeat CPU 0 instructions: 75000000 cycles: 66393357 heartbeat IPC: 0.614169 cumulative IPC: 0.622348 (Simulation time: 0 hr 52 min 27 sec) 
Heartbeat CPU 0 instructions: 76000000 cycles: 67975884 heartbeat IPC: 0.631901 cumulative IPC: 0.62271 (Simulation time: 0 hr 53 min 20 sec) 
Heartbeat CPU 0 instructions: 77000003 cycles: 69614587 heartbeat IPC: 0.610241 cumulative IPC: 0.622239 (Simulation time: 0 hr 54 min 5 sec) 
Heartbeat CPU 0 instructions: 78000001 cycles: 71220545 heartbeat IPC: 0.62268 cumulative IPC: 0.622255 (Simulation time: 0 hr 54 min 51 sec) 
Heartbeat CPU 0 instructions: 79000001 cycles: 72808875 heartbeat IPC: 0.629592 cumulative IPC: 0.622505 (Simulation time: 0 hr 55 min 37 sec) 
Heartbeat CPU 0 instructions: 80000000 cycles: 74408677 heartbeat IPC: 0.625077 cumulative IPC: 0.622591 (Simulation time: 0 hr 56 min 24 sec) 
Heartbeat CPU 0 instructions: 81000001 cycles: 76018620 heartbeat IPC: 0.621141 cumulative IPC: 0.622544 (Simulation time: 0 hr 57 min 12 sec) 
Heartbeat CPU 0 instructions: 82000000 cycles: 77616588 heartbeat IPC: 0.625794 cumulative IPC: 0.622645 (Simulation time: 0 hr 57 min 59 sec) 
Heartbeat CPU 0 instructions: 83000001 cycles: 79206637 heartbeat IPC: 0.628912 cumulative IPC: 0.622833 (Simulation time: 0 hr 58 min 51 sec) 
Heartbeat CPU 0 instructions: 84000000 cycles: 80798110 heartbeat IPC: 0.628348 cumulative IPC: 0.622994 (Simulation time: 0 hr 59 min 41 sec) 
Heartbeat CPU 0 instructions: 85000001 cycles: 82417574 heartbeat IPC: 0.617489 cumulative IPC: 0.622835 (Simulation time: 1 hr 0 min 28 sec) 
Heartbeat CPU 0 instructions: 86000000 cycles: 84031918 heartbeat IPC: 0.619446 cumulative IPC: 0.62274 (Simulation time: 1 hr 1 min 13 sec) 
Heartbeat CPU 0 instructions: 87000002 cycles: 85635480 heartbeat IPC: 0.623613 cumulative IPC: 0.622764 (Simulation time: 1 hr 2 min 4 sec) 
Heartbeat CPU 0 instructions: 88000000 cycles: 87262768 heartbeat IPC: 0.614518 cumulative IPC: 0.622544 (Simulation time: 1 hr 2 min 50 sec) 
Heartbeat CPU 0 instructions: 89000003 cycles: 88901013 heartbeat IPC: 0.610411 cumulative IPC: 0.622227 (Simulation time: 1 hr 3 min 32 sec) 
Heartbeat CPU 0 instructions: 90000000 cycles: 90548134 heartbeat IPC: 0.607118 cumulative IPC: 0.62184 (Simulation time: 1 hr 4 min 21 sec) 
Heartbeat CPU 0 instructions: 91000002 cycles: 92178044 heartbeat IPC: 0.613532 cumulative IPC: 0.621635 (Simulation time: 1 hr 5 min 11 sec) 
Heartbeat CPU 0 instructions: 92000000 cycles: 93791538 heartbeat IPC: 0.619772 cumulative IPC: 0.62159 (Simulation time: 1 hr 5 min 58 sec) 
Heartbeat CPU 0 instructions: 93000001 cycles: 95409935 heartbeat IPC: 0.617896 cumulative IPC: 0.621504 (Simulation time: 1 hr 6 min 48 sec) 
Heartbeat CPU 0 instructions: 94000003 cycles: 97015986 heartbeat IPC: 0.622646 cumulative IPC: 0.62153 (Simulation time: 1 hr 7 min 36 sec) 
Heartbeat CPU 0 instructions: 95000002 cycles: 98607775 heartbeat IPC: 0.628223 cumulative IPC: 0.621677 (Simulation time: 1 hr 8 min 29 sec) 
Heartbeat CPU 0 instructions: 96000000 cycles: 100215001 heartbeat IPC: 0.622189 cumulative IPC: 0.621688 (Simulation time: 1 hr 9 min 24 sec) 
Heartbeat CPU 0 instructions: 97000002 cycles: 101817639 heartbeat IPC: 0.623972 cumulative IPC: 0.621737 (Simulation time: 1 hr 10 min 11 sec) 
Heartbeat CPU 0 instructions: 98000000 cycles: 103439670 heartbeat IPC: 0.61651 cumulative IPC: 0.621627 (Simulation time: 1 hr 11 min 2 sec) 
Heartbeat CPU 0 instructions: 99000000 cycles: 105020379 heartbeat IPC: 0.632627 cumulative IPC: 0.621847 (Simulation time: 1 hr 11 min 44 sec) 
Heartbeat CPU 0 instructions: 100000000 cycles: 106649068 heartbeat IPC: 0.613991 cumulative IPC: 0.621688 (Simulation time: 1 hr 12 min 25 sec) 
Heartbeat CPU 0 instructions: 101000001 cycles: 108268847 heartbeat IPC: 0.617369 cumulative IPC: 0.621603 (Simulation time: 1 hr 13 min 8 sec) 
Heartbeat CPU 0 instructions: 102000000 cycles: 109891972 heartbeat IPC: 0.616095 cumulative IPC: 0.621496 (Simulation time: 1 hr 13 min 56 sec) 
Heartbeat CPU 0 instructions: 103000000 cycles: 111492380 heartbeat IPC: 0.624841 cumulative IPC: 0.621559 (Simulation time: 1 hr 14 min 35 sec) 
Heartbeat CPU 0 instructions: 104000000 cycles: 113112883 heartbeat IPC: 0.617092 cumulative IPC: 0.621476 (Simulation time: 1 hr 15 min 15 sec) 
Heartbeat CPU 0 instructions: 105000000 cycles: 114745470 heartbeat IPC: 0.612525 cumulative IPC: 0.621311 (Simulation time: 1 hr 15 min 55 sec) 
Heartbeat CPU 0 instructions: 106000001 cycles: 116361124 heartbeat IPC: 0.618945 cumulative IPC: 0.621268 (Simulation time: 1 hr 16 min 41 sec) 
Heartbeat CPU 0 instructions: 107000001 cycles: 117982640 heartbeat IPC: 0.616707 cumulative IPC: 0.621188 (Simulation time: 1 hr 17 min 20 sec) 
Heartbeat CPU 0 instructions: 108000000 cycles: 119605731 heartbeat IPC: 0.616108 cumulative IPC: 0.621099 (Simulation time: 1 hr 17 min 57 sec) 
Heartbeat CPU 0 instructions: 109000003 cycles: 121190316 heartbeat IPC: 0.631082 cumulative IPC: 0.621266 (Simulation time: 1 hr 18 min 31 sec) 
Heartbeat CPU 0 instructions: 110000002 cycles: 122801684 heartbeat IPC: 0.62059 cumulative IPC: 0.621255 (Simulation time: 1 hr 19 min 9 sec) 
Heartbeat CPU 0 instructions: 111000000 cycles: 124393919 heartbeat IPC: 0.628047 cumulative IPC: 0.621365 (Simulation time: 1 hr 19 min 43 sec) 
Heartbeat CPU 0 instructions: 112000000 cycles: 125993838 heartbeat IPC: 0.625032 cumulative IPC: 0.621424 (Simulation time: 1 hr 20 min 16 sec) 
Heartbeat CPU 0 instructions: 113000001 cycles: 127579297 heartbeat IPC: 0.630733 cumulative IPC: 0.621569 (Simulation time: 1 hr 20 min 47 sec) 
Heartbeat CPU 0 instructions: 114000000 cycles: 129171025 heartbeat IPC: 0.628247 cumulative IPC: 0.621672 (Simulation time: 1 hr 21 min 25 sec) 
Heartbeat CPU 0 instructions: 115000001 cycles: 130793164 heartbeat IPC: 0.616471 cumulative IPC: 0.621592 (Simulation time: 1 hr 22 min 1 sec) 
Heartbeat CPU 0 instructions: 116000000 cycles: 132380266 heartbeat IPC: 0.630079 cumulative IPC: 0.621719 (Simulation time: 1 hr 22 min 33 sec) 
Heartbeat CPU 0 instructions: 117000001 cycles: 133982720 heartbeat IPC: 0.624044 cumulative IPC: 0.621753 (Simulation time: 1 hr 23 min 3 sec) 
Heartbeat CPU 0 instructions: 118000003 cycles: 135591425 heartbeat IPC: 0.621619 cumulative IPC: 0.621751 (Simulation time: 1 hr 23 min 34 sec) 
Heartbeat CPU 0 instructions: 119000001 cycles: 137206195 heartbeat IPC: 0.619282 cumulative IPC: 0.621715 (Simulation time: 1 hr 24 min 2 sec) 
Heartbeat CPU 0 instructions: 120000000 cycles: 138852097 heartbeat IPC: 0.607569 cumulative IPC: 0.621509 (Simulation time: 1 hr 24 min 33 sec) 
Heartbeat CPU 0 instructions: 121000000 cycles: 140443725 heartbeat IPC: 0.628287 cumulative IPC: 0.621603 (Simulation time: 1 hr 25 min 0 sec) 
Heartbeat CPU 0 instructions: 122000002 cycles: 142063945 heartbeat IPC: 0.617201 cumulative IPC: 0.621541 (Simulation time: 1 hr 25 min 28 sec) 
Heartbeat CPU 0 instructions: 123000000 cycles: 143700652 heartbeat IPC: 0.610982 cumulative IPC: 0.621394 (Simulation time: 1 hr 25 min 55 sec) 
Heartbeat CPU 0 instructions: 124000000 cycles: 145309044 heartbeat IPC: 0.621739 cumulative IPC: 0.621399 (Simulation time: 1 hr 26 min 23 sec) 
Heartbeat CPU 0 instructions: 125000000 cycles: 146901489 heartbeat IPC: 0.627965 cumulative IPC: 0.621486 (Simulation time: 1 hr 26 min 52 sec) 
Heartbeat CPU 0 instructions: 126000000 cycles: 148494917 heartbeat IPC: 0.627578 cumulative IPC: 0.621565 (Simulation time: 1 hr 27 min 19 sec) 
Heartbeat CPU 0 instructions: 127000003 cycles: 150123816 heartbeat IPC: 0.613913 cumulative IPC: 0.621464 (Simulation time: 1 hr 27 min 45 sec) 
Heartbeat CPU 0 instructions: 128000000 cycles: 151749846 heartbeat IPC: 0.614993 cumulative IPC: 0.621381 (Simulation time: 1 hr 28 min 10 sec) 
Heartbeat CPU 0 instructions: 129000002 cycles: 153322186 heartbeat IPC: 0.635996 cumulative IPC: 0.621561 (Simulation time: 1 hr 28 min 33 sec) 
Heartbeat CPU 0 instructions: 130000000 cycles: 154936895 heartbeat IPC: 0.619305 cumulative IPC: 0.621533 (Simulation time: 1 hr 28 min 57 sec) 
Heartbeat CPU 0 instructions: 131000001 cycles: 156510683 heartbeat IPC: 0.63541 cumulative IPC: 0.621701 (Simulation time: 1 hr 29 min 20 sec) 
Heartbeat CPU 0 instructions: 132000000 cycles: 158127346 heartbeat IPC: 0.618558 cumulative IPC: 0.621662 (Simulation time: 1 hr 29 min 45 sec) 
Heartbeat CPU 0 instructions: 133000001 cycles: 159754891 heartbeat IPC: 0.614423 cumulative IPC: 0.621574 (Simulation time: 1 hr 30 min 11 sec) 
Heartbeat CPU 0 instructions: 134000003 cycles: 161383896 heartbeat IPC: 0.613873 cumulative IPC: 0.621481 (Simulation time: 1 hr 30 min 36 sec) 
Heartbeat CPU 0 instructions: 135000000 cycles: 163001964 heartbeat IPC: 0.618019 cumulative IPC: 0.62144 (Simulation time: 1 hr 30 min 59 sec) 
Heartbeat CPU 0 instructions: 136000000 cycles: 164603169 heartbeat IPC: 0.62453 cumulative IPC: 0.621476 (Simulation time: 1 hr 31 min 21 sec) 
Heartbeat CPU 0 instructions: 137000001 cycles: 166227835 heartbeat IPC: 0.615512 cumulative IPC: 0.621407 (Simulation time: 1 hr 31 min 42 sec) 
Heartbeat CPU 0 instructions: 138000002 cycles: 167835878 heartbeat IPC: 0.621875 cumulative IPC: 0.621412 (Simulation time: 1 hr 32 min 1 sec) 
Heartbeat CPU 0 instructions: 139000000 cycles: 169441041 heartbeat IPC: 0.622988 cumulative IPC: 0.62143 (Simulation time: 1 hr 32 min 20 sec) 
Heartbeat CPU 0 instructions: 140000000 cycles: 171043323 heartbeat IPC: 0.62411 cumulative IPC: 0.621459 (Simulation time: 1 hr 32 min 39 sec) 
Heartbeat CPU 0 instructions: 141000003 cycles: 172606966 heartbeat IPC: 0.639534 cumulative IPC: 0.621652 (Simulation time: 1 hr 32 min 56 sec) 
Heartbeat CPU 0 instructions: 142000001 cycles: 174201246 heartbeat IPC: 0.627241 cumulative IPC: 0.621713 (Simulation time: 1 hr 33 min 14 sec) 
Heartbeat CPU 0 instructions: 143000001 cycles: 175770638 heartbeat IPC: 0.637189 cumulative IPC: 0.621875 (Simulation time: 1 hr 33 min 30 sec) 
Heartbeat CPU 0 instructions: 144000000 cycles: 177342094 heartbeat IPC: 0.636352 cumulative IPC: 0.622026 (Simulation time: 1 hr 33 min 45 sec) 
Heartbeat CPU 0 instructions: 145000003 cycles: 178920323 heartbeat IPC: 0.633624 cumulative IPC: 0.622145 (Simulation time: 1 hr 33 min 59 sec) 
Heartbeat CPU 0 instructions: 146000000 cycles: 180492243 heartbeat IPC: 0.636163 cumulative IPC: 0.622288 (Simulation time: 1 hr 34 min 13 sec) 
Heartbeat CPU 0 instructions: 147000002 cycles: 182132115 heartbeat IPC: 0.609805 cumulative IPC: 0.622157 (Simulation time: 1 hr 34 min 25 sec) 
Heartbeat CPU 0 instructions: 148000000 cycles: 183732027 heartbeat IPC: 0.625033 cumulative IPC: 0.622186 (Simulation time: 1 hr 34 min 37 sec) 
Heartbeat CPU 0 instructions: 149000002 cycles: 185342503 heartbeat IPC: 0.620936 cumulative IPC: 0.622174 (Simulation time: 1 hr 34 min 48 sec) 
Heartbeat CPU 0 instructions: 150000003 cycles: 186973790 heartbeat IPC: 0.613014 cumulative IPC: 0.622081 (Simulation time: 1 hr 34 min 59 sec) 
Finished CPU 0 instructions: 100000002 cycles: 160750872 cummulative IPC: 0.622081 (Simulation time: 1 hr 34 min 59 sec) 

ChampSim completed all CPUs

Region of Interest Statistics

CPU 0 cummulative IPC: 0.622081 instructions: 100000002 cycles: 160750872
LLC TOTAL     ACCESS:    5406455  HIT:     262772  MISS:    5143683
LLC LOAD      ACCESS:     223294  HIT:      58149  MISS:     165145
LLC RFO       ACCESS:          0  HIT:          0  MISS:          0
LLC PREFETCH  ACCESS:    3748121  HIT:      47163  MISS:    3700958
LLC WRITEBACK ACCESS:    1435040  HIT:     157460  MISS:    1277580
OPTgen accesses: 11253
OPTgen hits: 3574
OPTgen hit rate: 31.7604


