
*** ChampSim Multicore Out-of-Order Simulator ***

Warmup Instructions: 50000000
Simulation Instructions: 100000000
Configuration: 2
Number of CPUs: 1
LLC sets: 2048
LLC ways: 16
Off-chip DRAM Channels: 1 Width: 64-bit Data Rate: 1600 MT/s

CPU 0 runs /datasets/cs240c-wi22-a00-public/data/Assignment2-gz/soplex_217B.trace.gz
CPU 0 L1D next line prefetcher
CPU 0 L2C IP-based stride prefetcher
Initialize Hawkeye state
Heartbeat CPU 0 instructions: 1000002 cycles: 441289 heartbeat IPC: 2.26609 cumulative IPC: 2.26609 (Simulation time: 0 hr 0 min 44 sec) 
Heartbeat CPU 0 instructions: 2000003 cycles: 800423 heartbeat IPC: 2.78448 cumulative IPC: 2.49868 (Simulation time: 0 hr 1 min 17 sec) 
Heartbeat CPU 0 instructions: 3000002 cycles: 1245423 heartbeat IPC: 2.24719 cumulative IPC: 2.40882 (Simulation time: 0 hr 1 min 57 sec) 
Heartbeat CPU 0 instructions: 4000000 cycles: 1672910 heartbeat IPC: 2.33925 cumulative IPC: 2.39104 (Simulation time: 0 hr 2 min 39 sec) 
Heartbeat CPU 0 instructions: 5000001 cycles: 2056959 heartbeat IPC: 2.60384 cumulative IPC: 2.43077 (Simulation time: 0 hr 3 min 9 sec) 
Heartbeat CPU 0 instructions: 6000000 cycles: 2431127 heartbeat IPC: 2.67259 cumulative IPC: 2.46799 (Simulation time: 0 hr 3 min 38 sec) 
Heartbeat CPU 0 instructions: 7000003 cycles: 2955267 heartbeat IPC: 1.90789 cumulative IPC: 2.36865 (Simulation time: 0 hr 4 min 11 sec) 
Heartbeat CPU 0 instructions: 8000000 cycles: 3401579 heartbeat IPC: 2.24058 cumulative IPC: 2.35185 (Simulation time: 0 hr 4 min 51 sec) 
Heartbeat CPU 0 instructions: 9000001 cycles: 3825894 heartbeat IPC: 2.35674 cumulative IPC: 2.35239 (Simulation time: 0 hr 5 min 27 sec) 
Heartbeat CPU 0 instructions: 10000000 cycles: 4238207 heartbeat IPC: 2.42534 cumulative IPC: 2.35949 (Simulation time: 0 hr 5 min 58 sec) 
Heartbeat CPU 0 instructions: 11000002 cycles: 4666834 heartbeat IPC: 2.33304 cumulative IPC: 2.35706 (Simulation time: 0 hr 6 min 41 sec) 
Heartbeat CPU 0 instructions: 12000000 cycles: 5071073 heartbeat IPC: 2.47378 cumulative IPC: 2.36636 (Simulation time: 0 hr 7 min 14 sec) 
Heartbeat CPU 0 instructions: 13000000 cycles: 5455318 heartbeat IPC: 2.60251 cumulative IPC: 2.383 (Simulation time: 0 hr 7 min 47 sec) 
Heartbeat CPU 0 instructions: 14000000 cycles: 5904440 heartbeat IPC: 2.22657 cumulative IPC: 2.3711 (Simulation time: 0 hr 8 min 15 sec) 
Heartbeat CPU 0 instructions: 15000000 cycles: 6425705 heartbeat IPC: 1.91841 cumulative IPC: 2.33437 (Simulation time: 0 hr 8 min 48 sec) 
Heartbeat CPU 0 instructions: 16000000 cycles: 6884195 heartbeat IPC: 2.18107 cumulative IPC: 2.32416 (Simulation time: 0 hr 9 min 31 sec) 
Heartbeat CPU 0 instructions: 17000002 cycles: 7264064 heartbeat IPC: 2.63249 cumulative IPC: 2.34029 (Simulation time: 0 hr 10 min 5 sec) 
Heartbeat CPU 0 instructions: 18000003 cycles: 7693885 heartbeat IPC: 2.32655 cumulative IPC: 2.33952 (Simulation time: 0 hr 10 min 40 sec) 
Heartbeat CPU 0 instructions: 19000001 cycles: 8117824 heartbeat IPC: 2.35883 cumulative IPC: 2.34053 (Simulation time: 0 hr 11 min 17 sec) 
Heartbeat CPU 0 instructions: 20000000 cycles: 8502169 heartbeat IPC: 2.60183 cumulative IPC: 2.35234 (Simulation time: 0 hr 11 min 46 sec) 
Heartbeat CPU 0 instructions: 21000000 cycles: 8879669 heartbeat IPC: 2.64901 cumulative IPC: 2.36495 (Simulation time: 0 hr 12 min 15 sec) 
Heartbeat CPU 0 instructions: 22000001 cycles: 9410595 heartbeat IPC: 1.8835 cumulative IPC: 2.33779 (Simulation time: 0 hr 12 min 48 sec) 
Heartbeat CPU 0 instructions: 23000001 cycles: 9858525 heartbeat IPC: 2.23249 cumulative IPC: 2.33301 (Simulation time: 0 hr 13 min 26 sec) 
Heartbeat CPU 0 instructions: 24000000 cycles: 10275533 heartbeat IPC: 2.39803 cumulative IPC: 2.33565 (Simulation time: 0 hr 14 min 2 sec) 
Heartbeat CPU 0 instructions: 25000001 cycles: 10688058 heartbeat IPC: 2.4241 cumulative IPC: 2.33906 (Simulation time: 0 hr 14 min 34 sec) 
Heartbeat CPU 0 instructions: 26000002 cycles: 11120146 heartbeat IPC: 2.31435 cumulative IPC: 2.3381 (Simulation time: 0 hr 15 min 15 sec) 
Heartbeat CPU 0 instructions: 27000002 cycles: 11522340 heartbeat IPC: 2.48636 cumulative IPC: 2.34327 (Simulation time: 0 hr 15 min 51 sec) 
Heartbeat CPU 0 instructions: 28000000 cycles: 11906652 heartbeat IPC: 2.60205 cumulative IPC: 2.35163 (Simulation time: 0 hr 16 min 24 sec) 
Heartbeat CPU 0 instructions: 29000002 cycles: 12361485 heartbeat IPC: 2.19861 cumulative IPC: 2.346 (Simulation time: 0 hr 16 min 54 sec) 
Heartbeat CPU 0 instructions: 30000002 cycles: 12884568 heartbeat IPC: 1.91174 cumulative IPC: 2.32837 (Simulation time: 0 hr 17 min 26 sec) 
Heartbeat CPU 0 instructions: 31000000 cycles: 13290069 heartbeat IPC: 2.46608 cumulative IPC: 2.33257 (Simulation time: 0 hr 18 min 0 sec) 
Heartbeat CPU 0 instructions: 32000000 cycles: 13698291 heartbeat IPC: 2.44965 cumulative IPC: 2.33606 (Simulation time: 0 hr 18 min 37 sec) 
Heartbeat CPU 0 instructions: 33000002 cycles: 14123435 heartbeat IPC: 2.35215 cumulative IPC: 2.33654 (Simulation time: 0 hr 19 min 18 sec) 
Heartbeat CPU 0 instructions: 34000000 cycles: 14531778 heartbeat IPC: 2.44892 cumulative IPC: 2.3397 (Simulation time: 0 hr 19 min 51 sec) 
Heartbeat CPU 0 instructions: 35000002 cycles: 14916474 heartbeat IPC: 2.59946 cumulative IPC: 2.3464 (Simulation time: 0 hr 20 min 19 sec) 
Heartbeat CPU 0 instructions: 36000000 cycles: 15353161 heartbeat IPC: 2.28997 cumulative IPC: 2.34479 (Simulation time: 0 hr 20 min 47 sec) 
Heartbeat CPU 0 instructions: 37000001 cycles: 15878030 heartbeat IPC: 1.90524 cumulative IPC: 2.33026 (Simulation time: 0 hr 21 min 23 sec) 
Heartbeat CPU 0 instructions: 38000000 cycles: 16306689 heartbeat IPC: 2.33285 cumulative IPC: 2.33033 (Simulation time: 0 hr 22 min 0 sec) 
Heartbeat CPU 0 instructions: 39000001 cycles: 16703139 heartbeat IPC: 2.52239 cumulative IPC: 2.33489 (Simulation time: 0 hr 22 min 35 sec) 
Heartbeat CPU 0 instructions: 40000000 cycles: 17127750 heartbeat IPC: 2.35509 cumulative IPC: 2.33539 (Simulation time: 0 hr 23 min 12 sec) 
Heartbeat CPU 0 instructions: 41000000 cycles: 17542921 heartbeat IPC: 2.40865 cumulative IPC: 2.33713 (Simulation time: 0 hr 23 min 51 sec) 
Heartbeat CPU 0 instructions: 42000002 cycles: 17926847 heartbeat IPC: 2.60467 cumulative IPC: 2.34285 (Simulation time: 0 hr 24 min 22 sec) 
Heartbeat CPU 0 instructions: 43000000 cycles: 18347488 heartbeat IPC: 2.37732 cumulative IPC: 2.34365 (Simulation time: 0 hr 24 min 53 sec) 
Heartbeat CPU 0 instructions: 44000000 cycles: 18878575 heartbeat IPC: 1.88293 cumulative IPC: 2.33068 (Simulation time: 0 hr 25 min 30 sec) 
Heartbeat CPU 0 instructions: 45000003 cycles: 19337971 heartbeat IPC: 2.17678 cumulative IPC: 2.32703 (Simulation time: 0 hr 26 min 14 sec) 
Heartbeat CPU 0 instructions: 46000000 cycles: 19769731 heartbeat IPC: 2.31609 cumulative IPC: 2.32679 (Simulation time: 0 hr 26 min 47 sec) 
Heartbeat CPU 0 instructions: 47000001 cycles: 20180619 heartbeat IPC: 2.43376 cumulative IPC: 2.32897 (Simulation time: 0 hr 27 min 22 sec) 
Heartbeat CPU 0 instructions: 48000000 cycles: 20609175 heartbeat IPC: 2.33342 cumulative IPC: 2.32906 (Simulation time: 0 hr 27 min 59 sec) 
Heartbeat CPU 0 instructions: 49000000 cycles: 21014501 heartbeat IPC: 2.46715 cumulative IPC: 2.33172 (Simulation time: 0 hr 28 min 35 sec) 
Heartbeat CPU 0 instructions: 50000002 cycles: 21399005 heartbeat IPC: 2.60076 cumulative IPC: 2.33656 (Simulation time: 0 hr 29 min 7 sec) 

Warmup complete CPU 0 instructions: 50000002 cycles: 21399005 (Simulation time: 0 hr 29 min 7 sec) 

Heartbeat CPU 0 instructions: 51000000 cycles: 24078693 heartbeat IPC: 0.373177 cumulative IPC: 0.373177 (Simulation time: 0 hr 29 min 50 sec) 
Heartbeat CPU 0 instructions: 52000000 cycles: 26997355 heartbeat IPC: 0.342623 cumulative IPC: 0.357248 (Simulation time: 0 hr 30 min 41 sec) 
Heartbeat CPU 0 instructions: 53000000 cycles: 30180103 heartbeat IPC: 0.314194 cumulative IPC: 0.341643 (Simulation time: 0 hr 31 min 33 sec) 
Heartbeat CPU 0 instructions: 54000000 cycles: 32051532 heartbeat IPC: 0.534351 cumulative IPC: 0.375498 (Simulation time: 0 hr 32 min 15 sec) 
Heartbeat CPU 0 instructions: 55000000 cycles: 35468292 heartbeat IPC: 0.292675 cumulative IPC: 0.355384 (Simulation time: 0 hr 33 min 7 sec) 
Heartbeat CPU 0 instructions: 56000000 cycles: 38276297 heartbeat IPC: 0.356125 cumulative IPC: 0.355507 (Simulation time: 0 hr 33 min 47 sec) 
Heartbeat CPU 0 instructions: 57000003 cycles: 39505260 heartbeat IPC: 0.813697 cumulative IPC: 0.386607 (Simulation time: 0 hr 34 min 12 sec) 
Heartbeat CPU 0 instructions: 58000000 cycles: 41676679 heartbeat IPC: 0.460527 cumulative IPC: 0.394522 (Simulation time: 0 hr 34 min 49 sec) 
Heartbeat CPU 0 instructions: 59000001 cycles: 44397704 heartbeat IPC: 0.367509 cumulative IPC: 0.391326 (Simulation time: 0 hr 35 min 37 sec) 
Heartbeat CPU 0 instructions: 60000000 cycles: 47809163 heartbeat IPC: 0.293129 cumulative IPC: 0.378642 (Simulation time: 0 hr 36 min 28 sec) 
Heartbeat CPU 0 instructions: 61000000 cycles: 50014653 heartbeat IPC: 0.453414 cumulative IPC: 0.384405 (Simulation time: 0 hr 37 min 10 sec) 
Heartbeat CPU 0 instructions: 62000002 cycles: 52733400 heartbeat IPC: 0.367817 cumulative IPC: 0.382966 (Simulation time: 0 hr 37 min 59 sec) 
Heartbeat CPU 0 instructions: 63000001 cycles: 56019185 heartbeat IPC: 0.304341 cumulative IPC: 0.375504 (Simulation time: 0 hr 38 min 48 sec) 
Heartbeat CPU 0 instructions: 64000000 cycles: 57270754 heartbeat IPC: 0.798996 cumulative IPC: 0.390279 (Simulation time: 0 hr 39 min 14 sec) 
Heartbeat CPU 0 instructions: 65000001 cycles: 58704036 heartbeat IPC: 0.6977 cumulative IPC: 0.402091 (Simulation time: 0 hr 39 min 48 sec) 
Heartbeat CPU 0 instructions: 66000002 cycles: 61998366 heartbeat IPC: 0.303552 cumulative IPC: 0.394095 (Simulation time: 0 hr 40 min 32 sec) 
Heartbeat CPU 0 instructions: 67000000 cycles: 65190686 heartbeat IPC: 0.313251 cumulative IPC: 0.388202 (Simulation time: 0 hr 41 min 27 sec) 
Heartbeat CPU 0 instructions: 68000000 cycles: 70715781 heartbeat IPC: 0.180992 cumulative IPC: 0.364987 (Simulation time: 0 hr 42 min 23 sec) 
Heartbeat CPU 0 instructions: 69000001 cycles: 74621791 heartbeat IPC: 0.256016 cumulative IPC: 0.35699 (Simulation time: 0 hr 43 min 12 sec) 
Heartbeat CPU 0 instructions: 70000002 cycles: 78659517 heartbeat IPC: 0.247664 cumulative IPC: 0.349281 (Simulation time: 0 hr 44 min 9 sec) 
Heartbeat CPU 0 instructions: 71000002 cycles: 82849511 heartbeat IPC: 0.238664 cumulative IPC: 0.341738 (Simulation time: 0 hr 45 min 5 sec) 
Heartbeat CPU 0 instructions: 72000000 cycles: 86151684 heartbeat IPC: 0.30283 cumulative IPC: 0.339754 (Simulation time: 0 hr 45 min 48 sec) 
Heartbeat CPU 0 instructions: 73000000 cycles: 89472118 heartbeat IPC: 0.301165 cumulative IPC: 0.337872 (Simulation time: 0 hr 46 min 40 sec) 
Heartbeat CPU 0 instructions: 74000000 cycles: 93018591 heartbeat IPC: 0.28197 cumulative IPC: 0.335104 (Simulation time: 0 hr 47 min 23 sec) 
Heartbeat CPU 0 instructions: 75000002 cycles: 96626619 heartbeat IPC: 0.27716 cumulative IPC: 0.332325 (Simulation time: 0 hr 48 min 15 sec) 
Heartbeat CPU 0 instructions: 76000000 cycles: 99190295 heartbeat IPC: 0.390064 cumulative IPC: 0.334228 (Simulation time: 0 hr 48 min 58 sec) 
Heartbeat CPU 0 instructions: 77000000 cycles: 102596960 heartbeat IPC: 0.293542 cumulative IPC: 0.332521 (Simulation time: 0 hr 49 min 42 sec) 
Heartbeat CPU 0 instructions: 78000002 cycles: 104736651 heartbeat IPC: 0.467358 cumulative IPC: 0.335983 (Simulation time: 0 hr 50 min 25 sec) 
Heartbeat CPU 0 instructions: 79000003 cycles: 106575139 heartbeat IPC: 0.543926 cumulative IPC: 0.340471 (Simulation time: 0 hr 51 min 6 sec) 
Heartbeat CPU 0 instructions: 80000000 cycles: 107900532 heartbeat IPC: 0.754491 cumulative IPC: 0.346815 (Simulation time: 0 hr 51 min 41 sec) 
Heartbeat CPU 0 instructions: 81000003 cycles: 110039475 heartbeat IPC: 0.467522 cumulative IPC: 0.349727 (Simulation time: 0 hr 52 min 21 sec) 
Heartbeat CPU 0 instructions: 82000001 cycles: 112725564 heartbeat IPC: 0.372288 cumulative IPC: 0.350391 (Simulation time: 0 hr 53 min 6 sec) 
Heartbeat CPU 0 instructions: 83000002 cycles: 115038035 heartbeat IPC: 0.432438 cumulative IPC: 0.352417 (Simulation time: 0 hr 53 min 54 sec) 
Heartbeat CPU 0 instructions: 84000000 cycles: 117230567 heartbeat IPC: 0.456093 cumulative IPC: 0.354789 (Simulation time: 0 hr 54 min 32 sec) 
Heartbeat CPU 0 instructions: 85000000 cycles: 118811992 heartbeat IPC: 0.632341 cumulative IPC: 0.359295 (Simulation time: 0 hr 55 min 11 sec) 
Heartbeat CPU 0 instructions: 86000000 cycles: 122442448 heartbeat IPC: 0.275447 cumulative IPC: 0.356282 (Simulation time: 0 hr 56 min 7 sec) 
Heartbeat CPU 0 instructions: 87000000 cycles: 124983538 heartbeat IPC: 0.393532 cumulative IPC: 0.357196 (Simulation time: 0 hr 56 min 46 sec) 
Heartbeat CPU 0 instructions: 88000000 cycles: 126298840 heartbeat IPC: 0.760282 cumulative IPC: 0.36225 (Simulation time: 0 hr 57 min 11 sec) 
Heartbeat CPU 0 instructions: 89000003 cycles: 128922358 heartbeat IPC: 0.381169 cumulative IPC: 0.362712 (Simulation time: 0 hr 57 min 46 sec) 
Heartbeat CPU 0 instructions: 90000002 cycles: 131813965 heartbeat IPC: 0.345828 cumulative IPC: 0.36227 (Simulation time: 0 hr 58 min 29 sec) 
Heartbeat CPU 0 instructions: 91000001 cycles: 135157026 heartbeat IPC: 0.299127 cumulative IPC: 0.360414 (Simulation time: 0 hr 59 min 25 sec) 
Heartbeat CPU 0 instructions: 92000000 cycles: 136998939 heartbeat IPC: 0.542913 cumulative IPC: 0.363322 (Simulation time: 1 hr 0 min 5 sec) 
Heartbeat CPU 0 instructions: 93000000 cycles: 140448907 heartbeat IPC: 0.289858 cumulative IPC: 0.361193 (Simulation time: 1 hr 0 min 57 sec) 
Heartbeat CPU 0 instructions: 94000001 cycles: 143228452 heartbeat IPC: 0.359771 cumulative IPC: 0.361161 (Simulation time: 1 hr 1 min 39 sec) 
Heartbeat CPU 0 instructions: 95000003 cycles: 144453215 heartbeat IPC: 0.816486 cumulative IPC: 0.365692 (Simulation time: 1 hr 2 min 8 sec) 
Heartbeat CPU 0 instructions: 96000000 cycles: 146691238 heartbeat IPC: 0.446822 cumulative IPC: 0.367142 (Simulation time: 1 hr 2 min 43 sec) 
Heartbeat CPU 0 instructions: 97000002 cycles: 149309946 heartbeat IPC: 0.381868 cumulative IPC: 0.367443 (Simulation time: 1 hr 3 min 25 sec) 
Heartbeat CPU 0 instructions: 98000003 cycles: 153292594 heartbeat IPC: 0.251089 cumulative IPC: 0.36393 (Simulation time: 1 hr 4 min 24 sec) 
Heartbeat CPU 0 instructions: 99000000 cycles: 156228942 heartbeat IPC: 0.340558 cumulative IPC: 0.363421 (Simulation time: 1 hr 5 min 4 sec) 
Heartbeat CPU 0 instructions: 100000000 cycles: 158101618 heartbeat IPC: 0.533995 cumulative IPC: 0.365757 (Simulation time: 1 hr 5 min 42 sec) 
Heartbeat CPU 0 instructions: 101000001 cycles: 161957736 heartbeat IPC: 0.259328 cumulative IPC: 0.362838 (Simulation time: 1 hr 6 min 37 sec) 
Heartbeat CPU 0 instructions: 102000000 cycles: 163562707 heartbeat IPC: 0.623064 cumulative IPC: 0.365775 (Simulation time: 1 hr 7 min 7 sec) 
Heartbeat CPU 0 instructions: 103000001 cycles: 164806042 heartbeat IPC: 0.804289 cumulative IPC: 0.369577 (Simulation time: 1 hr 7 min 32 sec) 
Heartbeat CPU 0 instructions: 104000000 cycles: 168401765 heartbeat IPC: 0.278108 cumulative IPC: 0.36734 (Simulation time: 1 hr 8 min 15 sec) 
Heartbeat CPU 0 instructions: 105000003 cycles: 171532978 heartbeat IPC: 0.319366 cumulative IPC: 0.366339 (Simulation time: 1 hr 8 min 59 sec) 
Heartbeat CPU 0 instructions: 106000002 cycles: 174248566 heartbeat IPC: 0.368244 cumulative IPC: 0.366373 (Simulation time: 1 hr 9 min 41 sec) 
Heartbeat CPU 0 instructions: 107000000 cycles: 175972177 heartbeat IPC: 0.580176 cumulative IPC: 0.368757 (Simulation time: 1 hr 10 min 24 sec) 
Heartbeat CPU 0 instructions: 108000000 cycles: 179900296 heartbeat IPC: 0.254575 cumulative IPC: 0.365928 (Simulation time: 1 hr 11 min 24 sec) 
Heartbeat CPU 0 instructions: 109000000 cycles: 181735798 heartbeat IPC: 0.54481 cumulative IPC: 0.367975 (Simulation time: 1 hr 11 min 55 sec) 
Heartbeat CPU 0 instructions: 110000002 cycles: 182893017 heartbeat IPC: 0.864142 cumulative IPC: 0.371531 (Simulation time: 1 hr 12 min 21 sec) 
Heartbeat CPU 0 instructions: 111000000 cycles: 186239815 heartbeat IPC: 0.298792 cumulative IPC: 0.370054 (Simulation time: 1 hr 13 min 0 sec) 
Heartbeat CPU 0 instructions: 112000000 cycles: 189121261 heartbeat IPC: 0.347048 cumulative IPC: 0.369659 (Simulation time: 1 hr 13 min 43 sec) 
Heartbeat CPU 0 instructions: 113000001 cycles: 191999142 heartbeat IPC: 0.347478 cumulative IPC: 0.369285 (Simulation time: 1 hr 14 min 20 sec) 
Heartbeat CPU 0 instructions: 114000003 cycles: 193505322 heartbeat IPC: 0.663933 cumulative IPC: 0.371863 (Simulation time: 1 hr 14 min 56 sec) 
Heartbeat CPU 0 instructions: 115000000 cycles: 197378408 heartbeat IPC: 0.258191 cumulative IPC: 0.369361 (Simulation time: 1 hr 15 min 40 sec) 
Heartbeat CPU 0 instructions: 116000000 cycles: 199510168 heartbeat IPC: 0.469096 cumulative IPC: 0.370555 (Simulation time: 1 hr 16 min 6 sec) 
Heartbeat CPU 0 instructions: 117000000 cycles: 200692319 heartbeat IPC: 0.845916 cumulative IPC: 0.373689 (Simulation time: 1 hr 16 min 30 sec) 
Heartbeat CPU 0 instructions: 118000000 cycles: 203695433 heartbeat IPC: 0.332988 cumulative IPC: 0.373019 (Simulation time: 1 hr 17 min 3 sec) 
Heartbeat CPU 0 instructions: 119000001 cycles: 206504845 heartbeat IPC: 0.355947 cumulative IPC: 0.37276 (Simulation time: 1 hr 17 min 42 sec) 
Heartbeat CPU 0 instructions: 120000000 cycles: 209551854 heartbeat IPC: 0.32819 cumulative IPC: 0.372038 (Simulation time: 1 hr 18 min 16 sec) 
Heartbeat CPU 0 instructions: 121000000 cycles: 211091822 heartbeat IPC: 0.649364 cumulative IPC: 0.374289 (Simulation time: 1 hr 18 min 50 sec) 
Heartbeat CPU 0 instructions: 122000001 cycles: 214803309 heartbeat IPC: 0.269434 cumulative IPC: 0.372277 (Simulation time: 1 hr 19 min 30 sec) 
Heartbeat CPU 0 instructions: 123000000 cycles: 217292793 heartbeat IPC: 0.401689 cumulative IPC: 0.372651 (Simulation time: 1 hr 19 min 57 sec) 
Heartbeat CPU 0 instructions: 124000000 cycles: 218501794 heartbeat IPC: 0.827129 cumulative IPC: 0.375439 (Simulation time: 1 hr 20 min 17 sec) 
Heartbeat CPU 0 instructions: 125000003 cycles: 221200754 heartbeat IPC: 0.370514 cumulative IPC: 0.375372 (Simulation time: 1 hr 20 min 42 sec) 
Heartbeat CPU 0 instructions: 126000000 cycles: 224063593 heartbeat IPC: 0.349303 cumulative IPC: 0.375004 (Simulation time: 1 hr 21 min 17 sec) 
Heartbeat CPU 0 instructions: 127000003 cycles: 226467383 heartbeat IPC: 0.416011 cumulative IPC: 0.375485 (Simulation time: 1 hr 21 min 48 sec) 
Heartbeat CPU 0 instructions: 128000000 cycles: 229148818 heartbeat IPC: 0.372934 cumulative IPC: 0.375452 (Simulation time: 1 hr 22 min 18 sec) 
Heartbeat CPU 0 instructions: 129000002 cycles: 231126639 heartbeat IPC: 0.505608 cumulative IPC: 0.376679 (Simulation time: 1 hr 22 min 45 sec) 
Heartbeat CPU 0 instructions: 130000000 cycles: 235157545 heartbeat IPC: 0.248083 cumulative IPC: 0.374254 (Simulation time: 1 hr 23 min 24 sec) 
Heartbeat CPU 0 instructions: 131000001 cycles: 236486649 heartbeat IPC: 0.752387 cumulative IPC: 0.376591 (Simulation time: 1 hr 23 min 42 sec) 
Heartbeat CPU 0 instructions: 132000000 cycles: 237625354 heartbeat IPC: 0.87819 cumulative IPC: 0.379232 (Simulation time: 1 hr 24 min 0 sec) 
Heartbeat CPU 0 instructions: 133000002 cycles: 241171613 heartbeat IPC: 0.281988 cumulative IPC: 0.377663 (Simulation time: 1 hr 24 min 32 sec) 
Heartbeat CPU 0 instructions: 134000002 cycles: 244362298 heartbeat IPC: 0.313412 cumulative IPC: 0.376744 (Simulation time: 1 hr 25 min 4 sec) 
Heartbeat CPU 0 instructions: 135000001 cycles: 247066697 heartbeat IPC: 0.369768 cumulative IPC: 0.37666 (Simulation time: 1 hr 25 min 27 sec) 
Heartbeat CPU 0 instructions: 136000000 cycles: 248784383 heartbeat IPC: 0.582178 cumulative IPC: 0.378213 (Simulation time: 1 hr 25 min 50 sec) 
Heartbeat CPU 0 instructions: 137000003 cycles: 252681579 heartbeat IPC: 0.256596 cumulative IPC: 0.376163 (Simulation time: 1 hr 26 min 24 sec) 
Heartbeat CPU 0 instructions: 138000000 cycles: 254437015 heartbeat IPC: 0.569657 cumulative IPC: 0.377621 (Simulation time: 1 hr 26 min 41 sec) 
Heartbeat CPU 0 instructions: 139000000 cycles: 255591236 heartbeat IPC: 0.866385 cumulative IPC: 0.38003 (Simulation time: 1 hr 26 min 58 sec) 
Heartbeat CPU 0 instructions: 140000000 cycles: 259021819 heartbeat IPC: 0.291496 cumulative IPC: 0.378752 (Simulation time: 1 hr 27 min 24 sec) 
Heartbeat CPU 0 instructions: 141000001 cycles: 261919323 heartbeat IPC: 0.345125 cumulative IPC: 0.378346 (Simulation time: 1 hr 27 min 49 sec) 
Heartbeat CPU 0 instructions: 142000001 cycles: 264727338 heartbeat IPC: 0.356123 cumulative IPC: 0.37809 (Simulation time: 1 hr 28 min 13 sec) 
Heartbeat CPU 0 instructions: 143000000 cycles: 266313515 heartbeat IPC: 0.630446 cumulative IPC: 0.379724 (Simulation time: 1 hr 28 min 34 sec) 
Heartbeat CPU 0 instructions: 144000000 cycles: 270218913 heartbeat IPC: 0.256056 cumulative IPC: 0.377783 (Simulation time: 1 hr 29 min 4 sec) 
Heartbeat CPU 0 instructions: 145000001 cycles: 272250804 heartbeat IPC: 0.492153 cumulative IPC: 0.37871 (Simulation time: 1 hr 29 min 20 sec) 
Heartbeat CPU 0 instructions: 146000000 cycles: 273423349 heartbeat IPC: 0.852845 cumulative IPC: 0.380916 (Simulation time: 1 hr 29 min 34 sec) 
Heartbeat CPU 0 instructions: 147000000 cycles: 276591224 heartbeat IPC: 0.315669 cumulative IPC: 0.380106 (Simulation time: 1 hr 29 min 56 sec) 
Heartbeat CPU 0 instructions: 148000000 cycles: 279415188 heartbeat IPC: 0.354112 cumulative IPC: 0.379821 (Simulation time: 1 hr 30 min 21 sec) 
Heartbeat CPU 0 instructions: 149000002 cycles: 282457686 heartbeat IPC: 0.328678 cumulative IPC: 0.379225 (Simulation time: 1 hr 30 min 44 sec) 
Heartbeat CPU 0 instructions: 150000000 cycles: 283891280 heartbeat IPC: 0.697546 cumulative IPC: 0.380964 (Simulation time: 1 hr 31 min 3 sec) 
Finished CPU 0 instructions: 100000001 cycles: 262492279 cummulative IPC: 0.380964 (Simulation time: 1 hr 31 min 3 sec) 

ChampSim completed all CPUs

Region of Interest Statistics

CPU 0 cummulative IPC: 0.380964 instructions: 100000001 cycles: 262492279
LLC TOTAL     ACCESS:    8586399  HIT:    4787343  MISS:    3799056
LLC LOAD      ACCESS:    2181291  HIT:    1058745  MISS:    1122546
LLC RFO       ACCESS:     808504  HIT:     245955  MISS:     562549
LLC PREFETCH  ACCESS:    3497735  HIT:    1618590  MISS:    1879145
LLC WRITEBACK ACCESS:    2098869  HIT:    1864053  MISS:     234816
OPTgen accesses: 65837
OPTgen hits: 49909
OPTgen hit rate: 75.8069


