
*** ChampSim Multicore Out-of-Order Simulator ***

Warmup Instructions: 50000000
Simulation Instructions: 100000000
Configuration: 2
Number of CPUs: 1
LLC sets: 2048
LLC ways: 16
Off-chip DRAM Channels: 1 Width: 64-bit Data Rate: 1600 MT/s

CPU 0 runs /datasets/cs240c-wi22-a00-public/data/Assignment2-gz/bzip2_281B.trace.gz
CPU 0 L1D next line prefetcher
CPU 0 L2C IP-based stride prefetcher
Initialize Hawkeye state
Heartbeat CPU 0 instructions: 1000000 cycles: 445877 heartbeat IPC: 2.24277 cumulative IPC: 2.24277 (Simulation time: 0 hr 0 min 37 sec) 
Heartbeat CPU 0 instructions: 2000003 cycles: 900175 heartbeat IPC: 2.20121 cumulative IPC: 2.22179 (Simulation time: 0 hr 1 min 15 sec) 
Heartbeat CPU 0 instructions: 3000002 cycles: 1315067 heartbeat IPC: 2.41026 cumulative IPC: 2.28125 (Simulation time: 0 hr 1 min 51 sec) 
Heartbeat CPU 0 instructions: 4000000 cycles: 1753556 heartbeat IPC: 2.28055 cumulative IPC: 2.28108 (Simulation time: 0 hr 2 min 27 sec) 
Heartbeat CPU 0 instructions: 5000002 cycles: 2175545 heartbeat IPC: 2.36973 cumulative IPC: 2.29828 (Simulation time: 0 hr 2 min 59 sec) 
Heartbeat CPU 0 instructions: 6000000 cycles: 2666194 heartbeat IPC: 2.03811 cumulative IPC: 2.2504 (Simulation time: 0 hr 3 min 44 sec) 
Heartbeat CPU 0 instructions: 7000001 cycles: 3193462 heartbeat IPC: 1.89657 cumulative IPC: 2.19198 (Simulation time: 0 hr 4 min 24 sec) 
Heartbeat CPU 0 instructions: 8000000 cycles: 3726055 heartbeat IPC: 1.8776 cumulative IPC: 2.14704 (Simulation time: 0 hr 5 min 0 sec) 
Heartbeat CPU 0 instructions: 9000000 cycles: 4232472 heartbeat IPC: 1.97466 cumulative IPC: 2.12642 (Simulation time: 0 hr 5 min 35 sec) 
Heartbeat CPU 0 instructions: 10000002 cycles: 4685414 heartbeat IPC: 2.20779 cumulative IPC: 2.13428 (Simulation time: 0 hr 6 min 6 sec) 
Heartbeat CPU 0 instructions: 11000000 cycles: 5132849 heartbeat IPC: 2.23496 cumulative IPC: 2.14306 (Simulation time: 0 hr 6 min 41 sec) 
Heartbeat CPU 0 instructions: 12000000 cycles: 5613900 heartbeat IPC: 2.07878 cumulative IPC: 2.13755 (Simulation time: 0 hr 7 min 17 sec) 
Heartbeat CPU 0 instructions: 13000001 cycles: 6025301 heartbeat IPC: 2.43072 cumulative IPC: 2.15757 (Simulation time: 0 hr 7 min 54 sec) 
Heartbeat CPU 0 instructions: 14000003 cycles: 6483761 heartbeat IPC: 2.18122 cumulative IPC: 2.15924 (Simulation time: 0 hr 8 min 28 sec) 
Heartbeat CPU 0 instructions: 15000003 cycles: 6944034 heartbeat IPC: 2.17262 cumulative IPC: 2.16013 (Simulation time: 0 hr 9 min 0 sec) 
Heartbeat CPU 0 instructions: 16000000 cycles: 7339867 heartbeat IPC: 2.52631 cumulative IPC: 2.17988 (Simulation time: 0 hr 9 min 30 sec) 
Heartbeat CPU 0 instructions: 17000000 cycles: 7729047 heartbeat IPC: 2.56951 cumulative IPC: 2.1995 (Simulation time: 0 hr 10 min 5 sec) 
Heartbeat CPU 0 instructions: 18000002 cycles: 8185071 heartbeat IPC: 2.19287 cumulative IPC: 2.19913 (Simulation time: 0 hr 10 min 37 sec) 
Heartbeat CPU 0 instructions: 19000000 cycles: 8631006 heartbeat IPC: 2.24247 cumulative IPC: 2.20137 (Simulation time: 0 hr 11 min 8 sec) 
Heartbeat CPU 0 instructions: 20000000 cycles: 9076004 heartbeat IPC: 2.2472 cumulative IPC: 2.20361 (Simulation time: 0 hr 11 min 43 sec) 
Heartbeat CPU 0 instructions: 21000000 cycles: 9463094 heartbeat IPC: 2.58338 cumulative IPC: 2.21915 (Simulation time: 0 hr 12 min 15 sec) 
Heartbeat CPU 0 instructions: 22000003 cycles: 9838927 heartbeat IPC: 2.66076 cumulative IPC: 2.23602 (Simulation time: 0 hr 12 min 47 sec) 
Heartbeat CPU 0 instructions: 23000001 cycles: 10291907 heartbeat IPC: 2.2076 cumulative IPC: 2.23477 (Simulation time: 0 hr 13 min 19 sec) 
Heartbeat CPU 0 instructions: 24000000 cycles: 10746504 heartbeat IPC: 2.19975 cumulative IPC: 2.23328 (Simulation time: 0 hr 13 min 55 sec) 
Heartbeat CPU 0 instructions: 25000001 cycles: 11090012 heartbeat IPC: 2.91114 cumulative IPC: 2.25428 (Simulation time: 0 hr 14 min 26 sec) 
Heartbeat CPU 0 instructions: 26000003 cycles: 11527669 heartbeat IPC: 2.2849 cumulative IPC: 2.25544 (Simulation time: 0 hr 14 min 59 sec) 
Heartbeat CPU 0 instructions: 27000003 cycles: 12000220 heartbeat IPC: 2.11617 cumulative IPC: 2.24996 (Simulation time: 0 hr 15 min 33 sec) 
Heartbeat CPU 0 instructions: 28000000 cycles: 12326722 heartbeat IPC: 3.06276 cumulative IPC: 2.27149 (Simulation time: 0 hr 16 min 1 sec) 
Heartbeat CPU 0 instructions: 29000001 cycles: 12623599 heartbeat IPC: 3.3684 cumulative IPC: 2.29728 (Simulation time: 0 hr 16 min 28 sec) 
Heartbeat CPU 0 instructions: 30000000 cycles: 12920473 heartbeat IPC: 3.36843 cumulative IPC: 2.3219 (Simulation time: 0 hr 16 min 52 sec) 
Heartbeat CPU 0 instructions: 31000000 cycles: 13262861 heartbeat IPC: 2.92066 cumulative IPC: 2.33735 (Simulation time: 0 hr 17 min 16 sec) 
Heartbeat CPU 0 instructions: 32000000 cycles: 13609404 heartbeat IPC: 2.88564 cumulative IPC: 2.35132 (Simulation time: 0 hr 17 min 44 sec) 
Heartbeat CPU 0 instructions: 33000001 cycles: 13967919 heartbeat IPC: 2.78929 cumulative IPC: 2.36256 (Simulation time: 0 hr 18 min 13 sec) 
Heartbeat CPU 0 instructions: 34000001 cycles: 14311513 heartbeat IPC: 2.91041 cumulative IPC: 2.37571 (Simulation time: 0 hr 18 min 39 sec) 
Heartbeat CPU 0 instructions: 35000003 cycles: 14652600 heartbeat IPC: 2.93181 cumulative IPC: 2.38865 (Simulation time: 0 hr 19 min 8 sec) 
Heartbeat CPU 0 instructions: 36000000 cycles: 14990968 heartbeat IPC: 2.95535 cumulative IPC: 2.40145 (Simulation time: 0 hr 19 min 33 sec) 
Heartbeat CPU 0 instructions: 37000000 cycles: 15330084 heartbeat IPC: 2.94884 cumulative IPC: 2.41355 (Simulation time: 0 hr 19 min 58 sec) 
Heartbeat CPU 0 instructions: 38000002 cycles: 15672141 heartbeat IPC: 2.9235 cumulative IPC: 2.42468 (Simulation time: 0 hr 20 min 25 sec) 
Heartbeat CPU 0 instructions: 39000001 cycles: 16011858 heartbeat IPC: 2.94362 cumulative IPC: 2.43569 (Simulation time: 0 hr 20 min 52 sec) 
Heartbeat CPU 0 instructions: 40000000 cycles: 16368195 heartbeat IPC: 2.80633 cumulative IPC: 2.44376 (Simulation time: 0 hr 21 min 17 sec) 
Heartbeat CPU 0 instructions: 41000000 cycles: 16711670 heartbeat IPC: 2.91142 cumulative IPC: 2.45338 (Simulation time: 0 hr 21 min 45 sec) 
Heartbeat CPU 0 instructions: 42000002 cycles: 17053294 heartbeat IPC: 2.9272 cumulative IPC: 2.46287 (Simulation time: 0 hr 22 min 12 sec) 
Heartbeat CPU 0 instructions: 43000000 cycles: 17389329 heartbeat IPC: 2.97587 cumulative IPC: 2.47278 (Simulation time: 0 hr 22 min 40 sec) 
Heartbeat CPU 0 instructions: 44000000 cycles: 17730092 heartbeat IPC: 2.93459 cumulative IPC: 2.48166 (Simulation time: 0 hr 23 min 6 sec) 
Heartbeat CPU 0 instructions: 45000001 cycles: 18066698 heartbeat IPC: 2.97084 cumulative IPC: 2.49077 (Simulation time: 0 hr 23 min 31 sec) 
Heartbeat CPU 0 instructions: 46000000 cycles: 18420141 heartbeat IPC: 2.82931 cumulative IPC: 2.49727 (Simulation time: 0 hr 23 min 56 sec) 
Heartbeat CPU 0 instructions: 47000003 cycles: 18769811 heartbeat IPC: 2.85985 cumulative IPC: 2.50402 (Simulation time: 0 hr 24 min 21 sec) 
Heartbeat CPU 0 instructions: 48000000 cycles: 19119734 heartbeat IPC: 2.85776 cumulative IPC: 2.5105 (Simulation time: 0 hr 24 min 49 sec) 
Heartbeat CPU 0 instructions: 49000003 cycles: 19475138 heartbeat IPC: 2.81371 cumulative IPC: 2.51603 (Simulation time: 0 hr 25 min 15 sec) 
Heartbeat CPU 0 instructions: 50000003 cycles: 19823408 heartbeat IPC: 2.87134 cumulative IPC: 2.52227 (Simulation time: 0 hr 25 min 41 sec) 

Warmup complete CPU 0 instructions: 50000003 cycles: 19823408 (Simulation time: 0 hr 25 min 41 sec) 

Heartbeat CPU 0 instructions: 51000002 cycles: 20780637 heartbeat IPC: 1.04468 cumulative IPC: 1.04468 (Simulation time: 0 hr 26 min 13 sec) 
Heartbeat CPU 0 instructions: 52000000 cycles: 21746007 heartbeat IPC: 1.03587 cumulative IPC: 1.04026 (Simulation time: 0 hr 26 min 48 sec) 
Heartbeat CPU 0 instructions: 53000001 cycles: 22724188 heartbeat IPC: 1.02231 cumulative IPC: 1.0342 (Simulation time: 0 hr 27 min 20 sec) 
Heartbeat CPU 0 instructions: 54000003 cycles: 23704638 heartbeat IPC: 1.01994 cumulative IPC: 1.0306 (Simulation time: 0 hr 27 min 51 sec) 
Heartbeat CPU 0 instructions: 55000000 cycles: 24668723 heartbeat IPC: 1.03725 cumulative IPC: 1.03192 (Simulation time: 0 hr 28 min 24 sec) 
Heartbeat CPU 0 instructions: 56000000 cycles: 25644782 heartbeat IPC: 1.02453 cumulative IPC: 1.03068 (Simulation time: 0 hr 29 min 0 sec) 
Heartbeat CPU 0 instructions: 57000002 cycles: 26612124 heartbeat IPC: 1.03376 cumulative IPC: 1.03112 (Simulation time: 0 hr 29 min 35 sec) 
Heartbeat CPU 0 instructions: 58000003 cycles: 27585061 heartbeat IPC: 1.02782 cumulative IPC: 1.03071 (Simulation time: 0 hr 30 min 12 sec) 
Heartbeat CPU 0 instructions: 59000003 cycles: 28613429 heartbeat IPC: 0.972415 cumulative IPC: 1.02389 (Simulation time: 0 hr 30 min 45 sec) 
Heartbeat CPU 0 instructions: 60000000 cycles: 29822250 heartbeat IPC: 0.82725 cumulative IPC: 1.00012 (Simulation time: 0 hr 31 min 27 sec) 
Heartbeat CPU 0 instructions: 61000000 cycles: 31029723 heartbeat IPC: 0.828176 cumulative IPC: 0.981589 (Simulation time: 0 hr 32 min 4 sec) 
Heartbeat CPU 0 instructions: 62000003 cycles: 32254572 heartbeat IPC: 0.81643 cumulative IPC: 0.965316 (Simulation time: 0 hr 32 min 43 sec) 
Heartbeat CPU 0 instructions: 63000001 cycles: 33486486 heartbeat IPC: 0.811743 cumulative IPC: 0.951469 (Simulation time: 0 hr 33 min 18 sec) 
Heartbeat CPU 0 instructions: 64000000 cycles: 34807316 heartbeat IPC: 0.757099 cumulative IPC: 0.934335 (Simulation time: 0 hr 33 min 52 sec) 
Heartbeat CPU 0 instructions: 65000001 cycles: 36011370 heartbeat IPC: 0.830528 cumulative IPC: 0.926614 (Simulation time: 0 hr 34 min 30 sec) 
Heartbeat CPU 0 instructions: 66000003 cycles: 37213181 heartbeat IPC: 0.832079 cumulative IPC: 0.920081 (Simulation time: 0 hr 35 min 7 sec) 
Heartbeat CPU 0 instructions: 67000000 cycles: 38424450 heartbeat IPC: 0.825578 cumulative IPC: 0.913927 (Simulation time: 0 hr 35 min 44 sec) 
Heartbeat CPU 0 instructions: 68000000 cycles: 39738092 heartbeat IPC: 0.761242 cumulative IPC: 0.903856 (Simulation time: 0 hr 36 min 18 sec) 
Heartbeat CPU 0 instructions: 69000000 cycles: 40934549 heartbeat IPC: 0.835801 cumulative IPC: 0.899999 (Simulation time: 0 hr 36 min 58 sec) 
Heartbeat CPU 0 instructions: 70000002 cycles: 42136763 heartbeat IPC: 0.8318 cumulative IPC: 0.896324 (Simulation time: 0 hr 37 min 33 sec) 
Heartbeat CPU 0 instructions: 71000003 cycles: 43343393 heartbeat IPC: 0.828755 cumulative IPC: 0.892858 (Simulation time: 0 hr 38 min 13 sec) 
Heartbeat CPU 0 instructions: 72000000 cycles: 44551394 heartbeat IPC: 0.827811 cumulative IPC: 0.88968 (Simulation time: 0 hr 38 min 51 sec) 
Heartbeat CPU 0 instructions: 73000002 cycles: 45854789 heartbeat IPC: 0.767229 cumulative IPC: 0.883549 (Simulation time: 0 hr 39 min 27 sec) 
Heartbeat CPU 0 instructions: 74000000 cycles: 47054278 heartbeat IPC: 0.833687 cumulative IPC: 0.881353 (Simulation time: 0 hr 40 min 5 sec) 
Heartbeat CPU 0 instructions: 75000001 cycles: 48255667 heartbeat IPC: 0.832371 cumulative IPC: 0.879283 (Simulation time: 0 hr 40 min 40 sec) 
Heartbeat CPU 0 instructions: 76000000 cycles: 49464964 heartbeat IPC: 0.826926 cumulative IPC: 0.877147 (Simulation time: 0 hr 41 min 17 sec) 
Heartbeat CPU 0 instructions: 77000001 cycles: 50722068 heartbeat IPC: 0.79548 cumulative IPC: 0.873824 (Simulation time: 0 hr 41 min 55 sec) 
Heartbeat CPU 0 instructions: 78000003 cycles: 51890154 heartbeat IPC: 0.856103 cumulative IPC: 0.873179 (Simulation time: 0 hr 42 min 22 sec) 
Heartbeat CPU 0 instructions: 79000000 cycles: 52809037 heartbeat IPC: 1.08827 cumulative IPC: 0.879171 (Simulation time: 0 hr 42 min 54 sec) 
Heartbeat CPU 0 instructions: 80000000 cycles: 53712484 heartbeat IPC: 1.10687 cumulative IPC: 0.885241 (Simulation time: 0 hr 43 min 22 sec) 
Heartbeat CPU 0 instructions: 81000000 cycles: 54558227 heartbeat IPC: 1.18239 cumulative IPC: 0.892476 (Simulation time: 0 hr 43 min 48 sec) 
Heartbeat CPU 0 instructions: 82000001 cycles: 55450251 heartbeat IPC: 1.12105 cumulative IPC: 0.898199 (Simulation time: 0 hr 44 min 15 sec) 
Heartbeat CPU 0 instructions: 83000000 cycles: 56374326 heartbeat IPC: 1.08216 cumulative IPC: 0.90285 (Simulation time: 0 hr 44 min 43 sec) 
Heartbeat CPU 0 instructions: 84000000 cycles: 57291158 heartbeat IPC: 1.09071 cumulative IPC: 0.907447 (Simulation time: 0 hr 45 min 7 sec) 
Heartbeat CPU 0 instructions: 85000002 cycles: 58226304 heartbeat IPC: 1.06935 cumulative IPC: 0.91139 (Simulation time: 0 hr 45 min 43 sec) 
Heartbeat CPU 0 instructions: 86000002 cycles: 59155330 heartbeat IPC: 1.0764 cumulative IPC: 0.915287 (Simulation time: 0 hr 46 min 16 sec) 
Heartbeat CPU 0 instructions: 87000002 cycles: 60084340 heartbeat IPC: 1.07641 cumulative IPC: 0.919005 (Simulation time: 0 hr 46 min 52 sec) 
Heartbeat CPU 0 instructions: 88000000 cycles: 61137331 heartbeat IPC: 0.949674 cumulative IPC: 0.919787 (Simulation time: 0 hr 47 min 27 sec) 
Heartbeat CPU 0 instructions: 89000002 cycles: 62234964 heartbeat IPC: 0.911053 cumulative IPC: 0.919561 (Simulation time: 0 hr 48 min 6 sec) 
Heartbeat CPU 0 instructions: 90000001 cycles: 63328946 heartbeat IPC: 0.914091 cumulative IPC: 0.919423 (Simulation time: 0 hr 48 min 45 sec) 
Heartbeat CPU 0 instructions: 91000001 cycles: 64433596 heartbeat IPC: 0.905264 cumulative IPC: 0.919073 (Simulation time: 0 hr 49 min 28 sec) 
Heartbeat CPU 0 instructions: 92000000 cycles: 65523545 heartbeat IPC: 0.917473 cumulative IPC: 0.919034 (Simulation time: 0 hr 50 min 6 sec) 
Heartbeat CPU 0 instructions: 93000001 cycles: 66608294 heartbeat IPC: 0.921873 cumulative IPC: 0.9191 (Simulation time: 0 hr 50 min 47 sec) 
Heartbeat CPU 0 instructions: 94000001 cycles: 67693051 heartbeat IPC: 0.921865 cumulative IPC: 0.919163 (Simulation time: 0 hr 51 min 26 sec) 
Heartbeat CPU 0 instructions: 95000000 cycles: 68783002 heartbeat IPC: 0.917472 cumulative IPC: 0.919125 (Simulation time: 0 hr 52 min 3 sec) 
Heartbeat CPU 0 instructions: 96000000 cycles: 69872313 heartbeat IPC: 0.918011 cumulative IPC: 0.919101 (Simulation time: 0 hr 52 min 37 sec) 
Heartbeat CPU 0 instructions: 97000002 cycles: 70959550 heartbeat IPC: 0.919765 cumulative IPC: 0.919115 (Simulation time: 0 hr 53 min 15 sec) 
Heartbeat CPU 0 instructions: 98000002 cycles: 72049969 heartbeat IPC: 0.917079 cumulative IPC: 0.919073 (Simulation time: 0 hr 53 min 48 sec) 
Heartbeat CPU 0 instructions: 99000000 cycles: 73139505 heartbeat IPC: 0.91782 cumulative IPC: 0.919047 (Simulation time: 0 hr 54 min 24 sec) 
Heartbeat CPU 0 instructions: 100000000 cycles: 74228543 heartbeat IPC: 0.918242 cumulative IPC: 0.919031 (Simulation time: 0 hr 54 min 56 sec) 
Heartbeat CPU 0 instructions: 101000000 cycles: 75320408 heartbeat IPC: 0.915864 cumulative IPC: 0.918969 (Simulation time: 0 hr 55 min 31 sec) 
Heartbeat CPU 0 instructions: 102000000 cycles: 76418789 heartbeat IPC: 0.910431 cumulative IPC: 0.918803 (Simulation time: 0 hr 56 min 13 sec) 
Heartbeat CPU 0 instructions: 103000002 cycles: 77514217 heartbeat IPC: 0.912887 cumulative IPC: 0.918691 (Simulation time: 0 hr 56 min 46 sec) 
Heartbeat CPU 0 instructions: 104000000 cycles: 78607389 heartbeat IPC: 0.914767 cumulative IPC: 0.918618 (Simulation time: 0 hr 57 min 19 sec) 
Heartbeat CPU 0 instructions: 105000003 cycles: 79702137 heartbeat IPC: 0.913455 cumulative IPC: 0.918523 (Simulation time: 0 hr 57 min 55 sec) 
Heartbeat CPU 0 instructions: 106000002 cycles: 80801585 heartbeat IPC: 0.909546 cumulative IPC: 0.918361 (Simulation time: 0 hr 58 min 36 sec) 
Heartbeat CPU 0 instructions: 107000001 cycles: 81888778 heartbeat IPC: 0.919799 cumulative IPC: 0.918387 (Simulation time: 0 hr 59 min 11 sec) 
Heartbeat CPU 0 instructions: 108000000 cycles: 82983148 heartbeat IPC: 0.913767 cumulative IPC: 0.918306 (Simulation time: 0 hr 59 min 45 sec) 
Heartbeat CPU 0 instructions: 109000001 cycles: 84078221 heartbeat IPC: 0.913182 cumulative IPC: 0.918219 (Simulation time: 1 hr 0 min 20 sec) 
Heartbeat CPU 0 instructions: 110000002 cycles: 85177724 heartbeat IPC: 0.909503 cumulative IPC: 0.918072 (Simulation time: 1 hr 1 min 2 sec) 
Heartbeat CPU 0 instructions: 111000000 cycles: 86268174 heartbeat IPC: 0.917051 cumulative IPC: 0.918056 (Simulation time: 1 hr 1 min 40 sec) 
Heartbeat CPU 0 instructions: 112000000 cycles: 87359644 heartbeat IPC: 0.916196 cumulative IPC: 0.918026 (Simulation time: 1 hr 2 min 16 sec) 
Heartbeat CPU 0 instructions: 113000002 cycles: 88450112 heartbeat IPC: 0.917039 cumulative IPC: 0.91801 (Simulation time: 1 hr 2 min 55 sec) 
Heartbeat CPU 0 instructions: 114000001 cycles: 89543633 heartbeat IPC: 0.914476 cumulative IPC: 0.917955 (Simulation time: 1 hr 3 min 27 sec) 
Heartbeat CPU 0 instructions: 115000001 cycles: 90633107 heartbeat IPC: 0.917874 cumulative IPC: 0.917953 (Simulation time: 1 hr 4 min 0 sec) 
Heartbeat CPU 0 instructions: 116000000 cycles: 91720970 heartbeat IPC: 0.919232 cumulative IPC: 0.917973 (Simulation time: 1 hr 4 min 34 sec) 
Heartbeat CPU 0 instructions: 117000001 cycles: 92808383 heartbeat IPC: 0.919615 cumulative IPC: 0.917997 (Simulation time: 1 hr 5 min 11 sec) 
Heartbeat CPU 0 instructions: 118000000 cycles: 93896424 heartbeat IPC: 0.919082 cumulative IPC: 0.918013 (Simulation time: 1 hr 5 min 47 sec) 
Heartbeat CPU 0 instructions: 119000000 cycles: 94985851 heartbeat IPC: 0.917914 cumulative IPC: 0.918012 (Simulation time: 1 hr 6 min 27 sec) 
Heartbeat CPU 0 instructions: 120000000 cycles: 96075307 heartbeat IPC: 0.917889 cumulative IPC: 0.91801 (Simulation time: 1 hr 7 min 7 sec) 
Heartbeat CPU 0 instructions: 121000000 cycles: 97163711 heartbeat IPC: 0.918777 cumulative IPC: 0.918021 (Simulation time: 1 hr 7 min 41 sec) 
Heartbeat CPU 0 instructions: 122000000 cycles: 98255731 heartbeat IPC: 0.915734 cumulative IPC: 0.917989 (Simulation time: 1 hr 8 min 14 sec) 
Heartbeat CPU 0 instructions: 123000001 cycles: 99350772 heartbeat IPC: 0.913209 cumulative IPC: 0.917923 (Simulation time: 1 hr 8 min 51 sec) 
Heartbeat CPU 0 instructions: 124000000 cycles: 100447401 heartbeat IPC: 0.911884 cumulative IPC: 0.917841 (Simulation time: 1 hr 9 min 33 sec) 
Heartbeat CPU 0 instructions: 125000002 cycles: 101540613 heartbeat IPC: 0.914737 cumulative IPC: 0.917799 (Simulation time: 1 hr 10 min 13 sec) 
Heartbeat CPU 0 instructions: 126000002 cycles: 102632340 heartbeat IPC: 0.91598 cumulative IPC: 0.917775 (Simulation time: 1 hr 10 min 49 sec) 
Heartbeat CPU 0 instructions: 127000003 cycles: 103721963 heartbeat IPC: 0.91775 cumulative IPC: 0.917775 (Simulation time: 1 hr 11 min 22 sec) 
Heartbeat CPU 0 instructions: 128000000 cycles: 104812318 heartbeat IPC: 0.91713 cumulative IPC: 0.917767 (Simulation time: 1 hr 11 min 54 sec) 
Heartbeat CPU 0 instructions: 129000001 cycles: 105901711 heartbeat IPC: 0.917943 cumulative IPC: 0.917769 (Simulation time: 1 hr 12 min 29 sec) 
Heartbeat CPU 0 instructions: 130000001 cycles: 106990560 heartbeat IPC: 0.918401 cumulative IPC: 0.917777 (Simulation time: 1 hr 13 min 3 sec) 
Heartbeat CPU 0 instructions: 131000001 cycles: 108084239 heartbeat IPC: 0.914345 cumulative IPC: 0.917734 (Simulation time: 1 hr 13 min 41 sec) 
Heartbeat CPU 0 instructions: 132000000 cycles: 109179183 heartbeat IPC: 0.913288 cumulative IPC: 0.91768 (Simulation time: 1 hr 14 min 13 sec) 
Heartbeat CPU 0 instructions: 133000002 cycles: 110284050 heartbeat IPC: 0.905088 cumulative IPC: 0.917526 (Simulation time: 1 hr 14 min 43 sec) 
Heartbeat CPU 0 instructions: 134000000 cycles: 111380064 heartbeat IPC: 0.912395 cumulative IPC: 0.917465 (Simulation time: 1 hr 15 min 11 sec) 
Heartbeat CPU 0 instructions: 135000003 cycles: 112481724 heartbeat IPC: 0.907724 cumulative IPC: 0.917349 (Simulation time: 1 hr 15 min 40 sec) 
Heartbeat CPU 0 instructions: 136000000 cycles: 113582215 heartbeat IPC: 0.908683 cumulative IPC: 0.917247 (Simulation time: 1 hr 16 min 8 sec) 
Heartbeat CPU 0 instructions: 137000001 cycles: 114678659 heartbeat IPC: 0.91204 cumulative IPC: 0.917187 (Simulation time: 1 hr 16 min 38 sec) 
Heartbeat CPU 0 instructions: 138000000 cycles: 115793784 heartbeat IPC: 0.89676 cumulative IPC: 0.91695 (Simulation time: 1 hr 17 min 9 sec) 
Heartbeat CPU 0 instructions: 139000002 cycles: 116428000 heartbeat IPC: 1.57675 cumulative IPC: 0.921281 (Simulation time: 1 hr 17 min 35 sec) 
Heartbeat CPU 0 instructions: 140000000 cycles: 117059601 heartbeat IPC: 1.58327 cumulative IPC: 0.925581 (Simulation time: 1 hr 18 min 4 sec) 
Heartbeat CPU 0 instructions: 141000000 cycles: 117691460 heartbeat IPC: 1.58263 cumulative IPC: 0.929823 (Simulation time: 1 hr 18 min 33 sec) 
Heartbeat CPU 0 instructions: 142000002 cycles: 118324262 heartbeat IPC: 1.58028 cumulative IPC: 0.934002 (Simulation time: 1 hr 18 min 59 sec) 
Heartbeat CPU 0 instructions: 143000002 cycles: 118962470 heartbeat IPC: 1.56689 cumulative IPC: 0.938076 (Simulation time: 1 hr 19 min 25 sec) 
Heartbeat CPU 0 instructions: 144000000 cycles: 119602731 heartbeat IPC: 1.56186 cumulative IPC: 0.942079 (Simulation time: 1 hr 19 min 48 sec) 
Heartbeat CPU 0 instructions: 145000001 cycles: 120243086 heartbeat IPC: 1.56164 cumulative IPC: 0.94603 (Simulation time: 1 hr 20 min 11 sec) 
Heartbeat CPU 0 instructions: 146000002 cycles: 120881567 heartbeat IPC: 1.56622 cumulative IPC: 0.949948 (Simulation time: 1 hr 20 min 34 sec) 
Heartbeat CPU 0 instructions: 147000002 cycles: 122217673 heartbeat IPC: 0.748444 cumulative IPC: 0.947319 (Simulation time: 1 hr 21 min 0 sec) 
Heartbeat CPU 0 instructions: 148000000 cycles: 122733893 heartbeat IPC: 1.93715 cumulative IPC: 0.952284 (Simulation time: 1 hr 21 min 23 sec) 
Heartbeat CPU 0 instructions: 149000000 cycles: 123245663 heartbeat IPC: 1.954 cumulative IPC: 0.957241 (Simulation time: 1 hr 21 min 49 sec) 
Heartbeat CPU 0 instructions: 150000003 cycles: 123757319 heartbeat IPC: 1.95444 cumulative IPC: 0.96215 (Simulation time: 1 hr 22 min 12 sec) 
Finished CPU 0 instructions: 100000000 cycles: 103933911 cummulative IPC: 0.96215 (Simulation time: 1 hr 22 min 12 sec) 

ChampSim completed all CPUs

Region of Interest Statistics

CPU 0 cummulative IPC: 0.96215 instructions: 100000000 cycles: 103933911
LLC TOTAL     ACCESS:     678836  HIT:     550030  MISS:     128806
LLC LOAD      ACCESS:     201690  HIT:     200258  MISS:       1432
LLC RFO       ACCESS:      77431  HIT:      17138  MISS:      60293
LLC PREFETCH  ACCESS:     319047  HIT:     267774  MISS:      51273
LLC WRITEBACK ACCESS:      80668  HIT:      64860  MISS:      15808
OPTgen accesses: 19490
OPTgen hits: 22348
OPTgen hit rate: 114.664


