
*** ChampSim Multicore Out-of-Order Simulator ***

Warmup Instructions: 50000000
Simulation Instructions: 100000000
Configuration: 2
Number of CPUs: 1
LLC sets: 2048
LLC ways: 16
Off-chip DRAM Channels: 1 Width: 64-bit Data Rate: 1600 MT/s

CPU 0 runs /datasets/cs240c-wi22-a00-public/data/Assignment2-gz/omnetpp_4B.trace.gz
CPU 0 L1D next line prefetcher
CPU 0 L2C IP-based stride prefetcher
Initialize Hawkeye state
Heartbeat CPU 0 instructions: 1000001 cycles: 566981 heartbeat IPC: 1.76373 cumulative IPC: 1.76373 (Simulation time: 0 hr 0 min 34 sec) 
Heartbeat CPU 0 instructions: 2000001 cycles: 1135674 heartbeat IPC: 1.75842 cumulative IPC: 1.76107 (Simulation time: 0 hr 1 min 8 sec) 
Heartbeat CPU 0 instructions: 3000001 cycles: 1722678 heartbeat IPC: 1.70357 cumulative IPC: 1.74148 (Simulation time: 0 hr 1 min 41 sec) 
Heartbeat CPU 0 instructions: 4000000 cycles: 2292030 heartbeat IPC: 1.75638 cumulative IPC: 1.74518 (Simulation time: 0 hr 2 min 19 sec) 
Heartbeat CPU 0 instructions: 5000000 cycles: 2866262 heartbeat IPC: 1.74146 cumulative IPC: 1.74443 (Simulation time: 0 hr 2 min 53 sec) 
Heartbeat CPU 0 instructions: 6000000 cycles: 3442502 heartbeat IPC: 1.73539 cumulative IPC: 1.74292 (Simulation time: 0 hr 3 min 24 sec) 
Heartbeat CPU 0 instructions: 7000000 cycles: 4011837 heartbeat IPC: 1.75644 cumulative IPC: 1.74484 (Simulation time: 0 hr 3 min 56 sec) 
Heartbeat CPU 0 instructions: 8000000 cycles: 4565387 heartbeat IPC: 1.80652 cumulative IPC: 1.75232 (Simulation time: 0 hr 4 min 27 sec) 
Heartbeat CPU 0 instructions: 9000001 cycles: 5147554 heartbeat IPC: 1.71772 cumulative IPC: 1.7484 (Simulation time: 0 hr 5 min 0 sec) 
Heartbeat CPU 0 instructions: 10000000 cycles: 5701612 heartbeat IPC: 1.80486 cumulative IPC: 1.75389 (Simulation time: 0 hr 5 min 34 sec) 
Heartbeat CPU 0 instructions: 11000000 cycles: 6288831 heartbeat IPC: 1.70294 cumulative IPC: 1.74913 (Simulation time: 0 hr 6 min 5 sec) 
Heartbeat CPU 0 instructions: 12000000 cycles: 6939913 heartbeat IPC: 1.5359 cumulative IPC: 1.72913 (Simulation time: 0 hr 6 min 38 sec) 
Heartbeat CPU 0 instructions: 13000002 cycles: 7587099 heartbeat IPC: 1.54515 cumulative IPC: 1.71344 (Simulation time: 0 hr 7 min 8 sec) 
Heartbeat CPU 0 instructions: 14000000 cycles: 8237600 heartbeat IPC: 1.53727 cumulative IPC: 1.69952 (Simulation time: 0 hr 7 min 36 sec) 
Heartbeat CPU 0 instructions: 15000000 cycles: 8891131 heartbeat IPC: 1.53015 cumulative IPC: 1.68707 (Simulation time: 0 hr 8 min 5 sec) 
Heartbeat CPU 0 instructions: 16000000 cycles: 9461596 heartbeat IPC: 1.75296 cumulative IPC: 1.69105 (Simulation time: 0 hr 8 min 37 sec) 
Heartbeat CPU 0 instructions: 17000000 cycles: 10043612 heartbeat IPC: 1.71817 cumulative IPC: 1.69262 (Simulation time: 0 hr 9 min 9 sec) 
Heartbeat CPU 0 instructions: 18000000 cycles: 10615142 heartbeat IPC: 1.74969 cumulative IPC: 1.69569 (Simulation time: 0 hr 9 min 38 sec) 
Heartbeat CPU 0 instructions: 19000002 cycles: 11183937 heartbeat IPC: 1.75811 cumulative IPC: 1.69887 (Simulation time: 0 hr 10 min 14 sec) 
Heartbeat CPU 0 instructions: 20000000 cycles: 11731690 heartbeat IPC: 1.82564 cumulative IPC: 1.70478 (Simulation time: 0 hr 10 min 45 sec) 
Heartbeat CPU 0 instructions: 21000000 cycles: 12279925 heartbeat IPC: 1.82404 cumulative IPC: 1.71011 (Simulation time: 0 hr 11 min 20 sec) 
Heartbeat CPU 0 instructions: 22000001 cycles: 12832893 heartbeat IPC: 1.80842 cumulative IPC: 1.71434 (Simulation time: 0 hr 11 min 52 sec) 
Heartbeat CPU 0 instructions: 23000000 cycles: 13414517 heartbeat IPC: 1.71932 cumulative IPC: 1.71456 (Simulation time: 0 hr 12 min 25 sec) 
Heartbeat CPU 0 instructions: 24000000 cycles: 13984320 heartbeat IPC: 1.75499 cumulative IPC: 1.71621 (Simulation time: 0 hr 12 min 56 sec) 
Heartbeat CPU 0 instructions: 25000000 cycles: 14547205 heartbeat IPC: 1.77656 cumulative IPC: 1.71854 (Simulation time: 0 hr 13 min 30 sec) 
Heartbeat CPU 0 instructions: 26000001 cycles: 15116791 heartbeat IPC: 1.75566 cumulative IPC: 1.71994 (Simulation time: 0 hr 14 min 3 sec) 
Heartbeat CPU 0 instructions: 27000001 cycles: 15683505 heartbeat IPC: 1.76456 cumulative IPC: 1.72155 (Simulation time: 0 hr 14 min 34 sec) 
Heartbeat CPU 0 instructions: 28000000 cycles: 16252747 heartbeat IPC: 1.75672 cumulative IPC: 1.72279 (Simulation time: 0 hr 15 min 7 sec) 
Heartbeat CPU 0 instructions: 29000000 cycles: 16839148 heartbeat IPC: 1.70532 cumulative IPC: 1.72218 (Simulation time: 0 hr 15 min 41 sec) 
Heartbeat CPU 0 instructions: 30000000 cycles: 17409951 heartbeat IPC: 1.75192 cumulative IPC: 1.72315 (Simulation time: 0 hr 16 min 12 sec) 
Heartbeat CPU 0 instructions: 31000000 cycles: 17985565 heartbeat IPC: 1.73728 cumulative IPC: 1.7236 (Simulation time: 0 hr 16 min 44 sec) 
Heartbeat CPU 0 instructions: 32000000 cycles: 18555406 heartbeat IPC: 1.75488 cumulative IPC: 1.72456 (Simulation time: 0 hr 17 min 15 sec) 
Heartbeat CPU 0 instructions: 33000000 cycles: 19114069 heartbeat IPC: 1.78999 cumulative IPC: 1.72648 (Simulation time: 0 hr 17 min 47 sec) 
Heartbeat CPU 0 instructions: 34000001 cycles: 19666728 heartbeat IPC: 1.80944 cumulative IPC: 1.72881 (Simulation time: 0 hr 18 min 21 sec) 
Heartbeat CPU 0 instructions: 35000001 cycles: 20247791 heartbeat IPC: 1.72098 cumulative IPC: 1.72858 (Simulation time: 0 hr 18 min 55 sec) 
Heartbeat CPU 0 instructions: 36000000 cycles: 20803540 heartbeat IPC: 1.79937 cumulative IPC: 1.73047 (Simulation time: 0 hr 19 min 27 sec) 
Heartbeat CPU 0 instructions: 37000001 cycles: 21375797 heartbeat IPC: 1.74747 cumulative IPC: 1.73093 (Simulation time: 0 hr 20 min 0 sec) 
Heartbeat CPU 0 instructions: 38000001 cycles: 21936345 heartbeat IPC: 1.78397 cumulative IPC: 1.73229 (Simulation time: 0 hr 20 min 33 sec) 
Heartbeat CPU 0 instructions: 39000001 cycles: 22549216 heartbeat IPC: 1.63166 cumulative IPC: 1.72955 (Simulation time: 0 hr 21 min 7 sec) 
Heartbeat CPU 0 instructions: 40000000 cycles: 23198221 heartbeat IPC: 1.54082 cumulative IPC: 1.72427 (Simulation time: 0 hr 21 min 35 sec) 
Heartbeat CPU 0 instructions: 41000001 cycles: 23847177 heartbeat IPC: 1.54094 cumulative IPC: 1.71928 (Simulation time: 0 hr 22 min 8 sec) 
Heartbeat CPU 0 instructions: 42000001 cycles: 24494101 heartbeat IPC: 1.54578 cumulative IPC: 1.7147 (Simulation time: 0 hr 22 min 41 sec) 
Heartbeat CPU 0 instructions: 43000000 cycles: 25162765 heartbeat IPC: 1.49552 cumulative IPC: 1.70887 (Simulation time: 0 hr 23 min 12 sec) 
Heartbeat CPU 0 instructions: 44000000 cycles: 25726602 heartbeat IPC: 1.77356 cumulative IPC: 1.71029 (Simulation time: 0 hr 23 min 44 sec) 
Heartbeat CPU 0 instructions: 45000000 cycles: 26290370 heartbeat IPC: 1.77378 cumulative IPC: 1.71165 (Simulation time: 0 hr 24 min 17 sec) 
Heartbeat CPU 0 instructions: 46000000 cycles: 26836604 heartbeat IPC: 1.83072 cumulative IPC: 1.71408 (Simulation time: 0 hr 24 min 50 sec) 
Heartbeat CPU 0 instructions: 47000000 cycles: 27382811 heartbeat IPC: 1.83081 cumulative IPC: 1.71641 (Simulation time: 0 hr 25 min 22 sec) 
Heartbeat CPU 0 instructions: 48000000 cycles: 27934358 heartbeat IPC: 1.81308 cumulative IPC: 1.71831 (Simulation time: 0 hr 25 min 53 sec) 
Heartbeat CPU 0 instructions: 49000002 cycles: 28515276 heartbeat IPC: 1.72142 cumulative IPC: 1.71838 (Simulation time: 0 hr 26 min 25 sec) 
Heartbeat CPU 0 instructions: 50000000 cycles: 29085312 heartbeat IPC: 1.75427 cumulative IPC: 1.71908 (Simulation time: 0 hr 26 min 59 sec) 

Warmup complete CPU 0 instructions: 50000002 cycles: 29085313 (Simulation time: 0 hr 26 min 59 sec) 

Heartbeat CPU 0 instructions: 51000003 cycles: 31984367 heartbeat IPC: 0.344941 cumulative IPC: 0.34494 (Simulation time: 0 hr 27 min 40 sec) 
Heartbeat CPU 0 instructions: 52000000 cycles: 34867025 heartbeat IPC: 0.346901 cumulative IPC: 0.345918 (Simulation time: 0 hr 28 min 17 sec) 
Heartbeat CPU 0 instructions: 53000003 cycles: 37771332 heartbeat IPC: 0.344317 cumulative IPC: 0.345383 (Simulation time: 0 hr 28 min 56 sec) 
Heartbeat CPU 0 instructions: 54000001 cycles: 40641983 heartbeat IPC: 0.348352 cumulative IPC: 0.34612 (Simulation time: 0 hr 29 min 34 sec) 
Heartbeat CPU 0 instructions: 55000001 cycles: 43653027 heartbeat IPC: 0.332111 cumulative IPC: 0.343225 (Simulation time: 0 hr 30 min 15 sec) 
Heartbeat CPU 0 instructions: 56000000 cycles: 46525287 heartbeat IPC: 0.348158 cumulative IPC: 0.344037 (Simulation time: 0 hr 30 min 56 sec) 
Heartbeat CPU 0 instructions: 57000003 cycles: 49377650 heartbeat IPC: 0.350588 cumulative IPC: 0.344958 (Simulation time: 0 hr 31 min 35 sec) 
Heartbeat CPU 0 instructions: 58000001 cycles: 52469381 heartbeat IPC: 0.323443 cumulative IPC: 0.342113 (Simulation time: 0 hr 32 min 10 sec) 
Heartbeat CPU 0 instructions: 59000001 cycles: 55882927 heartbeat IPC: 0.292951 cumulative IPC: 0.335851 (Simulation time: 0 hr 32 min 48 sec) 
Heartbeat CPU 0 instructions: 60000000 cycles: 58972702 heartbeat IPC: 0.323648 cumulative IPC: 0.334589 (Simulation time: 0 hr 33 min 24 sec) 
Heartbeat CPU 0 instructions: 61000001 cycles: 62100738 heartbeat IPC: 0.31969 cumulative IPC: 0.333178 (Simulation time: 0 hr 33 min 58 sec) 
Heartbeat CPU 0 instructions: 62000000 cycles: 65539977 heartbeat IPC: 0.290762 cumulative IPC: 0.329176 (Simulation time: 0 hr 34 min 37 sec) 
Heartbeat CPU 0 instructions: 63000001 cycles: 68466795 heartbeat IPC: 0.341668 cumulative IPC: 0.330104 (Simulation time: 0 hr 35 min 10 sec) 
Heartbeat CPU 0 instructions: 64000000 cycles: 71368851 heartbeat IPC: 0.344583 cumulative IPC: 0.331098 (Simulation time: 0 hr 35 min 45 sec) 
Heartbeat CPU 0 instructions: 65000001 cycles: 74262304 heartbeat IPC: 0.345608 cumulative IPC: 0.332027 (Simulation time: 0 hr 36 min 22 sec) 
Heartbeat CPU 0 instructions: 66000002 cycles: 78562769 heartbeat IPC: 0.232533 cumulative IPC: 0.32338 (Simulation time: 0 hr 37 min 6 sec) 
Heartbeat CPU 0 instructions: 67000001 cycles: 80235592 heartbeat IPC: 0.597791 cumulative IPC: 0.332354 (Simulation time: 0 hr 37 min 42 sec) 
Heartbeat CPU 0 instructions: 68000000 cycles: 81359340 heartbeat IPC: 0.889878 cumulative IPC: 0.344339 (Simulation time: 0 hr 38 min 13 sec) 
Heartbeat CPU 0 instructions: 69000003 cycles: 82501393 heartbeat IPC: 0.875619 cumulative IPC: 0.355698 (Simulation time: 0 hr 38 min 41 sec) 
Heartbeat CPU 0 instructions: 70000000 cycles: 83621931 heartbeat IPC: 0.892426 cumulative IPC: 0.366726 (Simulation time: 0 hr 39 min 5 sec) 
Heartbeat CPU 0 instructions: 71000001 cycles: 84794746 heartbeat IPC: 0.85265 cumulative IPC: 0.376956 (Simulation time: 0 hr 39 min 39 sec) 
Heartbeat CPU 0 instructions: 72000000 cycles: 88214685 heartbeat IPC: 0.292403 cumulative IPC: 0.372065 (Simulation time: 0 hr 40 min 17 sec) 
Heartbeat CPU 0 instructions: 73000000 cycles: 91732472 heartbeat IPC: 0.28427 cumulative IPC: 0.367136 (Simulation time: 0 hr 40 min 57 sec) 
Heartbeat CPU 0 instructions: 74000001 cycles: 95202275 heartbeat IPC: 0.288201 cumulative IPC: 0.362993 (Simulation time: 0 hr 41 min 35 sec) 
Heartbeat CPU 0 instructions: 75000001 cycles: 98177869 heartbeat IPC: 0.336067 cumulative IPC: 0.361833 (Simulation time: 0 hr 42 min 13 sec) 
Heartbeat CPU 0 instructions: 76000000 cycles: 101053952 heartbeat IPC: 0.347695 cumulative IPC: 0.361268 (Simulation time: 0 hr 42 min 52 sec) 
Heartbeat CPU 0 instructions: 77000000 cycles: 103963819 heartbeat IPC: 0.343658 cumulative IPC: 0.360584 (Simulation time: 0 hr 43 min 31 sec) 
Heartbeat CPU 0 instructions: 78000001 cycles: 106874747 heartbeat IPC: 0.343533 cumulative IPC: 0.359946 (Simulation time: 0 hr 44 min 13 sec) 
Heartbeat CPU 0 instructions: 79000001 cycles: 109779787 heartbeat IPC: 0.344229 cumulative IPC: 0.35938 (Simulation time: 0 hr 44 min 53 sec) 
Heartbeat CPU 0 instructions: 80000000 cycles: 112660068 heartbeat IPC: 0.347188 cumulative IPC: 0.35896 (Simulation time: 0 hr 45 min 31 sec) 
Heartbeat CPU 0 instructions: 81000002 cycles: 115614788 heartbeat IPC: 0.338442 cumulative IPC: 0.358259 (Simulation time: 0 hr 46 min 11 sec) 
Heartbeat CPU 0 instructions: 82000001 cycles: 118482827 heartbeat IPC: 0.34867 cumulative IPC: 0.357952 (Simulation time: 0 hr 46 min 51 sec) 
Heartbeat CPU 0 instructions: 83000002 cycles: 121411390 heartbeat IPC: 0.341465 cumulative IPC: 0.357429 (Simulation time: 0 hr 47 min 30 sec) 
Heartbeat CPU 0 instructions: 84000000 cycles: 124374343 heartbeat IPC: 0.3375 cumulative IPC: 0.356809 (Simulation time: 0 hr 48 min 6 sec) 
Heartbeat CPU 0 instructions: 85000002 cycles: 127829612 heartbeat IPC: 0.289414 cumulative IPC: 0.354451 (Simulation time: 0 hr 48 min 45 sec) 
Heartbeat CPU 0 instructions: 86000002 cycles: 131276606 heartbeat IPC: 0.290108 cumulative IPC: 0.35228 (Simulation time: 0 hr 49 min 31 sec) 
Heartbeat CPU 0 instructions: 87000000 cycles: 134379367 heartbeat IPC: 0.322293 cumulative IPC: 0.351397 (Simulation time: 0 hr 50 min 13 sec) 
Heartbeat CPU 0 instructions: 88000000 cycles: 137483711 heartbeat IPC: 0.322129 cumulative IPC: 0.350559 (Simulation time: 0 hr 50 min 53 sec) 
Heartbeat CPU 0 instructions: 89000002 cycles: 140670808 heartbeat IPC: 0.313766 cumulative IPC: 0.349508 (Simulation time: 0 hr 51 min 33 sec) 
Heartbeat CPU 0 instructions: 90000001 cycles: 143525553 heartbeat IPC: 0.350294 cumulative IPC: 0.349527 (Simulation time: 0 hr 52 min 9 sec) 
Heartbeat CPU 0 instructions: 91000001 cycles: 146398923 heartbeat IPC: 0.348023 cumulative IPC: 0.349491 (Simulation time: 0 hr 52 min 40 sec) 
Heartbeat CPU 0 instructions: 92000000 cycles: 149365677 heartbeat IPC: 0.337068 cumulative IPC: 0.349184 (Simulation time: 0 hr 53 min 17 sec) 
Heartbeat CPU 0 instructions: 93000000 cycles: 152254218 heartbeat IPC: 0.346196 cumulative IPC: 0.349114 (Simulation time: 0 hr 53 min 51 sec) 
Heartbeat CPU 0 instructions: 94000000 cycles: 156960091 heartbeat IPC: 0.2125 cumulative IPC: 0.344087 (Simulation time: 0 hr 54 min 30 sec) 
Heartbeat CPU 0 instructions: 95000000 cycles: 158148572 heartbeat IPC: 0.84141 cumulative IPC: 0.348666 (Simulation time: 0 hr 55 min 2 sec) 
Heartbeat CPU 0 instructions: 96000000 cycles: 159291553 heartbeat IPC: 0.874905 cumulative IPC: 0.353286 (Simulation time: 0 hr 55 min 29 sec) 
Heartbeat CPU 0 instructions: 97000002 cycles: 160410257 heartbeat IPC: 0.893893 cumulative IPC: 0.357891 (Simulation time: 0 hr 55 min 58 sec) 
Heartbeat CPU 0 instructions: 98000001 cycles: 161552235 heartbeat IPC: 0.875673 cumulative IPC: 0.362355 (Simulation time: 0 hr 56 min 29 sec) 
Heartbeat CPU 0 instructions: 99000002 cycles: 163462702 heartbeat IPC: 0.523433 cumulative IPC: 0.364645 (Simulation time: 0 hr 57 min 1 sec) 
Heartbeat CPU 0 instructions: 100000000 cycles: 166993900 heartbeat IPC: 0.283189 cumulative IPC: 0.362559 (Simulation time: 0 hr 57 min 45 sec) 
Heartbeat CPU 0 instructions: 101000002 cycles: 170170856 heartbeat IPC: 0.314767 cumulative IPC: 0.361483 (Simulation time: 0 hr 58 min 21 sec) 
Heartbeat CPU 0 instructions: 102000001 cycles: 173263529 heartbeat IPC: 0.323345 cumulative IPC: 0.360665 (Simulation time: 0 hr 58 min 58 sec) 
Heartbeat CPU 0 instructions: 103000000 cycles: 176157087 heartbeat IPC: 0.345595 cumulative IPC: 0.360368 (Simulation time: 0 hr 59 min 32 sec) 
Heartbeat CPU 0 instructions: 104000000 cycles: 179039918 heartbeat IPC: 0.346881 cumulative IPC: 0.360109 (Simulation time: 1 hr 0 min 5 sec) 
Heartbeat CPU 0 instructions: 105000001 cycles: 181896708 heartbeat IPC: 0.350044 cumulative IPC: 0.359921 (Simulation time: 1 hr 0 min 38 sec) 
Heartbeat CPU 0 instructions: 106000000 cycles: 184865824 heartbeat IPC: 0.3368 cumulative IPC: 0.35948 (Simulation time: 1 hr 1 min 13 sec) 
Heartbeat CPU 0 instructions: 107000002 cycles: 187747961 heartbeat IPC: 0.346965 cumulative IPC: 0.359253 (Simulation time: 1 hr 1 min 48 sec) 
Heartbeat CPU 0 instructions: 108000000 cycles: 190642295 heartbeat IPC: 0.345502 cumulative IPC: 0.359006 (Simulation time: 1 hr 2 min 25 sec) 
Heartbeat CPU 0 instructions: 109000002 cycles: 193542420 heartbeat IPC: 0.344813 cumulative IPC: 0.358756 (Simulation time: 1 hr 3 min 1 sec) 
Heartbeat CPU 0 instructions: 110000001 cycles: 196473207 heartbeat IPC: 0.341205 cumulative IPC: 0.358449 (Simulation time: 1 hr 3 min 33 sec) 
Heartbeat CPU 0 instructions: 111000001 cycles: 199536262 heartbeat IPC: 0.326471 cumulative IPC: 0.357874 (Simulation time: 1 hr 4 min 9 sec) 
Heartbeat CPU 0 instructions: 112000000 cycles: 202948262 heartbeat IPC: 0.293083 cumulative IPC: 0.356603 (Simulation time: 1 hr 4 min 47 sec) 
Heartbeat CPU 0 instructions: 113000002 cycles: 206064940 heartbeat IPC: 0.320855 cumulative IPC: 0.355973 (Simulation time: 1 hr 5 min 21 sec) 
Heartbeat CPU 0 instructions: 114000001 cycles: 209482081 heartbeat IPC: 0.292642 cumulative IPC: 0.354774 (Simulation time: 1 hr 5 min 59 sec) 
Heartbeat CPU 0 instructions: 115000001 cycles: 212685217 heartbeat IPC: 0.312194 cumulative IPC: 0.354031 (Simulation time: 1 hr 6 min 37 sec) 
Heartbeat CPU 0 instructions: 116000000 cycles: 215656055 heartbeat IPC: 0.336605 cumulative IPC: 0.353753 (Simulation time: 1 hr 7 min 15 sec) 
Heartbeat CPU 0 instructions: 117000001 cycles: 218561736 heartbeat IPC: 0.344154 cumulative IPC: 0.353606 (Simulation time: 1 hr 7 min 47 sec) 
Heartbeat CPU 0 instructions: 118000000 cycles: 221549148 heartbeat IPC: 0.334738 cumulative IPC: 0.353313 (Simulation time: 1 hr 8 min 22 sec) 
Heartbeat CPU 0 instructions: 119000001 cycles: 224456912 heartbeat IPC: 0.343907 cumulative IPC: 0.353173 (Simulation time: 1 hr 9 min 0 sec) 
Heartbeat CPU 0 instructions: 120000000 cycles: 227378103 heartbeat IPC: 0.342326 cumulative IPC: 0.353013 (Simulation time: 1 hr 9 min 37 sec) 
Heartbeat CPU 0 instructions: 121000003 cycles: 230312727 heartbeat IPC: 0.34076 cumulative IPC: 0.352835 (Simulation time: 1 hr 10 min 15 sec) 
Heartbeat CPU 0 instructions: 122000000 cycles: 235020865 heartbeat IPC: 0.212398 cumulative IPC: 0.349624 (Simulation time: 1 hr 11 min 1 sec) 
Heartbeat CPU 0 instructions: 123000001 cycles: 236186354 heartbeat IPC: 0.85801 cumulative IPC: 0.352485 (Simulation time: 1 hr 11 min 29 sec) 
Heartbeat CPU 0 instructions: 124000000 cycles: 237308330 heartbeat IPC: 0.891284 cumulative IPC: 0.355388 (Simulation time: 1 hr 11 min 54 sec) 
Heartbeat CPU 0 instructions: 125000000 cycles: 238449969 heartbeat IPC: 0.875934 cumulative IPC: 0.358227 (Simulation time: 1 hr 12 min 20 sec) 
Heartbeat CPU 0 instructions: 126000001 cycles: 239679288 heartbeat IPC: 0.813459 cumulative IPC: 0.360884 (Simulation time: 1 hr 12 min 47 sec) 
Heartbeat CPU 0 instructions: 127000000 cycles: 241704478 heartbeat IPC: 0.49378 cumulative IPC: 0.36215 (Simulation time: 1 hr 13 min 15 sec) 
Heartbeat CPU 0 instructions: 128000000 cycles: 245203898 heartbeat IPC: 0.285762 cumulative IPC: 0.360913 (Simulation time: 1 hr 13 min 56 sec) 
Heartbeat CPU 0 instructions: 129000001 cycles: 248408676 heartbeat IPC: 0.312034 cumulative IPC: 0.360199 (Simulation time: 1 hr 14 min 28 sec) 
Heartbeat CPU 0 instructions: 130000000 cycles: 251313207 heartbeat IPC: 0.344289 cumulative IPC: 0.359991 (Simulation time: 1 hr 15 min 1 sec) 
Heartbeat CPU 0 instructions: 131000001 cycles: 254209384 heartbeat IPC: 0.345283 cumulative IPC: 0.359802 (Simulation time: 1 hr 15 min 34 sec) 
Heartbeat CPU 0 instructions: 132000000 cycles: 257155559 heartbeat IPC: 0.339423 cumulative IPC: 0.359538 (Simulation time: 1 hr 16 min 7 sec) 
Heartbeat CPU 0 instructions: 133000000 cycles: 260103162 heartbeat IPC: 0.339259 cumulative IPC: 0.35928 (Simulation time: 1 hr 16 min 40 sec) 
Heartbeat CPU 0 instructions: 134000000 cycles: 263033552 heartbeat IPC: 0.341251 cumulative IPC: 0.359054 (Simulation time: 1 hr 17 min 9 sec) 
Heartbeat CPU 0 instructions: 135000000 cycles: 265941659 heartbeat IPC: 0.343866 cumulative IPC: 0.358867 (Simulation time: 1 hr 17 min 39 sec) 
Heartbeat CPU 0 instructions: 136000000 cycles: 268854032 heartbeat IPC: 0.343363 cumulative IPC: 0.358679 (Simulation time: 1 hr 18 min 9 sec) 
Heartbeat CPU 0 instructions: 137000000 cycles: 271737607 heartbeat IPC: 0.346792 cumulative IPC: 0.358538 (Simulation time: 1 hr 18 min 34 sec) 
Heartbeat CPU 0 instructions: 138000001 cycles: 275062395 heartbeat IPC: 0.300771 cumulative IPC: 0.357757 (Simulation time: 1 hr 19 min 8 sec) 
Heartbeat CPU 0 instructions: 139000000 cycles: 277835269 heartbeat IPC: 0.360636 cumulative IPC: 0.357789 (Simulation time: 1 hr 19 min 37 sec) 
Heartbeat CPU 0 instructions: 140000000 cycles: 281301552 heartbeat IPC: 0.288493 cumulative IPC: 0.356837 (Simulation time: 1 hr 20 min 7 sec) 
Heartbeat CPU 0 instructions: 141000002 cycles: 284760463 heartbeat IPC: 0.289109 cumulative IPC: 0.35592 (Simulation time: 1 hr 20 min 35 sec) 
Heartbeat CPU 0 instructions: 142000001 cycles: 288122468 heartbeat IPC: 0.297441 cumulative IPC: 0.355161 (Simulation time: 1 hr 20 min 59 sec) 
Heartbeat CPU 0 instructions: 143000001 cycles: 291064433 heartbeat IPC: 0.339909 cumulative IPC: 0.35499 (Simulation time: 1 hr 21 min 25 sec) 
Heartbeat CPU 0 instructions: 144000000 cycles: 294048296 heartbeat IPC: 0.335136 cumulative IPC: 0.354767 (Simulation time: 1 hr 21 min 48 sec) 
Heartbeat CPU 0 instructions: 145000001 cycles: 296942093 heartbeat IPC: 0.345567 cumulative IPC: 0.354667 (Simulation time: 1 hr 22 min 12 sec) 
Heartbeat CPU 0 instructions: 146000000 cycles: 299884287 heartbeat IPC: 0.339882 cumulative IPC: 0.354506 (Simulation time: 1 hr 22 min 33 sec) 
Heartbeat CPU 0 instructions: 147000001 cycles: 302835929 heartbeat IPC: 0.338795 cumulative IPC: 0.354337 (Simulation time: 1 hr 22 min 58 sec) 
Heartbeat CPU 0 instructions: 148000000 cycles: 305778638 heartbeat IPC: 0.339823 cumulative IPC: 0.354183 (Simulation time: 1 hr 23 min 23 sec) 
Heartbeat CPU 0 instructions: 149000002 cycles: 308681611 heartbeat IPC: 0.344475 cumulative IPC: 0.354082 (Simulation time: 1 hr 23 min 50 sec) 
Heartbeat CPU 0 instructions: 150000001 cycles: 313386896 heartbeat IPC: 0.212527 cumulative IPC: 0.351739 (Simulation time: 1 hr 24 min 21 sec) 
Finished CPU 0 instructions: 100000000 cycles: 284301586 cummulative IPC: 0.351739 (Simulation time: 1 hr 24 min 21 sec) 

ChampSim completed all CPUs

Region of Interest Statistics

CPU 0 cummulative IPC: 0.351739 instructions: 100000000 cycles: 284301586
LLC TOTAL     ACCESS:    4941841  HIT:    2172402  MISS:    2769439
LLC LOAD      ACCESS:    2311824  HIT:    1799370  MISS:     512454
LLC RFO       ACCESS:      25013  HIT:       7408  MISS:      17605
LLC PREFETCH  ACCESS:    2523702  HIT:     294542  MISS:    2229160
LLC WRITEBACK ACCESS:      81302  HIT:      71082  MISS:      10220
OPTgen accesses: 53263
OPTgen hits: 51433
OPTgen hit rate: 96.5642


