
*** ChampSim Multicore Out-of-Order Simulator ***

Warmup Instructions: 50000000
Simulation Instructions: 100000000
Configuration: 2
Number of CPUs: 1
LLC sets: 2048
LLC ways: 16
Off-chip DRAM Channels: 1 Width: 64-bit Data Rate: 1600 MT/s

CPU 0 runs /datasets/cs240c-wi22-a00-public/data/Assignment2-gz/cactusADM_1495B.trace.gz
CPU 0 L1D next line prefetcher
CPU 0 L2C IP-based stride prefetcher
Initialize Hawkeye state
Heartbeat CPU 0 instructions: 1000003 cycles: 593383 heartbeat IPC: 1.68526 cumulative IPC: 1.68526 (Simulation time: 0 hr 0 min 47 sec) 
Heartbeat CPU 0 instructions: 2000000 cycles: 1186345 heartbeat IPC: 1.68644 cumulative IPC: 1.68585 (Simulation time: 0 hr 1 min 33 sec) 
Heartbeat CPU 0 instructions: 3000003 cycles: 1779703 heartbeat IPC: 1.68533 cumulative IPC: 1.68568 (Simulation time: 0 hr 2 min 11 sec) 
Heartbeat CPU 0 instructions: 4000000 cycles: 2372522 heartbeat IPC: 1.68685 cumulative IPC: 1.68597 (Simulation time: 0 hr 2 min 50 sec) 
Heartbeat CPU 0 instructions: 5000000 cycles: 2965579 heartbeat IPC: 1.68618 cumulative IPC: 1.68601 (Simulation time: 0 hr 3 min 31 sec) 
Heartbeat CPU 0 instructions: 6000001 cycles: 3558796 heartbeat IPC: 1.68573 cumulative IPC: 1.68596 (Simulation time: 0 hr 4 min 11 sec) 
Heartbeat CPU 0 instructions: 7000000 cycles: 4151738 heartbeat IPC: 1.6865 cumulative IPC: 1.68604 (Simulation time: 0 hr 4 min 55 sec) 
Heartbeat CPU 0 instructions: 8000000 cycles: 4906753 heartbeat IPC: 1.32448 cumulative IPC: 1.63041 (Simulation time: 0 hr 5 min 46 sec) 
Heartbeat CPU 0 instructions: 9000002 cycles: 5499948 heartbeat IPC: 1.68579 cumulative IPC: 1.63638 (Simulation time: 0 hr 6 min 31 sec) 
Heartbeat CPU 0 instructions: 10000002 cycles: 6092872 heartbeat IPC: 1.68656 cumulative IPC: 1.64126 (Simulation time: 0 hr 7 min 12 sec) 
Heartbeat CPU 0 instructions: 11000001 cycles: 6686000 heartbeat IPC: 1.68598 cumulative IPC: 1.64523 (Simulation time: 0 hr 7 min 53 sec) 
Heartbeat CPU 0 instructions: 12000000 cycles: 7279157 heartbeat IPC: 1.68589 cumulative IPC: 1.64854 (Simulation time: 0 hr 8 min 30 sec) 
Heartbeat CPU 0 instructions: 13000001 cycles: 7872063 heartbeat IPC: 1.68661 cumulative IPC: 1.65141 (Simulation time: 0 hr 9 min 8 sec) 
Heartbeat CPU 0 instructions: 14000003 cycles: 8465330 heartbeat IPC: 1.68559 cumulative IPC: 1.6538 (Simulation time: 0 hr 9 min 51 sec) 
Heartbeat CPU 0 instructions: 15000001 cycles: 9058420 heartbeat IPC: 1.68608 cumulative IPC: 1.65592 (Simulation time: 0 hr 10 min 33 sec) 
Heartbeat CPU 0 instructions: 16000000 cycles: 9651689 heartbeat IPC: 1.68557 cumulative IPC: 1.65774 (Simulation time: 0 hr 11 min 16 sec) 
Heartbeat CPU 0 instructions: 17000002 cycles: 10244675 heartbeat IPC: 1.68638 cumulative IPC: 1.6594 (Simulation time: 0 hr 11 min 57 sec) 
Heartbeat CPU 0 instructions: 18000000 cycles: 10837658 heartbeat IPC: 1.68639 cumulative IPC: 1.66088 (Simulation time: 0 hr 12 min 37 sec) 
Heartbeat CPU 0 instructions: 19000002 cycles: 11430670 heartbeat IPC: 1.68631 cumulative IPC: 1.66219 (Simulation time: 0 hr 13 min 15 sec) 
Heartbeat CPU 0 instructions: 20000000 cycles: 12024037 heartbeat IPC: 1.68529 cumulative IPC: 1.66333 (Simulation time: 0 hr 14 min 1 sec) 
Heartbeat CPU 0 instructions: 21000002 cycles: 12765397 heartbeat IPC: 1.34888 cumulative IPC: 1.64507 (Simulation time: 0 hr 14 min 45 sec) 
Heartbeat CPU 0 instructions: 22000003 cycles: 13370379 heartbeat IPC: 1.65294 cumulative IPC: 1.64543 (Simulation time: 0 hr 15 min 27 sec) 
Heartbeat CPU 0 instructions: 23000000 cycles: 13963070 heartbeat IPC: 1.68721 cumulative IPC: 1.6472 (Simulation time: 0 hr 16 min 13 sec) 
Heartbeat CPU 0 instructions: 24000000 cycles: 14556759 heartbeat IPC: 1.68438 cumulative IPC: 1.64872 (Simulation time: 0 hr 16 min 55 sec) 
Heartbeat CPU 0 instructions: 25000002 cycles: 15149905 heartbeat IPC: 1.68593 cumulative IPC: 1.65018 (Simulation time: 0 hr 17 min 35 sec) 
Heartbeat CPU 0 instructions: 26000003 cycles: 15742474 heartbeat IPC: 1.68757 cumulative IPC: 1.65158 (Simulation time: 0 hr 18 min 18 sec) 
Heartbeat CPU 0 instructions: 27000001 cycles: 16335564 heartbeat IPC: 1.68608 cumulative IPC: 1.65284 (Simulation time: 0 hr 19 min 6 sec) 
Heartbeat CPU 0 instructions: 28000000 cycles: 16928654 heartbeat IPC: 1.68608 cumulative IPC: 1.654 (Simulation time: 0 hr 19 min 51 sec) 
Heartbeat CPU 0 instructions: 29000002 cycles: 17521813 heartbeat IPC: 1.68589 cumulative IPC: 1.65508 (Simulation time: 0 hr 20 min 36 sec) 
Heartbeat CPU 0 instructions: 30000002 cycles: 18114917 heartbeat IPC: 1.68604 cumulative IPC: 1.65609 (Simulation time: 0 hr 21 min 22 sec) 
Heartbeat CPU 0 instructions: 31000002 cycles: 18708186 heartbeat IPC: 1.68558 cumulative IPC: 1.65703 (Simulation time: 0 hr 22 min 12 sec) 
Heartbeat CPU 0 instructions: 32000000 cycles: 19301557 heartbeat IPC: 1.68528 cumulative IPC: 1.6579 (Simulation time: 0 hr 22 min 59 sec) 
Heartbeat CPU 0 instructions: 33000001 cycles: 19894281 heartbeat IPC: 1.68713 cumulative IPC: 1.65877 (Simulation time: 0 hr 23 min 44 sec) 
Heartbeat CPU 0 instructions: 34000002 cycles: 20606286 heartbeat IPC: 1.40449 cumulative IPC: 1.64998 (Simulation time: 0 hr 24 min 40 sec) 
Heartbeat CPU 0 instructions: 35000001 cycles: 21242243 heartbeat IPC: 1.57243 cumulative IPC: 1.64766 (Simulation time: 0 hr 25 min 32 sec) 
Heartbeat CPU 0 instructions: 36000000 cycles: 21835313 heartbeat IPC: 1.68614 cumulative IPC: 1.64871 (Simulation time: 0 hr 26 min 20 sec) 
Heartbeat CPU 0 instructions: 37000000 cycles: 22428120 heartbeat IPC: 1.68689 cumulative IPC: 1.64971 (Simulation time: 0 hr 27 min 10 sec) 
Heartbeat CPU 0 instructions: 38000003 cycles: 23021071 heartbeat IPC: 1.68649 cumulative IPC: 1.65066 (Simulation time: 0 hr 27 min 59 sec) 
Heartbeat CPU 0 instructions: 39000002 cycles: 23614382 heartbeat IPC: 1.68545 cumulative IPC: 1.65154 (Simulation time: 0 hr 28 min 43 sec) 
Heartbeat CPU 0 instructions: 40000000 cycles: 24207280 heartbeat IPC: 1.68663 cumulative IPC: 1.6524 (Simulation time: 0 hr 29 min 30 sec) 
Heartbeat CPU 0 instructions: 41000002 cycles: 24800180 heartbeat IPC: 1.68663 cumulative IPC: 1.65321 (Simulation time: 0 hr 30 min 22 sec) 
Heartbeat CPU 0 instructions: 42000000 cycles: 25393101 heartbeat IPC: 1.68656 cumulative IPC: 1.65399 (Simulation time: 0 hr 31 min 10 sec) 
Heartbeat CPU 0 instructions: 43000000 cycles: 25986098 heartbeat IPC: 1.68635 cumulative IPC: 1.65473 (Simulation time: 0 hr 31 min 59 sec) 
Heartbeat CPU 0 instructions: 44000000 cycles: 26578942 heartbeat IPC: 1.68678 cumulative IPC: 1.65545 (Simulation time: 0 hr 32 min 45 sec) 
Heartbeat CPU 0 instructions: 45000003 cycles: 27171926 heartbeat IPC: 1.68639 cumulative IPC: 1.65612 (Simulation time: 0 hr 33 min 29 sec) 
Heartbeat CPU 0 instructions: 46000001 cycles: 27765054 heartbeat IPC: 1.68597 cumulative IPC: 1.65676 (Simulation time: 0 hr 34 min 5 sec) 
Heartbeat CPU 0 instructions: 47000001 cycles: 28445132 heartbeat IPC: 1.47042 cumulative IPC: 1.6523 (Simulation time: 0 hr 34 min 50 sec) 
Heartbeat CPU 0 instructions: 48000000 cycles: 29112077 heartbeat IPC: 1.49937 cumulative IPC: 1.6488 (Simulation time: 0 hr 35 min 34 sec) 
Heartbeat CPU 0 instructions: 49000001 cycles: 29705027 heartbeat IPC: 1.68648 cumulative IPC: 1.64955 (Simulation time: 0 hr 36 min 10 sec) 
Heartbeat CPU 0 instructions: 50000003 cycles: 30297945 heartbeat IPC: 1.68658 cumulative IPC: 1.65028 (Simulation time: 0 hr 36 min 48 sec) 

Warmup complete CPU 0 instructions: 50000003 cycles: 30297945 (Simulation time: 0 hr 36 min 48 sec) 

Heartbeat CPU 0 instructions: 51000000 cycles: 31985414 heartbeat IPC: 0.592602 cumulative IPC: 0.592602 (Simulation time: 0 hr 37 min 34 sec) 
Heartbeat CPU 0 instructions: 52000000 cycles: 33666148 heartbeat IPC: 0.594978 cumulative IPC: 0.593788 (Simulation time: 0 hr 38 min 18 sec) 
Heartbeat CPU 0 instructions: 53000003 cycles: 35404659 heartbeat IPC: 0.575207 cumulative IPC: 0.587462 (Simulation time: 0 hr 39 min 2 sec) 
Heartbeat CPU 0 instructions: 54000001 cycles: 37144048 heartbeat IPC: 0.574913 cumulative IPC: 0.584274 (Simulation time: 0 hr 39 min 48 sec) 
Heartbeat CPU 0 instructions: 55000000 cycles: 38880643 heartbeat IPC: 0.575839 cumulative IPC: 0.582567 (Simulation time: 0 hr 40 min 30 sec) 
Heartbeat CPU 0 instructions: 56000000 cycles: 40539662 heartbeat IPC: 0.602766 cumulative IPC: 0.585839 (Simulation time: 0 hr 41 min 13 sec) 
Heartbeat CPU 0 instructions: 57000000 cycles: 42253014 heartbeat IPC: 0.583651 cumulative IPC: 0.585525 (Simulation time: 0 hr 41 min 52 sec) 
Heartbeat CPU 0 instructions: 58000002 cycles: 43993551 heartbeat IPC: 0.574537 cumulative IPC: 0.584129 (Simulation time: 0 hr 42 min 34 sec) 
Heartbeat CPU 0 instructions: 59000001 cycles: 45736090 heartbeat IPC: 0.573875 cumulative IPC: 0.582971 (Simulation time: 0 hr 43 min 18 sec) 
Heartbeat CPU 0 instructions: 60000000 cycles: 49096827 heartbeat IPC: 0.297553 cumulative IPC: 0.531946 (Simulation time: 0 hr 43 min 59 sec) 
Heartbeat CPU 0 instructions: 61000001 cycles: 54055248 heartbeat IPC: 0.201677 cumulative IPC: 0.463015 (Simulation time: 0 hr 44 min 44 sec) 
Heartbeat CPU 0 instructions: 62000000 cycles: 55791295 heartbeat IPC: 0.576021 cumulative IPC: 0.470711 (Simulation time: 0 hr 45 min 28 sec) 
Heartbeat CPU 0 instructions: 63000000 cycles: 57532207 heartbeat IPC: 0.574412 cumulative IPC: 0.47734 (Simulation time: 0 hr 46 min 14 sec) 
Heartbeat CPU 0 instructions: 64000000 cycles: 59266673 heartbeat IPC: 0.576546 cumulative IPC: 0.48328 (Simulation time: 0 hr 46 min 59 sec) 
Heartbeat CPU 0 instructions: 65000002 cycles: 60927745 heartbeat IPC: 0.602022 cumulative IPC: 0.489719 (Simulation time: 0 hr 47 min 44 sec) 
Heartbeat CPU 0 instructions: 66000003 cycles: 62633782 heartbeat IPC: 0.586154 cumulative IPC: 0.494807 (Simulation time: 0 hr 48 min 24 sec) 
Heartbeat CPU 0 instructions: 67000001 cycles: 64373873 heartbeat IPC: 0.574681 cumulative IPC: 0.498886 (Simulation time: 0 hr 49 min 4 sec) 
Heartbeat CPU 0 instructions: 68000000 cycles: 66114675 heartbeat IPC: 0.574447 cumulative IPC: 0.502558 (Simulation time: 0 hr 49 min 45 sec) 
Heartbeat CPU 0 instructions: 69000003 cycles: 67832479 heartbeat IPC: 0.58214 cumulative IPC: 0.5062 (Simulation time: 0 hr 50 min 27 sec) 
Heartbeat CPU 0 instructions: 70000000 cycles: 69486638 heartbeat IPC: 0.604535 cumulative IPC: 0.510351 (Simulation time: 0 hr 51 min 10 sec) 
Heartbeat CPU 0 instructions: 71000002 cycles: 71216677 heartbeat IPC: 0.578023 cumulative IPC: 0.513212 (Simulation time: 0 hr 51 min 50 sec) 
Heartbeat CPU 0 instructions: 72000000 cycles: 72957552 heartbeat IPC: 0.574423 cumulative IPC: 0.51571 (Simulation time: 0 hr 52 min 31 sec) 
Heartbeat CPU 0 instructions: 73000001 cycles: 75427503 heartbeat IPC: 0.404867 cumulative IPC: 0.509644 (Simulation time: 0 hr 53 min 14 sec) 
Heartbeat CPU 0 instructions: 74000002 cycles: 81341734 heartbeat IPC: 0.169084 cumulative IPC: 0.470185 (Simulation time: 0 hr 54 min 3 sec) 
Heartbeat CPU 0 instructions: 75000002 cycles: 83040837 heartbeat IPC: 0.588546 cumulative IPC: 0.473998 (Simulation time: 0 hr 54 min 44 sec) 
Heartbeat CPU 0 instructions: 76000000 cycles: 84780062 heartbeat IPC: 0.574968 cumulative IPC: 0.477221 (Simulation time: 0 hr 55 min 23 sec) 
Heartbeat CPU 0 instructions: 77000001 cycles: 86519365 heartbeat IPC: 0.574944 cumulative IPC: 0.480244 (Simulation time: 0 hr 56 min 3 sec) 
Heartbeat CPU 0 instructions: 78000000 cycles: 88242466 heartbeat IPC: 0.580348 cumulative IPC: 0.483221 (Simulation time: 0 hr 56 min 48 sec) 
Heartbeat CPU 0 instructions: 79000003 cycles: 89890556 heartbeat IPC: 0.606765 cumulative IPC: 0.486638 (Simulation time: 0 hr 57 min 28 sec) 
Heartbeat CPU 0 instructions: 80000000 cycles: 91621702 heartbeat IPC: 0.57765 cumulative IPC: 0.489207 (Simulation time: 0 hr 58 min 10 sec) 
Heartbeat CPU 0 instructions: 81000002 cycles: 93362938 heartbeat IPC: 0.574306 cumulative IPC: 0.491556 (Simulation time: 0 hr 58 min 51 sec) 
Heartbeat CPU 0 instructions: 82000000 cycles: 95104038 heartbeat IPC: 0.574348 cumulative IPC: 0.493781 (Simulation time: 0 hr 59 min 34 sec) 
Heartbeat CPU 0 instructions: 83000000 cycles: 96792740 heartbeat IPC: 0.592171 cumulative IPC: 0.496279 (Simulation time: 1 hr 0 min 16 sec) 
Heartbeat CPU 0 instructions: 84000000 cycles: 98469097 heartbeat IPC: 0.596532 cumulative IPC: 0.498745 (Simulation time: 1 hr 0 min 57 sec) 
Heartbeat CPU 0 instructions: 85000003 cycles: 100231904 heartbeat IPC: 0.567279 cumulative IPC: 0.500472 (Simulation time: 1 hr 1 min 38 sec) 
Heartbeat CPU 0 instructions: 86000000 cycles: 101973453 heartbeat IPC: 0.5742 cumulative IPC: 0.502264 (Simulation time: 1 hr 2 min 20 sec) 
Heartbeat CPU 0 instructions: 87000001 cycles: 108706039 heartbeat IPC: 0.148531 cumulative IPC: 0.47189 (Simulation time: 1 hr 3 min 12 sec) 
Heartbeat CPU 0 instructions: 88000000 cycles: 110352616 heartbeat IPC: 0.60732 cumulative IPC: 0.474676 (Simulation time: 1 hr 3 min 52 sec) 
Heartbeat CPU 0 instructions: 89000002 cycles: 112081069 heartbeat IPC: 0.578553 cumulative IPC: 0.476871 (Simulation time: 1 hr 4 min 35 sec) 
Heartbeat CPU 0 instructions: 90000001 cycles: 113847557 heartbeat IPC: 0.566094 cumulative IPC: 0.478757 (Simulation time: 1 hr 5 min 17 sec) 
Heartbeat CPU 0 instructions: 91000002 cycles: 115586900 heartbeat IPC: 0.57493 cumulative IPC: 0.480719 (Simulation time: 1 hr 5 min 59 sec) 
Heartbeat CPU 0 instructions: 92000000 cycles: 117282774 heartbeat IPC: 0.589665 cumulative IPC: 0.482843 (Simulation time: 1 hr 6 min 42 sec) 
Heartbeat CPU 0 instructions: 93000002 cycles: 118954068 heartbeat IPC: 0.59834 cumulative IPC: 0.48502 (Simulation time: 1 hr 7 min 23 sec) 
Heartbeat CPU 0 instructions: 94000002 cycles: 120690125 heartbeat IPC: 0.576018 cumulative IPC: 0.486768 (Simulation time: 1 hr 8 min 5 sec) 
Heartbeat CPU 0 instructions: 95000003 cycles: 122432629 heartbeat IPC: 0.573887 cumulative IPC: 0.488415 (Simulation time: 1 hr 8 min 45 sec) 
Heartbeat CPU 0 instructions: 96000000 cycles: 124168539 heartbeat IPC: 0.576065 cumulative IPC: 0.490036 (Simulation time: 1 hr 9 min 26 sec) 
Heartbeat CPU 0 instructions: 97000003 cycles: 125833037 heartbeat IPC: 0.600784 cumulative IPC: 0.491966 (Simulation time: 1 hr 10 min 8 sec) 
Heartbeat CPU 0 instructions: 98000003 cycles: 127536247 heartbeat IPC: 0.587127 cumulative IPC: 0.493633 (Simulation time: 1 hr 10 min 48 sec) 
Heartbeat CPU 0 instructions: 99000000 cycles: 129276568 heartbeat IPC: 0.574605 cumulative IPC: 0.495056 (Simulation time: 1 hr 11 min 29 sec) 
Heartbeat CPU 0 instructions: 100000000 cycles: 136019131 heartbeat IPC: 0.148312 cumulative IPC: 0.472942 (Simulation time: 1 hr 12 min 16 sec) 
Heartbeat CPU 0 instructions: 101000000 cycles: 137719355 heartbeat IPC: 0.588158 cumulative IPC: 0.474766 (Simulation time: 1 hr 12 min 53 sec) 
Heartbeat CPU 0 instructions: 102000003 cycles: 139388040 heartbeat IPC: 0.599276 cumulative IPC: 0.47667 (Simulation time: 1 hr 13 min 31 sec) 
Heartbeat CPU 0 instructions: 103000000 cycles: 141122759 heartbeat IPC: 0.57646 cumulative IPC: 0.478232 (Simulation time: 1 hr 14 min 7 sec) 
Heartbeat CPU 0 instructions: 104000000 cycles: 142863187 heartbeat IPC: 0.574571 cumulative IPC: 0.479722 (Simulation time: 1 hr 14 min 44 sec) 
Heartbeat CPU 0 instructions: 105000001 cycles: 144599268 heartbeat IPC: 0.576011 cumulative IPC: 0.481184 (Simulation time: 1 hr 15 min 22 sec) 
Heartbeat CPU 0 instructions: 106000000 cycles: 146268968 heartbeat IPC: 0.598909 cumulative IPC: 0.482879 (Simulation time: 1 hr 15 min 58 sec) 
Heartbeat CPU 0 instructions: 107000001 cycles: 147966742 heartbeat IPC: 0.589007 cumulative IPC: 0.48441 (Simulation time: 1 hr 16 min 32 sec) 
Heartbeat CPU 0 instructions: 108000000 cycles: 149706924 heartbeat IPC: 0.574652 cumulative IPC: 0.485726 (Simulation time: 1 hr 17 min 7 sec) 
Heartbeat CPU 0 instructions: 109000002 cycles: 151446946 heartbeat IPC: 0.574707 cumulative IPC: 0.487004 (Simulation time: 1 hr 17 min 41 sec) 
Heartbeat CPU 0 instructions: 110000001 cycles: 153174041 heartbeat IPC: 0.579006 cumulative IPC: 0.488297 (Simulation time: 1 hr 18 min 14 sec) 
Heartbeat CPU 0 instructions: 111000003 cycles: 154823422 heartbeat IPC: 0.606289 cumulative IPC: 0.48986 (Simulation time: 1 hr 18 min 45 sec) 
Heartbeat CPU 0 instructions: 112000000 cycles: 156552990 heartbeat IPC: 0.578177 cumulative IPC: 0.491069 (Simulation time: 1 hr 19 min 19 sec) 
Heartbeat CPU 0 instructions: 113000001 cycles: 163240316 heartbeat IPC: 0.149537 cumulative IPC: 0.47389 (Simulation time: 1 hr 19 min 57 sec) 
Heartbeat CPU 0 instructions: 114000003 cycles: 164977725 heartbeat IPC: 0.575571 cumulative IPC: 0.475201 (Simulation time: 1 hr 20 min 28 sec) 
Heartbeat CPU 0 instructions: 115000003 cycles: 166653055 heartbeat IPC: 0.596897 cumulative IPC: 0.476696 (Simulation time: 1 hr 20 min 58 sec) 
Heartbeat CPU 0 instructions: 116000000 cycles: 168347395 heartbeat IPC: 0.590199 cumulative IPC: 0.47809 (Simulation time: 1 hr 21 min 27 sec) 
Heartbeat CPU 0 instructions: 117000002 cycles: 170087490 heartbeat IPC: 0.574682 cumulative IPC: 0.479292 (Simulation time: 1 hr 21 min 54 sec) 
Heartbeat CPU 0 instructions: 118000001 cycles: 171829144 heartbeat IPC: 0.574166 cumulative IPC: 0.480459 (Simulation time: 1 hr 22 min 23 sec) 
Heartbeat CPU 0 instructions: 119000000 cycles: 173557365 heartbeat IPC: 0.578629 cumulative IPC: 0.481644 (Simulation time: 1 hr 22 min 50 sec) 
Heartbeat CPU 0 instructions: 120000000 cycles: 175206126 heartbeat IPC: 0.606516 cumulative IPC: 0.483065 (Simulation time: 1 hr 23 min 16 sec) 
Heartbeat CPU 0 instructions: 121000003 cycles: 176934101 heartbeat IPC: 0.578714 cumulative IPC: 0.484192 (Simulation time: 1 hr 23 min 44 sec) 
Heartbeat CPU 0 instructions: 122000003 cycles: 178675873 heartbeat IPC: 0.574128 cumulative IPC: 0.485247 (Simulation time: 1 hr 24 min 12 sec) 
Heartbeat CPU 0 instructions: 123000001 cycles: 180416921 heartbeat IPC: 0.574366 cumulative IPC: 0.486281 (Simulation time: 1 hr 24 min 40 sec) 
Heartbeat CPU 0 instructions: 124000000 cycles: 182117304 heartbeat IPC: 0.588102 cumulative IPC: 0.487421 (Simulation time: 1 hr 25 min 4 sec) 
Heartbeat CPU 0 instructions: 125000000 cycles: 183789606 heartbeat IPC: 0.597978 cumulative IPC: 0.488626 (Simulation time: 1 hr 25 min 31 sec) 
Heartbeat CPU 0 instructions: 126000002 cycles: 190237680 heartbeat IPC: 0.155085 cumulative IPC: 0.475179 (Simulation time: 1 hr 26 min 1 sec) 
Heartbeat CPU 0 instructions: 127000002 cycles: 192229420 heartbeat IPC: 0.502074 cumulative IPC: 0.47551 (Simulation time: 1 hr 26 min 27 sec) 
Heartbeat CPU 0 instructions: 128000000 cycles: 193959103 heartbeat IPC: 0.578139 cumulative IPC: 0.476594 (Simulation time: 1 hr 26 min 52 sec) 
Heartbeat CPU 0 instructions: 129000001 cycles: 195610654 heartbeat IPC: 0.605492 cumulative IPC: 0.477882 (Simulation time: 1 hr 27 min 16 sec) 
Heartbeat CPU 0 instructions: 130000001 cycles: 197332003 heartbeat IPC: 0.58094 cumulative IPC: 0.478944 (Simulation time: 1 hr 27 min 40 sec) 
Heartbeat CPU 0 instructions: 131000002 cycles: 199071766 heartbeat IPC: 0.574791 cumulative IPC: 0.479932 (Simulation time: 1 hr 28 min 4 sec) 
Heartbeat CPU 0 instructions: 132000000 cycles: 200811068 heartbeat IPC: 0.574942 cumulative IPC: 0.480901 (Simulation time: 1 hr 28 min 27 sec) 
Heartbeat CPU 0 instructions: 133000002 cycles: 202512405 heartbeat IPC: 0.587774 cumulative IPC: 0.481957 (Simulation time: 1 hr 28 min 49 sec) 
Heartbeat CPU 0 instructions: 134000000 cycles: 204176976 heartbeat IPC: 0.600754 cumulative IPC: 0.483094 (Simulation time: 1 hr 29 min 12 sec) 
Heartbeat CPU 0 instructions: 135000003 cycles: 205912126 heartbeat IPC: 0.576321 cumulative IPC: 0.484016 (Simulation time: 1 hr 29 min 34 sec) 
Heartbeat CPU 0 instructions: 136000000 cycles: 207649997 heartbeat IPC: 0.575415 cumulative IPC: 0.484911 (Simulation time: 1 hr 29 min 56 sec) 
Heartbeat CPU 0 instructions: 137000003 cycles: 209388019 heartbeat IPC: 0.575368 cumulative IPC: 0.485789 (Simulation time: 1 hr 30 min 18 sec) 
Heartbeat CPU 0 instructions: 138000003 cycles: 211061020 heartbeat IPC: 0.597728 cumulative IPC: 0.486825 (Simulation time: 1 hr 30 min 41 sec) 
Heartbeat CPU 0 instructions: 139000000 cycles: 216464968 heartbeat IPC: 0.185049 cumulative IPC: 0.478065 (Simulation time: 1 hr 31 min 4 sec) 
Heartbeat CPU 0 instructions: 140000000 cycles: 219430768 heartbeat IPC: 0.337177 cumulative IPC: 0.475856 (Simulation time: 1 hr 31 min 27 sec) 
Heartbeat CPU 0 instructions: 141000001 cycles: 221167978 heartbeat IPC: 0.575636 cumulative IPC: 0.476764 (Simulation time: 1 hr 31 min 46 sec) 
Heartbeat CPU 0 instructions: 142000000 cycles: 222874584 heartbeat IPC: 0.585958 cumulative IPC: 0.477732 (Simulation time: 1 hr 32 min 3 sec) 
Heartbeat CPU 0 instructions: 143000003 cycles: 224535433 heartbeat IPC: 0.602104 cumulative IPC: 0.478795 (Simulation time: 1 hr 32 min 20 sec) 
Heartbeat CPU 0 instructions: 144000000 cycles: 226267272 heartbeat IPC: 0.577419 cumulative IPC: 0.479667 (Simulation time: 1 hr 32 min 36 sec) 
Heartbeat CPU 0 instructions: 145000002 cycles: 228021463 heartbeat IPC: 0.570064 cumulative IPC: 0.480469 (Simulation time: 1 hr 32 min 53 sec) 
Heartbeat CPU 0 instructions: 146000001 cycles: 229757952 heartbeat IPC: 0.575874 cumulative IPC: 0.481299 (Simulation time: 1 hr 33 min 10 sec) 
Heartbeat CPU 0 instructions: 147000000 cycles: 231432258 heartbeat IPC: 0.597262 cumulative IPC: 0.482265 (Simulation time: 1 hr 33 min 26 sec) 
Heartbeat CPU 0 instructions: 148000000 cycles: 233120213 heartbeat IPC: 0.592433 cumulative IPC: 0.483182 (Simulation time: 1 hr 33 min 41 sec) 
Heartbeat CPU 0 instructions: 149000000 cycles: 234874439 heartbeat IPC: 0.570052 cumulative IPC: 0.483927 (Simulation time: 1 hr 33 min 55 sec) 
Heartbeat CPU 0 instructions: 150000002 cycles: 236633017 heartbeat IPC: 0.568642 cumulative IPC: 0.484649 (Simulation time: 1 hr 34 min 8 sec) 
Finished CPU 0 instructions: 100000003 cycles: 206335073 cummulative IPC: 0.484649 (Simulation time: 1 hr 34 min 8 sec) 

ChampSim completed all CPUs

Region of Interest Statistics

CPU 0 cummulative IPC: 0.484649 instructions: 100000003 cycles: 206335073
LLC TOTAL     ACCESS:    1106943  HIT:     319699  MISS:     787244
LLC LOAD      ACCESS:      21669  HIT:       3003  MISS:      18666
LLC RFO       ACCESS:     245174  HIT:      87330  MISS:     157844
LLC PREFETCH  ACCESS:     594538  HIT:     118369  MISS:     476169
LLC WRITEBACK ACCESS:     245562  HIT:     110997  MISS:     134565
OPTgen accesses: 6529
OPTgen hits: 2346
OPTgen hit rate: 35.932


