
*** ChampSim Multicore Out-of-Order Simulator ***

Warmup Instructions: 50000000
Simulation Instructions: 100000000
Configuration: 2
Number of CPUs: 1
LLC sets: 2048
LLC ways: 16
Off-chip DRAM Channels: 1 Width: 64-bit Data Rate: 1600 MT/s

CPU 0 runs /datasets/cs240c-wi22-a00-public/data/Assignment2-gz/perlbench_135B.trace.gz
CPU 0 L1D next line prefetcher
CPU 0 L2C IP-based stride prefetcher
Initialize Hawkeye state
Heartbeat CPU 0 instructions: 1000000 cycles: 600033 heartbeat IPC: 1.66657 cumulative IPC: 1.66657 (Simulation time: 0 hr 0 min 44 sec) 
Heartbeat CPU 0 instructions: 2000000 cycles: 1209301 heartbeat IPC: 1.64131 cumulative IPC: 1.65385 (Simulation time: 0 hr 1 min 22 sec) 
Heartbeat CPU 0 instructions: 3000000 cycles: 1832834 heartbeat IPC: 1.60376 cumulative IPC: 1.63681 (Simulation time: 0 hr 2 min 2 sec) 
Heartbeat CPU 0 instructions: 4000000 cycles: 2492639 heartbeat IPC: 1.5156 cumulative IPC: 1.60473 (Simulation time: 0 hr 2 min 42 sec) 
Heartbeat CPU 0 instructions: 5000001 cycles: 3079302 heartbeat IPC: 1.70456 cumulative IPC: 1.62374 (Simulation time: 0 hr 3 min 24 sec) 
Heartbeat CPU 0 instructions: 6000002 cycles: 3681731 heartbeat IPC: 1.65995 cumulative IPC: 1.62967 (Simulation time: 0 hr 4 min 7 sec) 
Heartbeat CPU 0 instructions: 7000001 cycles: 4282509 heartbeat IPC: 1.66451 cumulative IPC: 1.63456 (Simulation time: 0 hr 4 min 49 sec) 
Heartbeat CPU 0 instructions: 8000000 cycles: 4893000 heartbeat IPC: 1.63802 cumulative IPC: 1.63499 (Simulation time: 0 hr 5 min 30 sec) 
Heartbeat CPU 0 instructions: 9000001 cycles: 5534129 heartbeat IPC: 1.55975 cumulative IPC: 1.62627 (Simulation time: 0 hr 6 min 8 sec) 
Heartbeat CPU 0 instructions: 10000000 cycles: 6192840 heartbeat IPC: 1.51811 cumulative IPC: 1.61477 (Simulation time: 0 hr 6 min 48 sec) 
Heartbeat CPU 0 instructions: 11000003 cycles: 6888953 heartbeat IPC: 1.43655 cumulative IPC: 1.59676 (Simulation time: 0 hr 7 min 27 sec) 
Heartbeat CPU 0 instructions: 12000000 cycles: 7505167 heartbeat IPC: 1.62281 cumulative IPC: 1.5989 (Simulation time: 0 hr 8 min 8 sec) 
Heartbeat CPU 0 instructions: 13000000 cycles: 8134120 heartbeat IPC: 1.58994 cumulative IPC: 1.59821 (Simulation time: 0 hr 8 min 49 sec) 
Heartbeat CPU 0 instructions: 14000002 cycles: 8774602 heartbeat IPC: 1.56133 cumulative IPC: 1.59551 (Simulation time: 0 hr 9 min 31 sec) 
Heartbeat CPU 0 instructions: 15000003 cycles: 9413476 heartbeat IPC: 1.56526 cumulative IPC: 1.59346 (Simulation time: 0 hr 10 min 9 sec) 
Heartbeat CPU 0 instructions: 16000000 cycles: 10053312 heartbeat IPC: 1.5629 cumulative IPC: 1.59152 (Simulation time: 0 hr 10 min 52 sec) 
Heartbeat CPU 0 instructions: 17000000 cycles: 10694468 heartbeat IPC: 1.55968 cumulative IPC: 1.58961 (Simulation time: 0 hr 11 min 34 sec) 
Heartbeat CPU 0 instructions: 18000000 cycles: 11335137 heartbeat IPC: 1.56087 cumulative IPC: 1.58798 (Simulation time: 0 hr 12 min 14 sec) 
Heartbeat CPU 0 instructions: 19000003 cycles: 11972217 heartbeat IPC: 1.56967 cumulative IPC: 1.58701 (Simulation time: 0 hr 12 min 52 sec) 
Heartbeat CPU 0 instructions: 20000000 cycles: 12611056 heartbeat IPC: 1.56533 cumulative IPC: 1.58591 (Simulation time: 0 hr 13 min 34 sec) 
Heartbeat CPU 0 instructions: 21000000 cycles: 13246420 heartbeat IPC: 1.5739 cumulative IPC: 1.58533 (Simulation time: 0 hr 14 min 14 sec) 
Heartbeat CPU 0 instructions: 22000002 cycles: 13885165 heartbeat IPC: 1.56557 cumulative IPC: 1.58442 (Simulation time: 0 hr 14 min 51 sec) 
Heartbeat CPU 0 instructions: 23000003 cycles: 14552678 heartbeat IPC: 1.4981 cumulative IPC: 1.58047 (Simulation time: 0 hr 15 min 32 sec) 
Heartbeat CPU 0 instructions: 24000000 cycles: 15116445 heartbeat IPC: 1.77378 cumulative IPC: 1.58767 (Simulation time: 0 hr 16 min 9 sec) 
Heartbeat CPU 0 instructions: 25000000 cycles: 15773350 heartbeat IPC: 1.52229 cumulative IPC: 1.58495 (Simulation time: 0 hr 16 min 49 sec) 
Heartbeat CPU 0 instructions: 26000001 cycles: 16389265 heartbeat IPC: 1.6236 cumulative IPC: 1.5864 (Simulation time: 0 hr 17 min 29 sec) 
Heartbeat CPU 0 instructions: 27000000 cycles: 17029490 heartbeat IPC: 1.56195 cumulative IPC: 1.58548 (Simulation time: 0 hr 18 min 10 sec) 
Heartbeat CPU 0 instructions: 28000000 cycles: 17670198 heartbeat IPC: 1.56077 cumulative IPC: 1.58459 (Simulation time: 0 hr 18 min 49 sec) 
Heartbeat CPU 0 instructions: 29000000 cycles: 18307728 heartbeat IPC: 1.56855 cumulative IPC: 1.58403 (Simulation time: 0 hr 19 min 31 sec) 
Heartbeat CPU 0 instructions: 30000002 cycles: 18953364 heartbeat IPC: 1.54886 cumulative IPC: 1.58283 (Simulation time: 0 hr 20 min 9 sec) 
Heartbeat CPU 0 instructions: 31000001 cycles: 19589974 heartbeat IPC: 1.57082 cumulative IPC: 1.58244 (Simulation time: 0 hr 20 min 53 sec) 
Heartbeat CPU 0 instructions: 32000000 cycles: 20230144 heartbeat IPC: 1.56208 cumulative IPC: 1.5818 (Simulation time: 0 hr 21 min 33 sec) 
Heartbeat CPU 0 instructions: 33000000 cycles: 20865465 heartbeat IPC: 1.57401 cumulative IPC: 1.58156 (Simulation time: 0 hr 22 min 14 sec) 
Heartbeat CPU 0 instructions: 34000001 cycles: 21501798 heartbeat IPC: 1.57151 cumulative IPC: 1.58126 (Simulation time: 0 hr 22 min 59 sec) 
Heartbeat CPU 0 instructions: 35000003 cycles: 22157548 heartbeat IPC: 1.52497 cumulative IPC: 1.5796 (Simulation time: 0 hr 23 min 44 sec) 
Heartbeat CPU 0 instructions: 36000000 cycles: 22756608 heartbeat IPC: 1.66928 cumulative IPC: 1.58196 (Simulation time: 0 hr 24 min 25 sec) 
Heartbeat CPU 0 instructions: 37000000 cycles: 23371583 heartbeat IPC: 1.62608 cumulative IPC: 1.58312 (Simulation time: 0 hr 25 min 6 sec) 
Heartbeat CPU 0 instructions: 38000002 cycles: 23943832 heartbeat IPC: 1.74749 cumulative IPC: 1.58705 (Simulation time: 0 hr 25 min 46 sec) 
Heartbeat CPU 0 instructions: 39000000 cycles: 24547814 heartbeat IPC: 1.65568 cumulative IPC: 1.58874 (Simulation time: 0 hr 26 min 24 sec) 
Heartbeat CPU 0 instructions: 40000000 cycles: 25099325 heartbeat IPC: 1.8132 cumulative IPC: 1.59367 (Simulation time: 0 hr 26 min 58 sec) 
Heartbeat CPU 0 instructions: 41000001 cycles: 25665868 heartbeat IPC: 1.76509 cumulative IPC: 1.59745 (Simulation time: 0 hr 27 min 34 sec) 
Heartbeat CPU 0 instructions: 42000003 cycles: 26303468 heartbeat IPC: 1.56838 cumulative IPC: 1.59675 (Simulation time: 0 hr 28 min 13 sec) 
Heartbeat CPU 0 instructions: 43000001 cycles: 26969560 heartbeat IPC: 1.50129 cumulative IPC: 1.59439 (Simulation time: 0 hr 28 min 57 sec) 
Heartbeat CPU 0 instructions: 44000000 cycles: 27581739 heartbeat IPC: 1.63351 cumulative IPC: 1.59526 (Simulation time: 0 hr 29 min 38 sec) 
Heartbeat CPU 0 instructions: 45000003 cycles: 28227618 heartbeat IPC: 1.54828 cumulative IPC: 1.59418 (Simulation time: 0 hr 30 min 23 sec) 
Heartbeat CPU 0 instructions: 46000000 cycles: 28867237 heartbeat IPC: 1.56343 cumulative IPC: 1.5935 (Simulation time: 0 hr 31 min 6 sec) 
Heartbeat CPU 0 instructions: 47000000 cycles: 29506358 heartbeat IPC: 1.56465 cumulative IPC: 1.59288 (Simulation time: 0 hr 31 min 47 sec) 
Heartbeat CPU 0 instructions: 48000000 cycles: 30146513 heartbeat IPC: 1.56212 cumulative IPC: 1.59222 (Simulation time: 0 hr 32 min 25 sec) 
Heartbeat CPU 0 instructions: 49000003 cycles: 30788442 heartbeat IPC: 1.55781 cumulative IPC: 1.59151 (Simulation time: 0 hr 33 min 6 sec) 
Heartbeat CPU 0 instructions: 50000001 cycles: 31428048 heartbeat IPC: 1.56346 cumulative IPC: 1.59094 (Simulation time: 0 hr 33 min 46 sec) 

Warmup complete CPU 0 instructions: 50000001 cycles: 31428048 (Simulation time: 0 hr 33 min 46 sec) 

Heartbeat CPU 0 instructions: 51000000 cycles: 34046818 heartbeat IPC: 0.381858 cumulative IPC: 0.381858 (Simulation time: 0 hr 34 min 26 sec) 
Heartbeat CPU 0 instructions: 52000000 cycles: 36657456 heartbeat IPC: 0.383048 cumulative IPC: 0.382452 (Simulation time: 0 hr 35 min 13 sec) 
Heartbeat CPU 0 instructions: 53000000 cycles: 39241649 heartbeat IPC: 0.386968 cumulative IPC: 0.383946 (Simulation time: 0 hr 35 min 58 sec) 
Heartbeat CPU 0 instructions: 54000001 cycles: 41880756 heartbeat IPC: 0.378916 cumulative IPC: 0.382676 (Simulation time: 0 hr 36 min 43 sec) 
Heartbeat CPU 0 instructions: 55000001 cycles: 44327835 heartbeat IPC: 0.40865 cumulative IPC: 0.387603 (Simulation time: 0 hr 37 min 34 sec) 
Heartbeat CPU 0 instructions: 56000000 cycles: 46451412 heartbeat IPC: 0.470903 cumulative IPC: 0.399378 (Simulation time: 0 hr 38 min 17 sec) 
Heartbeat CPU 0 instructions: 57000000 cycles: 48653126 heartbeat IPC: 0.454192 cumulative IPC: 0.406384 (Simulation time: 0 hr 38 min 59 sec) 
Heartbeat CPU 0 instructions: 58000002 cycles: 50600907 heartbeat IPC: 0.513406 cumulative IPC: 0.417257 (Simulation time: 0 hr 39 min 43 sec) 
Heartbeat CPU 0 instructions: 59000003 cycles: 52718583 heartbeat IPC: 0.472216 cumulative IPC: 0.422723 (Simulation time: 0 hr 40 min 28 sec) 
Heartbeat CPU 0 instructions: 60000000 cycles: 55766700 heartbeat IPC: 0.32807 cumulative IPC: 0.410869 (Simulation time: 0 hr 41 min 14 sec) 
Heartbeat CPU 0 instructions: 61000000 cycles: 58188685 heartbeat IPC: 0.412884 cumulative IPC: 0.411051 (Simulation time: 0 hr 42 min 0 sec) 
Heartbeat CPU 0 instructions: 62000001 cycles: 61029412 heartbeat IPC: 0.352023 cumulative IPC: 0.405387 (Simulation time: 0 hr 42 min 52 sec) 
Heartbeat CPU 0 instructions: 63000000 cycles: 64027565 heartbeat IPC: 0.333538 cumulative IPC: 0.398779 (Simulation time: 0 hr 43 min 39 sec) 
Heartbeat CPU 0 instructions: 64000000 cycles: 67057426 heartbeat IPC: 0.330048 cumulative IPC: 0.392934 (Simulation time: 0 hr 44 min 19 sec) 
Heartbeat CPU 0 instructions: 65000001 cycles: 70008690 heartbeat IPC: 0.338838 cumulative IPC: 0.388796 (Simulation time: 0 hr 45 min 4 sec) 
Heartbeat CPU 0 instructions: 66000001 cycles: 72910958 heartbeat IPC: 0.344558 cumulative IPC: 0.385701 (Simulation time: 0 hr 45 min 54 sec) 
Heartbeat CPU 0 instructions: 67000001 cycles: 75654105 heartbeat IPC: 0.364545 cumulative IPC: 0.384389 (Simulation time: 0 hr 46 min 44 sec) 
Heartbeat CPU 0 instructions: 68000000 cycles: 78388278 heartbeat IPC: 0.365741 cumulative IPC: 0.383303 (Simulation time: 0 hr 47 min 31 sec) 
Heartbeat CPU 0 instructions: 69000002 cycles: 81356754 heartbeat IPC: 0.336874 cumulative IPC: 0.380543 (Simulation time: 0 hr 48 min 13 sec) 
Heartbeat CPU 0 instructions: 70000003 cycles: 83168539 heartbeat IPC: 0.551942 cumulative IPC: 0.386544 (Simulation time: 0 hr 48 min 51 sec) 
Heartbeat CPU 0 instructions: 71000000 cycles: 85088284 heartbeat IPC: 0.520901 cumulative IPC: 0.391351 (Simulation time: 0 hr 49 min 33 sec) 
Heartbeat CPU 0 instructions: 72000000 cycles: 87079226 heartbeat IPC: 0.502275 cumulative IPC: 0.39532 (Simulation time: 0 hr 50 min 11 sec) 
Heartbeat CPU 0 instructions: 73000000 cycles: 89348659 heartbeat IPC: 0.440639 cumulative IPC: 0.397095 (Simulation time: 0 hr 50 min 50 sec) 
Heartbeat CPU 0 instructions: 74000000 cycles: 91267205 heartbeat IPC: 0.521228 cumulative IPC: 0.401075 (Simulation time: 0 hr 51 min 29 sec) 
Heartbeat CPU 0 instructions: 75000003 cycles: 93510482 heartbeat IPC: 0.445778 cumulative IPC: 0.40269 (Simulation time: 0 hr 52 min 14 sec) 
Heartbeat CPU 0 instructions: 76000000 cycles: 96264168 heartbeat IPC: 0.363149 cumulative IPC: 0.401011 (Simulation time: 0 hr 52 min 55 sec) 
Heartbeat CPU 0 instructions: 77000000 cycles: 98961918 heartbeat IPC: 0.370679 cumulative IPC: 0.399799 (Simulation time: 0 hr 53 min 35 sec) 
Heartbeat CPU 0 instructions: 78000000 cycles: 101923279 heartbeat IPC: 0.337683 cumulative IPC: 0.39719 (Simulation time: 0 hr 54 min 19 sec) 
Heartbeat CPU 0 instructions: 79000000 cycles: 103783579 heartbeat IPC: 0.537548 cumulative IPC: 0.400799 (Simulation time: 0 hr 55 min 6 sec) 
Heartbeat CPU 0 instructions: 80000000 cycles: 105571696 heartbeat IPC: 0.559247 cumulative IPC: 0.40462 (Simulation time: 0 hr 55 min 42 sec) 
Heartbeat CPU 0 instructions: 81000000 cycles: 107493092 heartbeat IPC: 0.520455 cumulative IPC: 0.407546 (Simulation time: 0 hr 56 min 21 sec) 
Heartbeat CPU 0 instructions: 82000000 cycles: 109410631 heartbeat IPC: 0.521502 cumulative IPC: 0.410348 (Simulation time: 0 hr 56 min 57 sec) 
Heartbeat CPU 0 instructions: 83000000 cycles: 111744023 heartbeat IPC: 0.428561 cumulative IPC: 0.410877 (Simulation time: 0 hr 57 min 35 sec) 
Heartbeat CPU 0 instructions: 84000000 cycles: 113695924 heartbeat IPC: 0.512321 cumulative IPC: 0.413284 (Simulation time: 0 hr 58 min 19 sec) 
Heartbeat CPU 0 instructions: 85000000 cycles: 115616939 heartbeat IPC: 0.520558 cumulative IPC: 0.415732 (Simulation time: 0 hr 58 min 57 sec) 
Heartbeat CPU 0 instructions: 86000002 cycles: 117535468 heartbeat IPC: 0.521234 cumulative IPC: 0.418082 (Simulation time: 0 hr 59 min 34 sec) 
Heartbeat CPU 0 instructions: 87000003 cycles: 119707107 heartbeat IPC: 0.460482 cumulative IPC: 0.419125 (Simulation time: 1 hr 0 min 22 sec) 
Heartbeat CPU 0 instructions: 88000000 cycles: 122497688 heartbeat IPC: 0.358347 cumulative IPC: 0.417263 (Simulation time: 1 hr 1 min 4 sec) 
Heartbeat CPU 0 instructions: 89000003 cycles: 125069927 heartbeat IPC: 0.388768 cumulative IPC: 0.41648 (Simulation time: 1 hr 1 min 46 sec) 
Heartbeat CPU 0 instructions: 90000001 cycles: 127957062 heartbeat IPC: 0.346363 cumulative IPC: 0.414383 (Simulation time: 1 hr 2 min 29 sec) 
Heartbeat CPU 0 instructions: 91000000 cycles: 130444134 heartbeat IPC: 0.402079 cumulative IPC: 0.414074 (Simulation time: 1 hr 3 min 11 sec) 
Heartbeat CPU 0 instructions: 92000000 cycles: 132903999 heartbeat IPC: 0.406526 cumulative IPC: 0.413891 (Simulation time: 1 hr 3 min 48 sec) 
Heartbeat CPU 0 instructions: 93000000 cycles: 135616090 heartbeat IPC: 0.368719 cumulative IPC: 0.412715 (Simulation time: 1 hr 4 min 28 sec) 
Heartbeat CPU 0 instructions: 94000001 cycles: 138273982 heartbeat IPC: 0.376238 cumulative IPC: 0.411808 (Simulation time: 1 hr 5 min 9 sec) 
Heartbeat CPU 0 instructions: 95000000 cycles: 141128462 heartbeat IPC: 0.350326 cumulative IPC: 0.410208 (Simulation time: 1 hr 5 min 52 sec) 
Heartbeat CPU 0 instructions: 96000000 cycles: 144222474 heartbeat IPC: 0.323205 cumulative IPC: 0.407822 (Simulation time: 1 hr 6 min 40 sec) 
Heartbeat CPU 0 instructions: 97000001 cycles: 147239077 heartbeat IPC: 0.331499 cumulative IPC: 0.405834 (Simulation time: 1 hr 7 min 33 sec) 
Heartbeat CPU 0 instructions: 98000000 cycles: 149906717 heartbeat IPC: 0.374863 cumulative IPC: 0.405136 (Simulation time: 1 hr 8 min 21 sec) 
Heartbeat CPU 0 instructions: 99000000 cycles: 152506766 heartbeat IPC: 0.384608 cumulative IPC: 0.404695 (Simulation time: 1 hr 9 min 3 sec) 
Heartbeat CPU 0 instructions: 100000000 cycles: 155132642 heartbeat IPC: 0.380825 cumulative IPC: 0.404189 (Simulation time: 1 hr 9 min 48 sec) 
Heartbeat CPU 0 instructions: 101000001 cycles: 157735409 heartbeat IPC: 0.384207 cumulative IPC: 0.403777 (Simulation time: 1 hr 10 min 31 sec) 
Heartbeat CPU 0 instructions: 102000000 cycles: 160370832 heartbeat IPC: 0.379445 cumulative IPC: 0.40328 (Simulation time: 1 hr 11 min 13 sec) 
Heartbeat CPU 0 instructions: 103000000 cycles: 163029562 heartbeat IPC: 0.376119 cumulative IPC: 0.402731 (Simulation time: 1 hr 11 min 54 sec) 
Heartbeat CPU 0 instructions: 104000000 cycles: 165750294 heartbeat IPC: 0.367548 cumulative IPC: 0.402018 (Simulation time: 1 hr 12 min 34 sec) 
Heartbeat CPU 0 instructions: 105000001 cycles: 168355304 heartbeat IPC: 0.383876 cumulative IPC: 0.401673 (Simulation time: 1 hr 13 min 11 sec) 
Heartbeat CPU 0 instructions: 106000001 cycles: 170974175 heartbeat IPC: 0.381844 cumulative IPC: 0.401301 (Simulation time: 1 hr 13 min 57 sec) 
Heartbeat CPU 0 instructions: 107000000 cycles: 173588975 heartbeat IPC: 0.382438 cumulative IPC: 0.400954 (Simulation time: 1 hr 14 min 36 sec) 
Heartbeat CPU 0 instructions: 108000000 cycles: 176200537 heartbeat IPC: 0.382913 cumulative IPC: 0.400629 (Simulation time: 1 hr 15 min 11 sec) 
Heartbeat CPU 0 instructions: 109000001 cycles: 178773529 heartbeat IPC: 0.388653 cumulative IPC: 0.400419 (Simulation time: 1 hr 15 min 52 sec) 
Heartbeat CPU 0 instructions: 110000003 cycles: 180938179 heartbeat IPC: 0.461969 cumulative IPC: 0.401311 (Simulation time: 1 hr 16 min 26 sec) 
Heartbeat CPU 0 instructions: 111000000 cycles: 183356630 heartbeat IPC: 0.413487 cumulative IPC: 0.401504 (Simulation time: 1 hr 17 min 1 sec) 
Heartbeat CPU 0 instructions: 112000000 cycles: 186176303 heartbeat IPC: 0.354651 cumulative IPC: 0.400651 (Simulation time: 1 hr 17 min 47 sec) 
Heartbeat CPU 0 instructions: 113000000 cycles: 188852617 heartbeat IPC: 0.373648 cumulative IPC: 0.400192 (Simulation time: 1 hr 18 min 21 sec) 
Heartbeat CPU 0 instructions: 114000002 cycles: 191422151 heartbeat IPC: 0.389176 cumulative IPC: 0.400015 (Simulation time: 1 hr 19 min 0 sec) 
Heartbeat CPU 0 instructions: 115000001 cycles: 194037696 heartbeat IPC: 0.382329 cumulative IPC: 0.39973 (Simulation time: 1 hr 19 min 35 sec) 
Heartbeat CPU 0 instructions: 116000000 cycles: 196625591 heartbeat IPC: 0.386414 cumulative IPC: 0.399522 (Simulation time: 1 hr 20 min 5 sec) 
Heartbeat CPU 0 instructions: 117000002 cycles: 199201344 heartbeat IPC: 0.388237 cumulative IPC: 0.399348 (Simulation time: 1 hr 20 min 36 sec) 
Heartbeat CPU 0 instructions: 118000001 cycles: 201706497 heartbeat IPC: 0.399177 cumulative IPC: 0.399346 (Simulation time: 1 hr 21 min 9 sec) 
Heartbeat CPU 0 instructions: 119000000 cycles: 203701840 heartbeat IPC: 0.501166 cumulative IPC: 0.400525 (Simulation time: 1 hr 21 min 38 sec) 
Heartbeat CPU 0 instructions: 120000000 cycles: 206551675 heartbeat IPC: 0.350898 cumulative IPC: 0.399718 (Simulation time: 1 hr 22 min 6 sec) 
Heartbeat CPU 0 instructions: 121000001 cycles: 209204037 heartbeat IPC: 0.377023 cumulative IPC: 0.399379 (Simulation time: 1 hr 22 min 34 sec) 
Heartbeat CPU 0 instructions: 122000002 cycles: 212059234 heartbeat IPC: 0.350239 cumulative IPC: 0.398602 (Simulation time: 1 hr 23 min 2 sec) 
Heartbeat CPU 0 instructions: 123000001 cycles: 214856054 heartbeat IPC: 0.357549 cumulative IPC: 0.397976 (Simulation time: 1 hr 23 min 29 sec) 
Heartbeat CPU 0 instructions: 124000000 cycles: 217400785 heartbeat IPC: 0.392968 cumulative IPC: 0.397908 (Simulation time: 1 hr 23 min 59 sec) 
Heartbeat CPU 0 instructions: 125000003 cycles: 219367670 heartbeat IPC: 0.50842 cumulative IPC: 0.399064 (Simulation time: 1 hr 24 min 23 sec) 
Heartbeat CPU 0 instructions: 126000000 cycles: 221289408 heartbeat IPC: 0.520361 cumulative IPC: 0.400292 (Simulation time: 1 hr 24 min 47 sec) 
Heartbeat CPU 0 instructions: 127000001 cycles: 223694101 heartbeat IPC: 0.415854 cumulative IPC: 0.400487 (Simulation time: 1 hr 25 min 12 sec) 
Heartbeat CPU 0 instructions: 128000000 cycles: 225682851 heartbeat IPC: 0.502828 cumulative IPC: 0.401534 (Simulation time: 1 hr 25 min 36 sec) 
Heartbeat CPU 0 instructions: 129000000 cycles: 227605630 heartbeat IPC: 0.520081 cumulative IPC: 0.402696 (Simulation time: 1 hr 26 min 1 sec) 
Heartbeat CPU 0 instructions: 130000001 cycles: 230376057 heartbeat IPC: 0.360956 cumulative IPC: 0.402115 (Simulation time: 1 hr 26 min 29 sec) 
Heartbeat CPU 0 instructions: 131000003 cycles: 233045264 heartbeat IPC: 0.374644 cumulative IPC: 0.401751 (Simulation time: 1 hr 26 min 54 sec) 
Heartbeat CPU 0 instructions: 132000000 cycles: 235765597 heartbeat IPC: 0.367601 cumulative IPC: 0.401297 (Simulation time: 1 hr 27 min 19 sec) 
Heartbeat CPU 0 instructions: 133000002 cycles: 238705906 heartbeat IPC: 0.340101 cumulative IPC: 0.400429 (Simulation time: 1 hr 27 min 42 sec) 
Heartbeat CPU 0 instructions: 134000000 cycles: 241742566 heartbeat IPC: 0.329309 cumulative IPC: 0.399402 (Simulation time: 1 hr 28 min 8 sec) 
Heartbeat CPU 0 instructions: 135000002 cycles: 244301628 heartbeat IPC: 0.390769 cumulative IPC: 0.399298 (Simulation time: 1 hr 28 min 33 sec) 
Heartbeat CPU 0 instructions: 136000000 cycles: 247153999 heartbeat IPC: 0.350585 cumulative IPC: 0.398654 (Simulation time: 1 hr 28 min 55 sec) 
Heartbeat CPU 0 instructions: 137000003 cycles: 249925690 heartbeat IPC: 0.360792 cumulative IPC: 0.398174 (Simulation time: 1 hr 29 min 18 sec) 
Heartbeat CPU 0 instructions: 138000000 cycles: 252655407 heartbeat IPC: 0.366337 cumulative IPC: 0.397781 (Simulation time: 1 hr 29 min 41 sec) 
Heartbeat CPU 0 instructions: 139000001 cycles: 254926808 heartbeat IPC: 0.440257 cumulative IPC: 0.398212 (Simulation time: 1 hr 30 min 3 sec) 
Heartbeat CPU 0 instructions: 140000000 cycles: 257565045 heartbeat IPC: 0.379041 cumulative IPC: 0.397989 (Simulation time: 1 hr 30 min 28 sec) 
Heartbeat CPU 0 instructions: 141000000 cycles: 260321522 heartbeat IPC: 0.362782 cumulative IPC: 0.397565 (Simulation time: 1 hr 30 min 51 sec) 
Heartbeat CPU 0 instructions: 142000000 cycles: 263076135 heartbeat IPC: 0.363027 cumulative IPC: 0.397154 (Simulation time: 1 hr 31 min 12 sec) 
Heartbeat CPU 0 instructions: 143000000 cycles: 265718805 heartbeat IPC: 0.378405 cumulative IPC: 0.396943 (Simulation time: 1 hr 31 min 33 sec) 
Heartbeat CPU 0 instructions: 144000000 cycles: 267918213 heartbeat IPC: 0.454668 cumulative IPC: 0.39748 (Simulation time: 1 hr 31 min 54 sec) 
Heartbeat CPU 0 instructions: 145000002 cycles: 270136747 heartbeat IPC: 0.450749 cumulative IPC: 0.397975 (Simulation time: 1 hr 32 min 12 sec) 
Heartbeat CPU 0 instructions: 146000001 cycles: 272150732 heartbeat IPC: 0.496528 cumulative IPC: 0.398799 (Simulation time: 1 hr 32 min 26 sec) 
Heartbeat CPU 0 instructions: 147000001 cycles: 274878524 heartbeat IPC: 0.366597 cumulative IPC: 0.398438 (Simulation time: 1 hr 32 min 44 sec) 
Heartbeat CPU 0 instructions: 148000000 cycles: 277459933 heartbeat IPC: 0.387385 cumulative IPC: 0.398322 (Simulation time: 1 hr 33 min 3 sec) 
Heartbeat CPU 0 instructions: 149000000 cycles: 280101285 heartbeat IPC: 0.378594 cumulative IPC: 0.398113 (Simulation time: 1 hr 33 min 20 sec) 
Heartbeat CPU 0 instructions: 150000001 cycles: 282844312 heartbeat IPC: 0.364561 cumulative IPC: 0.397747 (Simulation time: 1 hr 33 min 37 sec) 
Finished CPU 0 instructions: 100000000 cycles: 251416264 cummulative IPC: 0.397747 (Simulation time: 1 hr 33 min 37 sec) 

ChampSim completed all CPUs

Region of Interest Statistics

CPU 0 cummulative IPC: 0.397747 instructions: 100000000 cycles: 251416264
LLC TOTAL     ACCESS:     694180  HIT:     638351  MISS:      55829
LLC LOAD      ACCESS:     325711  HIT:     303083  MISS:      22628
LLC RFO       ACCESS:      31880  HIT:      26988  MISS:       4892
LLC PREFETCH  ACCESS:     223569  HIT:     196307  MISS:      27262
LLC WRITEBACK ACCESS:     113020  HIT:     111973  MISS:       1047
OPTgen accesses: 8427
OPTgen hits: 9972
OPTgen hit rate: 118.334


