
*** ChampSim Multicore Out-of-Order Simulator ***

Warmup Instructions: 50000000
Simulation Instructions: 100000000
Configuration: 2
Number of CPUs: 1
LLC sets: 2048
LLC ways: 16
Off-chip DRAM Channels: 1 Width: 64-bit Data Rate: 1600 MT/s

CPU 0 runs /datasets/cs240c-wi22-a00-public/data/Assignment2-gz/leslie3d_94B.trace.gz
CPU 0 L1D next line prefetcher
CPU 0 L2C IP-based stride prefetcher
Initialize Hawkeye state
Heartbeat CPU 0 instructions: 1000003 cycles: 597056 heartbeat IPC: 1.67489 cumulative IPC: 1.67489 (Simulation time: 0 hr 0 min 42 sec) 
Heartbeat CPU 0 instructions: 2000002 cycles: 1215904 heartbeat IPC: 1.6159 cumulative IPC: 1.64487 (Simulation time: 0 hr 1 min 20 sec) 
Heartbeat CPU 0 instructions: 3000003 cycles: 1867668 heartbeat IPC: 1.5343 cumulative IPC: 1.60628 (Simulation time: 0 hr 2 min 6 sec) 
Heartbeat CPU 0 instructions: 4000000 cycles: 2518894 heartbeat IPC: 1.53556 cumulative IPC: 1.588 (Simulation time: 0 hr 2 min 53 sec) 
Heartbeat CPU 0 instructions: 5000002 cycles: 3083865 heartbeat IPC: 1.77001 cumulative IPC: 1.62134 (Simulation time: 0 hr 3 min 35 sec) 
Heartbeat CPU 0 instructions: 6000002 cycles: 3734525 heartbeat IPC: 1.5369 cumulative IPC: 1.60663 (Simulation time: 0 hr 4 min 13 sec) 
Heartbeat CPU 0 instructions: 7000000 cycles: 4385255 heartbeat IPC: 1.53673 cumulative IPC: 1.59626 (Simulation time: 0 hr 5 min 3 sec) 
Heartbeat CPU 0 instructions: 8000000 cycles: 4950260 heartbeat IPC: 1.7699 cumulative IPC: 1.61608 (Simulation time: 0 hr 5 min 46 sec) 
Heartbeat CPU 0 instructions: 9000000 cycles: 5601133 heartbeat IPC: 1.5364 cumulative IPC: 1.60682 (Simulation time: 0 hr 6 min 31 sec) 
Heartbeat CPU 0 instructions: 10000001 cycles: 6252369 heartbeat IPC: 1.53554 cumulative IPC: 1.59939 (Simulation time: 0 hr 7 min 17 sec) 
Heartbeat CPU 0 instructions: 11000000 cycles: 6878481 heartbeat IPC: 1.59716 cumulative IPC: 1.59919 (Simulation time: 0 hr 7 min 59 sec) 
Heartbeat CPU 0 instructions: 12000000 cycles: 7380906 heartbeat IPC: 1.99035 cumulative IPC: 1.62582 (Simulation time: 0 hr 8 min 35 sec) 
Heartbeat CPU 0 instructions: 13000000 cycles: 7881205 heartbeat IPC: 1.9988 cumulative IPC: 1.64949 (Simulation time: 0 hr 9 min 16 sec) 
Heartbeat CPU 0 instructions: 14000001 cycles: 8381646 heartbeat IPC: 1.99824 cumulative IPC: 1.67032 (Simulation time: 0 hr 9 min 51 sec) 
Heartbeat CPU 0 instructions: 15000001 cycles: 8881977 heartbeat IPC: 1.99868 cumulative IPC: 1.68881 (Simulation time: 0 hr 10 min 27 sec) 
Heartbeat CPU 0 instructions: 16000000 cycles: 9382271 heartbeat IPC: 1.99882 cumulative IPC: 1.70534 (Simulation time: 0 hr 11 min 5 sec) 
Heartbeat CPU 0 instructions: 17000001 cycles: 9882713 heartbeat IPC: 1.99824 cumulative IPC: 1.72018 (Simulation time: 0 hr 11 min 47 sec) 
Heartbeat CPU 0 instructions: 18000002 cycles: 10382834 heartbeat IPC: 1.99952 cumulative IPC: 1.73363 (Simulation time: 0 hr 12 min 30 sec) 
Heartbeat CPU 0 instructions: 19000000 cycles: 10883298 heartbeat IPC: 1.99814 cumulative IPC: 1.74579 (Simulation time: 0 hr 13 min 9 sec) 
Heartbeat CPU 0 instructions: 20000000 cycles: 11383236 heartbeat IPC: 2.00025 cumulative IPC: 1.75697 (Simulation time: 0 hr 13 min 54 sec) 
Heartbeat CPU 0 instructions: 21000002 cycles: 11883768 heartbeat IPC: 1.99788 cumulative IPC: 1.76712 (Simulation time: 0 hr 14 min 35 sec) 
Heartbeat CPU 0 instructions: 22000000 cycles: 12371550 heartbeat IPC: 2.05009 cumulative IPC: 1.77827 (Simulation time: 0 hr 15 min 10 sec) 
Heartbeat CPU 0 instructions: 23000000 cycles: 12858505 heartbeat IPC: 2.05358 cumulative IPC: 1.7887 (Simulation time: 0 hr 15 min 49 sec) 
Heartbeat CPU 0 instructions: 24000000 cycles: 13344855 heartbeat IPC: 2.05613 cumulative IPC: 1.79845 (Simulation time: 0 hr 16 min 29 sec) 
Heartbeat CPU 0 instructions: 25000000 cycles: 13852142 heartbeat IPC: 1.97127 cumulative IPC: 1.80477 (Simulation time: 0 hr 17 min 6 sec) 
Heartbeat CPU 0 instructions: 26000000 cycles: 14433287 heartbeat IPC: 1.72074 cumulative IPC: 1.80139 (Simulation time: 0 hr 17 min 50 sec) 
Heartbeat CPU 0 instructions: 27000000 cycles: 15014738 heartbeat IPC: 1.71984 cumulative IPC: 1.79823 (Simulation time: 0 hr 18 min 39 sec) 
Heartbeat CPU 0 instructions: 28000000 cycles: 15596137 heartbeat IPC: 1.71999 cumulative IPC: 1.79532 (Simulation time: 0 hr 19 min 25 sec) 
Heartbeat CPU 0 instructions: 29000000 cycles: 16177430 heartbeat IPC: 1.7203 cumulative IPC: 1.79262 (Simulation time: 0 hr 20 min 10 sec) 
Heartbeat CPU 0 instructions: 30000002 cycles: 16807756 heartbeat IPC: 1.58648 cumulative IPC: 1.78489 (Simulation time: 0 hr 20 min 55 sec) 
Heartbeat CPU 0 instructions: 31000000 cycles: 17438962 heartbeat IPC: 1.58427 cumulative IPC: 1.77763 (Simulation time: 0 hr 21 min 38 sec) 
Heartbeat CPU 0 instructions: 32000000 cycles: 18060657 heartbeat IPC: 1.60851 cumulative IPC: 1.77181 (Simulation time: 0 hr 22 min 26 sec) 
Heartbeat CPU 0 instructions: 33000001 cycles: 18693177 heartbeat IPC: 1.58098 cumulative IPC: 1.76535 (Simulation time: 0 hr 23 min 12 sec) 
Heartbeat CPU 0 instructions: 34000003 cycles: 19314845 heartbeat IPC: 1.60858 cumulative IPC: 1.7603 (Simulation time: 0 hr 23 min 57 sec) 
Heartbeat CPU 0 instructions: 35000001 cycles: 19946389 heartbeat IPC: 1.58342 cumulative IPC: 1.7547 (Simulation time: 0 hr 24 min 42 sec) 
Heartbeat CPU 0 instructions: 36000000 cycles: 20567598 heartbeat IPC: 1.60976 cumulative IPC: 1.75033 (Simulation time: 0 hr 25 min 27 sec) 
Heartbeat CPU 0 instructions: 37000003 cycles: 21199476 heartbeat IPC: 1.58259 cumulative IPC: 1.74533 (Simulation time: 0 hr 26 min 7 sec) 
Heartbeat CPU 0 instructions: 38000002 cycles: 21830514 heartbeat IPC: 1.58469 cumulative IPC: 1.74068 (Simulation time: 0 hr 26 min 51 sec) 
Heartbeat CPU 0 instructions: 39000002 cycles: 22453060 heartbeat IPC: 1.60631 cumulative IPC: 1.73696 (Simulation time: 0 hr 27 min 36 sec) 
Heartbeat CPU 0 instructions: 40000000 cycles: 23085503 heartbeat IPC: 1.58117 cumulative IPC: 1.73269 (Simulation time: 0 hr 28 min 24 sec) 
Heartbeat CPU 0 instructions: 41000000 cycles: 23707074 heartbeat IPC: 1.60883 cumulative IPC: 1.72944 (Simulation time: 0 hr 29 min 11 sec) 
Heartbeat CPU 0 instructions: 42000002 cycles: 24338486 heartbeat IPC: 1.58376 cumulative IPC: 1.72566 (Simulation time: 0 hr 30 min 1 sec) 
Heartbeat CPU 0 instructions: 43000002 cycles: 24960210 heartbeat IPC: 1.60843 cumulative IPC: 1.72274 (Simulation time: 0 hr 30 min 42 sec) 
Heartbeat CPU 0 instructions: 44000000 cycles: 25592364 heartbeat IPC: 1.58189 cumulative IPC: 1.71926 (Simulation time: 0 hr 31 min 32 sec) 
Heartbeat CPU 0 instructions: 45000002 cycles: 26222681 heartbeat IPC: 1.58651 cumulative IPC: 1.71607 (Simulation time: 0 hr 32 min 17 sec) 
Heartbeat CPU 0 instructions: 46000001 cycles: 26846193 heartbeat IPC: 1.60382 cumulative IPC: 1.71346 (Simulation time: 0 hr 33 min 1 sec) 
Heartbeat CPU 0 instructions: 47000001 cycles: 27477803 heartbeat IPC: 1.58326 cumulative IPC: 1.71047 (Simulation time: 0 hr 33 min 42 sec) 
Heartbeat CPU 0 instructions: 48000000 cycles: 28099395 heartbeat IPC: 1.60877 cumulative IPC: 1.70822 (Simulation time: 0 hr 34 min 27 sec) 
Heartbeat CPU 0 instructions: 49000000 cycles: 28731169 heartbeat IPC: 1.58284 cumulative IPC: 1.70546 (Simulation time: 0 hr 35 min 12 sec) 
Heartbeat CPU 0 instructions: 50000003 cycles: 29352941 heartbeat IPC: 1.60831 cumulative IPC: 1.70341 (Simulation time: 0 hr 35 min 59 sec) 

Warmup complete CPU 0 instructions: 50000003 cycles: 29352941 (Simulation time: 0 hr 35 min 59 sec) 

Heartbeat CPU 0 instructions: 51000003 cycles: 30623234 heartbeat IPC: 0.78722 cumulative IPC: 0.78722 (Simulation time: 0 hr 36 min 46 sec) 
Heartbeat CPU 0 instructions: 52000000 cycles: 31888362 heartbeat IPC: 0.790431 cumulative IPC: 0.788822 (Simulation time: 0 hr 37 min 32 sec) 
Heartbeat CPU 0 instructions: 53000002 cycles: 33200123 heartbeat IPC: 0.762336 cumulative IPC: 0.779791 (Simulation time: 0 hr 38 min 22 sec) 
Heartbeat CPU 0 instructions: 54000001 cycles: 34453472 heartbeat IPC: 0.797862 cumulative IPC: 0.784232 (Simulation time: 0 hr 39 min 3 sec) 
Heartbeat CPU 0 instructions: 55000000 cycles: 35744490 heartbeat IPC: 0.774582 cumulative IPC: 0.782283 (Simulation time: 0 hr 39 min 50 sec) 
Heartbeat CPU 0 instructions: 56000000 cycles: 37009282 heartbeat IPC: 0.790644 cumulative IPC: 0.783664 (Simulation time: 0 hr 40 min 34 sec) 
Heartbeat CPU 0 instructions: 57000000 cycles: 38294747 heartbeat IPC: 0.777929 cumulative IPC: 0.782839 (Simulation time: 0 hr 41 min 21 sec) 
Heartbeat CPU 0 instructions: 58000001 cycles: 39548104 heartbeat IPC: 0.797858 cumulative IPC: 0.784686 (Simulation time: 0 hr 42 min 1 sec) 
Heartbeat CPU 0 instructions: 59000000 cycles: 40793070 heartbeat IPC: 0.803234 cumulative IPC: 0.786704 (Simulation time: 0 hr 42 min 46 sec) 
Heartbeat CPU 0 instructions: 60000000 cycles: 42062410 heartbeat IPC: 0.787811 cumulative IPC: 0.786815 (Simulation time: 0 hr 43 min 30 sec) 
Heartbeat CPU 0 instructions: 61000001 cycles: 43312959 heartbeat IPC: 0.79965 cumulative IPC: 0.787964 (Simulation time: 0 hr 44 min 17 sec) 
Heartbeat CPU 0 instructions: 62000002 cycles: 44586865 heartbeat IPC: 0.784988 cumulative IPC: 0.787716 (Simulation time: 0 hr 45 min 4 sec) 
Heartbeat CPU 0 instructions: 63000000 cycles: 45839012 heartbeat IPC: 0.798627 cumulative IPC: 0.788544 (Simulation time: 0 hr 45 min 53 sec) 
Heartbeat CPU 0 instructions: 64000000 cycles: 47122056 heartbeat IPC: 0.779396 cumulative IPC: 0.787884 (Simulation time: 0 hr 46 min 34 sec) 
Heartbeat CPU 0 instructions: 65000000 cycles: 48381972 heartbeat IPC: 0.793704 cumulative IPC: 0.788269 (Simulation time: 0 hr 47 min 15 sec) 
Heartbeat CPU 0 instructions: 66000000 cycles: 49654706 heartbeat IPC: 0.78571 cumulative IPC: 0.788109 (Simulation time: 0 hr 47 min 59 sec) 
Heartbeat CPU 0 instructions: 67000003 cycles: 50918236 heartbeat IPC: 0.791436 cumulative IPC: 0.788304 (Simulation time: 0 hr 48 min 42 sec) 
Heartbeat CPU 0 instructions: 68000000 cycles: 52176747 heartbeat IPC: 0.794587 cumulative IPC: 0.78865 (Simulation time: 0 hr 49 min 19 sec) 
Heartbeat CPU 0 instructions: 69000000 cycles: 53453733 heartbeat IPC: 0.783094 cumulative IPC: 0.788356 (Simulation time: 0 hr 50 min 2 sec) 
Heartbeat CPU 0 instructions: 70000001 cycles: 54702696 heartbeat IPC: 0.800665 cumulative IPC: 0.788962 (Simulation time: 0 hr 50 min 46 sec) 
Heartbeat CPU 0 instructions: 71000002 cycles: 55993650 heartbeat IPC: 0.774622 cumulative IPC: 0.788267 (Simulation time: 0 hr 51 min 28 sec) 
Heartbeat CPU 0 instructions: 72000000 cycles: 57235370 heartbeat IPC: 0.805333 cumulative IPC: 0.789027 (Simulation time: 0 hr 52 min 8 sec) 
Heartbeat CPU 0 instructions: 73000000 cycles: 58500631 heartbeat IPC: 0.790351 cumulative IPC: 0.789085 (Simulation time: 0 hr 52 min 58 sec) 
Heartbeat CPU 0 instructions: 74000000 cycles: 59758361 heartbeat IPC: 0.795083 cumulative IPC: 0.789333 (Simulation time: 0 hr 53 min 42 sec) 
Heartbeat CPU 0 instructions: 75000002 cycles: 61008714 heartbeat IPC: 0.799776 cumulative IPC: 0.789745 (Simulation time: 0 hr 54 min 27 sec) 
Heartbeat CPU 0 instructions: 76000000 cycles: 62305912 heartbeat IPC: 0.770891 cumulative IPC: 0.789003 (Simulation time: 0 hr 55 min 3 sec) 
Heartbeat CPU 0 instructions: 77000000 cycles: 63554713 heartbeat IPC: 0.800768 cumulative IPC: 0.789433 (Simulation time: 0 hr 55 min 47 sec) 
Heartbeat CPU 0 instructions: 78000003 cycles: 64864922 heartbeat IPC: 0.763239 cumulative IPC: 0.788466 (Simulation time: 0 hr 56 min 36 sec) 
Heartbeat CPU 0 instructions: 79000000 cycles: 66371715 heartbeat IPC: 0.663659 cumulative IPC: 0.783386 (Simulation time: 0 hr 57 min 13 sec) 
Heartbeat CPU 0 instructions: 80000000 cycles: 68016967 heartbeat IPC: 0.60781 cumulative IPC: 0.775915 (Simulation time: 0 hr 57 min 59 sec) 
Heartbeat CPU 0 instructions: 81000002 cycles: 69616635 heartbeat IPC: 0.625131 cumulative IPC: 0.769924 (Simulation time: 0 hr 58 min 44 sec) 
Heartbeat CPU 0 instructions: 82000003 cycles: 71274493 heartbeat IPC: 0.603189 cumulative IPC: 0.763331 (Simulation time: 0 hr 59 min 25 sec) 
Heartbeat CPU 0 instructions: 83000003 cycles: 72931949 heartbeat IPC: 0.603334 cumulative IPC: 0.757245 (Simulation time: 1 hr 0 min 14 sec) 
Heartbeat CPU 0 instructions: 84000000 cycles: 74539849 heartbeat IPC: 0.621927 cumulative IPC: 0.75243 (Simulation time: 1 hr 1 min 0 sec) 
Heartbeat CPU 0 instructions: 85000001 cycles: 76178758 heartbeat IPC: 0.610163 cumulative IPC: 0.747451 (Simulation time: 1 hr 1 min 40 sec) 
Heartbeat CPU 0 instructions: 86000002 cycles: 77798573 heartbeat IPC: 0.617355 cumulative IPC: 0.743101 (Simulation time: 1 hr 2 min 23 sec) 
Heartbeat CPU 0 instructions: 87000000 cycles: 79439208 heartbeat IPC: 0.609519 cumulative IPC: 0.738725 (Simulation time: 1 hr 3 min 6 sec) 
Heartbeat CPU 0 instructions: 88000000 cycles: 81100700 heartbeat IPC: 0.601869 cumulative IPC: 0.734331 (Simulation time: 1 hr 3 min 43 sec) 
Heartbeat CPU 0 instructions: 89000002 cycles: 82729871 heartbeat IPC: 0.61381 cumulative IPC: 0.730653 (Simulation time: 1 hr 4 min 28 sec) 
Heartbeat CPU 0 instructions: 90000001 cycles: 84369727 heartbeat IPC: 0.609809 cumulative IPC: 0.727051 (Simulation time: 1 hr 5 min 18 sec) 
Heartbeat CPU 0 instructions: 91000003 cycles: 86009033 heartbeat IPC: 0.610015 cumulative IPC: 0.723664 (Simulation time: 1 hr 6 min 2 sec) 
Heartbeat CPU 0 instructions: 92000000 cycles: 87661194 heartbeat IPC: 0.605266 cumulative IPC: 0.72031 (Simulation time: 1 hr 6 min 41 sec) 
Heartbeat CPU 0 instructions: 93000001 cycles: 89335913 heartbeat IPC: 0.597116 cumulative IPC: 0.71687 (Simulation time: 1 hr 7 min 24 sec) 
Heartbeat CPU 0 instructions: 94000003 cycles: 90995009 heartbeat IPC: 0.602739 cumulative IPC: 0.713798 (Simulation time: 1 hr 8 min 7 sec) 
Heartbeat CPU 0 instructions: 95000002 cycles: 92702318 heartbeat IPC: 0.585716 cumulative IPC: 0.710346 (Simulation time: 1 hr 8 min 52 sec) 
Heartbeat CPU 0 instructions: 96000000 cycles: 94348865 heartbeat IPC: 0.60733 cumulative IPC: 0.707737 (Simulation time: 1 hr 9 min 29 sec) 
Heartbeat CPU 0 instructions: 97000003 cycles: 96452810 heartbeat IPC: 0.475299 cumulative IPC: 0.700448 (Simulation time: 1 hr 10 min 20 sec) 
Heartbeat CPU 0 instructions: 98000002 cycles: 102041919 heartbeat IPC: 0.178919 cumulative IPC: 0.660348 (Simulation time: 1 hr 11 min 46 sec) 
Heartbeat CPU 0 instructions: 99000000 cycles: 105034319 heartbeat IPC: 0.334179 cumulative IPC: 0.647451 (Simulation time: 1 hr 12 min 57 sec) 
Heartbeat CPU 0 instructions: 100000000 cycles: 106715053 heartbeat IPC: 0.594978 cumulative IPC: 0.646311 (Simulation time: 1 hr 13 min 43 sec) 
Heartbeat CPU 0 instructions: 101000002 cycles: 107983175 heartbeat IPC: 0.788569 cumulative IPC: 0.648605 (Simulation time: 1 hr 14 min 11 sec) 
Heartbeat CPU 0 instructions: 102000003 cycles: 109287868 heartbeat IPC: 0.766465 cumulative IPC: 0.650529 (Simulation time: 1 hr 14 min 41 sec) 
Heartbeat CPU 0 instructions: 103000002 cycles: 110653987 heartbeat IPC: 0.732 cumulative IPC: 0.651898 (Simulation time: 1 hr 15 min 13 sec) 
Heartbeat CPU 0 instructions: 104000000 cycles: 112143164 heartbeat IPC: 0.671511 cumulative IPC: 0.652251 (Simulation time: 1 hr 15 min 44 sec) 
Heartbeat CPU 0 instructions: 105000001 cycles: 113668444 heartbeat IPC: 0.655618 cumulative IPC: 0.652312 (Simulation time: 1 hr 16 min 23 sec) 
Heartbeat CPU 0 instructions: 106000001 cycles: 115208257 heartbeat IPC: 0.64943 cumulative IPC: 0.65226 (Simulation time: 1 hr 16 min 56 sec) 
Heartbeat CPU 0 instructions: 107000001 cycles: 116746387 heartbeat IPC: 0.65014 cumulative IPC: 0.652223 (Simulation time: 1 hr 17 min 29 sec) 
Heartbeat CPU 0 instructions: 108000000 cycles: 118295178 heartbeat IPC: 0.645664 cumulative IPC: 0.652109 (Simulation time: 1 hr 17 min 59 sec) 
Heartbeat CPU 0 instructions: 109000001 cycles: 119819764 heartbeat IPC: 0.655916 cumulative IPC: 0.652173 (Simulation time: 1 hr 18 min 30 sec) 
Heartbeat CPU 0 instructions: 110000001 cycles: 121362561 heartbeat IPC: 0.648173 cumulative IPC: 0.652106 (Simulation time: 1 hr 19 min 0 sec) 
Heartbeat CPU 0 instructions: 111000003 cycles: 122895384 heartbeat IPC: 0.652392 cumulative IPC: 0.65211 (Simulation time: 1 hr 19 min 31 sec) 
Heartbeat CPU 0 instructions: 112000000 cycles: 124441616 heartbeat IPC: 0.646732 cumulative IPC: 0.652023 (Simulation time: 1 hr 19 min 59 sec) 
Heartbeat CPU 0 instructions: 113000002 cycles: 126081347 heartbeat IPC: 0.609857 cumulative IPC: 0.651308 (Simulation time: 1 hr 20 min 31 sec) 
Heartbeat CPU 0 instructions: 114000002 cycles: 128489246 heartbeat IPC: 0.4153 cumulative IPC: 0.645576 (Simulation time: 1 hr 21 min 6 sec) 
Heartbeat CPU 0 instructions: 115000003 cycles: 130970234 heartbeat IPC: 0.403066 cumulative IPC: 0.639655 (Simulation time: 1 hr 21 min 39 sec) 
Heartbeat CPU 0 instructions: 116000000 cycles: 133412506 heartbeat IPC: 0.409454 cumulative IPC: 0.634252 (Simulation time: 1 hr 22 min 14 sec) 
Heartbeat CPU 0 instructions: 117000003 cycles: 135835647 heartbeat IPC: 0.412689 cumulative IPC: 0.62921 (Simulation time: 1 hr 22 min 43 sec) 
Heartbeat CPU 0 instructions: 118000000 cycles: 138212969 heartbeat IPC: 0.42064 cumulative IPC: 0.624655 (Simulation time: 1 hr 23 min 17 sec) 
Heartbeat CPU 0 instructions: 119000000 cycles: 140579313 heartbeat IPC: 0.422593 cumulative IPC: 0.620356 (Simulation time: 1 hr 23 min 56 sec) 
Heartbeat CPU 0 instructions: 120000000 cycles: 143021499 heartbeat IPC: 0.409469 cumulative IPC: 0.615825 (Simulation time: 1 hr 24 min 33 sec) 
Heartbeat CPU 0 instructions: 121000001 cycles: 145428323 heartbeat IPC: 0.415486 cumulative IPC: 0.611671 (Simulation time: 1 hr 25 min 4 sec) 
Heartbeat CPU 0 instructions: 122000000 cycles: 147828694 heartbeat IPC: 0.416602 cumulative IPC: 0.607719 (Simulation time: 1 hr 25 min 36 sec) 
Heartbeat CPU 0 instructions: 123000003 cycles: 149209409 heartbeat IPC: 0.724265 cumulative IPC: 0.609062 (Simulation time: 1 hr 26 min 2 sec) 
Heartbeat CPU 0 instructions: 124000000 cycles: 150337870 heartbeat IPC: 0.88616 cumulative IPC: 0.611646 (Simulation time: 1 hr 26 min 25 sec) 
Heartbeat CPU 0 instructions: 125000000 cycles: 151437576 heartbeat IPC: 0.909334 cumulative IPC: 0.614328 (Simulation time: 1 hr 26 min 51 sec) 
Heartbeat CPU 0 instructions: 126000001 cycles: 152532057 heartbeat IPC: 0.913676 cumulative IPC: 0.616988 (Simulation time: 1 hr 27 min 14 sec) 
Heartbeat CPU 0 instructions: 127000002 cycles: 153552281 heartbeat IPC: 0.980178 cumulative IPC: 0.619971 (Simulation time: 1 hr 27 min 40 sec) 
Heartbeat CPU 0 instructions: 128000000 cycles: 154576276 heartbeat IPC: 0.976565 cumulative IPC: 0.622887 (Simulation time: 1 hr 28 min 1 sec) 
Heartbeat CPU 0 instructions: 129000002 cycles: 155654689 heartbeat IPC: 0.92729 cumulative IPC: 0.625486 (Simulation time: 1 hr 28 min 24 sec) 
Heartbeat CPU 0 instructions: 130000001 cycles: 156748391 heartbeat IPC: 0.914325 cumulative IPC: 0.627966 (Simulation time: 1 hr 28 min 44 sec) 
Heartbeat CPU 0 instructions: 131000000 cycles: 157820385 heartbeat IPC: 0.93284 cumulative IPC: 0.63051 (Simulation time: 1 hr 29 min 4 sec) 
Heartbeat CPU 0 instructions: 132000000 cycles: 158891431 heartbeat IPC: 0.933667 cumulative IPC: 0.633016 (Simulation time: 1 hr 29 min 25 sec) 
Heartbeat CPU 0 instructions: 133000001 cycles: 159958247 heartbeat IPC: 0.93737 cumulative IPC: 0.635503 (Simulation time: 1 hr 29 min 44 sec) 
Heartbeat CPU 0 instructions: 134000000 cycles: 161047466 heartbeat IPC: 0.918088 cumulative IPC: 0.63784 (Simulation time: 1 hr 30 min 5 sec) 
Heartbeat CPU 0 instructions: 135000002 cycles: 162107926 heartbeat IPC: 0.942989 cumulative IPC: 0.640277 (Simulation time: 1 hr 30 min 26 sec) 
Heartbeat CPU 0 instructions: 136000000 cycles: 163178743 heartbeat IPC: 0.933865 cumulative IPC: 0.642626 (Simulation time: 1 hr 30 min 46 sec) 
Heartbeat CPU 0 instructions: 137000001 cycles: 164263832 heartbeat IPC: 0.921584 cumulative IPC: 0.64487 (Simulation time: 1 hr 31 min 4 sec) 
Heartbeat CPU 0 instructions: 138000002 cycles: 165338177 heartbeat IPC: 0.930801 cumulative IPC: 0.647129 (Simulation time: 1 hr 31 min 23 sec) 
Heartbeat CPU 0 instructions: 139000001 cycles: 166429121 heartbeat IPC: 0.916636 cumulative IPC: 0.649274 (Simulation time: 1 hr 31 min 40 sec) 
Heartbeat CPU 0 instructions: 140000000 cycles: 167520738 heartbeat IPC: 0.916071 cumulative IPC: 0.651382 (Simulation time: 1 hr 31 min 57 sec) 
Heartbeat CPU 0 instructions: 141000001 cycles: 168592342 heartbeat IPC: 0.933181 cumulative IPC: 0.653551 (Simulation time: 1 hr 32 min 13 sec) 
Heartbeat CPU 0 instructions: 142000003 cycles: 169681123 heartbeat IPC: 0.91846 cumulative IPC: 0.655606 (Simulation time: 1 hr 32 min 28 sec) 
Heartbeat CPU 0 instructions: 143000003 cycles: 170753401 heartbeat IPC: 0.932594 cumulative IPC: 0.657706 (Simulation time: 1 hr 32 min 44 sec) 
Heartbeat CPU 0 instructions: 144000000 cycles: 171831415 heartbeat IPC: 0.927629 cumulative IPC: 0.659749 (Simulation time: 1 hr 32 min 59 sec) 
Heartbeat CPU 0 instructions: 145000000 cycles: 172909276 heartbeat IPC: 0.927763 cumulative IPC: 0.661761 (Simulation time: 1 hr 33 min 14 sec) 
Heartbeat CPU 0 instructions: 146000003 cycles: 173996286 heartbeat IPC: 0.919958 cumulative IPC: 0.663701 (Simulation time: 1 hr 33 min 28 sec) 
Heartbeat CPU 0 instructions: 147000001 cycles: 175082942 heartbeat IPC: 0.920253 cumulative IPC: 0.665614 (Simulation time: 1 hr 33 min 41 sec) 
Heartbeat CPU 0 instructions: 148000000 cycles: 176174630 heartbeat IPC: 0.916012 cumulative IPC: 0.667476 (Simulation time: 1 hr 33 min 53 sec) 
Heartbeat CPU 0 instructions: 149000000 cycles: 177256793 heartbeat IPC: 0.924075 cumulative IPC: 0.669354 (Simulation time: 1 hr 34 min 6 sec) 
Heartbeat CPU 0 instructions: 150000003 cycles: 178343097 heartbeat IPC: 0.920555 cumulative IPC: 0.671185 (Simulation time: 1 hr 34 min 17 sec) 
Finished CPU 0 instructions: 100000000 cycles: 148990156 cummulative IPC: 0.671185 (Simulation time: 1 hr 34 min 17 sec) 

ChampSim completed all CPUs

Region of Interest Statistics

CPU 0 cummulative IPC: 0.671185 instructions: 100000000 cycles: 148990156
LLC TOTAL     ACCESS:    4047016  HIT:     782838  MISS:    3264178
LLC LOAD      ACCESS:     356697  HIT:      71377  MISS:     285320
LLC RFO       ACCESS:     704633  HIT:      54565  MISS:     650068
LLC PREFETCH  ACCESS:    2008992  HIT:     297750  MISS:    1711242
LLC WRITEBACK ACCESS:     976694  HIT:     359146  MISS:     617548
OPTgen accesses: 23760
OPTgen hits: 9850
OPTgen hit rate: 41.4562


