
*** ChampSim Multicore Out-of-Order Simulator ***

Warmup Instructions: 50000000
Simulation Instructions: 100000000
Configuration: 2
Number of CPUs: 1
LLC sets: 2048
LLC ways: 16
Off-chip DRAM Channels: 1 Width: 64-bit Data Rate: 1600 MT/s

CPU 0 runs /datasets/cs240c-wi22-a00-public/data/Assignment2-gz/leslie3d_1186B.trace.gz
CPU 0 L1D next line prefetcher
CPU 0 L2C IP-based stride prefetcher
Initialize Hawkeye state
Heartbeat CPU 0 instructions: 1000002 cycles: 564509 heartbeat IPC: 1.77145 cumulative IPC: 1.77145 (Simulation time: 0 hr 1 min 1 sec) 
Heartbeat CPU 0 instructions: 2000000 cycles: 1215810 heartbeat IPC: 1.53539 cumulative IPC: 1.64499 (Simulation time: 0 hr 2 min 9 sec) 
Heartbeat CPU 0 instructions: 3000000 cycles: 1867537 heartbeat IPC: 1.53438 cumulative IPC: 1.60639 (Simulation time: 0 hr 3 min 14 sec) 
Heartbeat CPU 0 instructions: 4000000 cycles: 2473072 heartbeat IPC: 1.65143 cumulative IPC: 1.61742 (Simulation time: 0 hr 4 min 17 sec) 
Heartbeat CPU 0 instructions: 5000000 cycles: 3083389 heartbeat IPC: 1.63849 cumulative IPC: 1.62159 (Simulation time: 0 hr 5 min 18 sec) 
Heartbeat CPU 0 instructions: 6000000 cycles: 3735110 heartbeat IPC: 1.5344 cumulative IPC: 1.60638 (Simulation time: 0 hr 6 min 24 sec) 
Heartbeat CPU 0 instructions: 7000001 cycles: 4386339 heartbeat IPC: 1.53556 cumulative IPC: 1.59586 (Simulation time: 0 hr 7 min 26 sec) 
Heartbeat CPU 0 instructions: 8000000 cycles: 4950911 heartbeat IPC: 1.77125 cumulative IPC: 1.61586 (Simulation time: 0 hr 8 min 27 sec) 
Heartbeat CPU 0 instructions: 9000003 cycles: 5602199 heartbeat IPC: 1.53542 cumulative IPC: 1.60651 (Simulation time: 0 hr 9 min 26 sec) 
Heartbeat CPU 0 instructions: 10000001 cycles: 6253364 heartbeat IPC: 1.53571 cumulative IPC: 1.59914 (Simulation time: 0 hr 10 min 32 sec) 
Heartbeat CPU 0 instructions: 11000000 cycles: 6820146 heartbeat IPC: 1.76435 cumulative IPC: 1.61287 (Simulation time: 0 hr 11 min 24 sec) 
Heartbeat CPU 0 instructions: 12000000 cycles: 7469235 heartbeat IPC: 1.54062 cumulative IPC: 1.60659 (Simulation time: 0 hr 12 min 26 sec) 
Heartbeat CPU 0 instructions: 13000002 cycles: 8120721 heartbeat IPC: 1.53496 cumulative IPC: 1.60084 (Simulation time: 0 hr 13 min 26 sec) 
Heartbeat CPU 0 instructions: 14000000 cycles: 8755148 heartbeat IPC: 1.57622 cumulative IPC: 1.59906 (Simulation time: 0 hr 14 min 29 sec) 
Heartbeat CPU 0 instructions: 15000000 cycles: 9336232 heartbeat IPC: 1.72092 cumulative IPC: 1.60664 (Simulation time: 0 hr 15 min 33 sec) 
Heartbeat CPU 0 instructions: 16000000 cycles: 9987796 heartbeat IPC: 1.53477 cumulative IPC: 1.60196 (Simulation time: 0 hr 16 min 38 sec) 
Heartbeat CPU 0 instructions: 17000000 cycles: 10638859 heartbeat IPC: 1.53595 cumulative IPC: 1.59792 (Simulation time: 0 hr 17 min 47 sec) 
Heartbeat CPU 0 instructions: 18000003 cycles: 11203330 heartbeat IPC: 1.77158 cumulative IPC: 1.60667 (Simulation time: 0 hr 18 min 46 sec) 
Heartbeat CPU 0 instructions: 19000003 cycles: 11854610 heartbeat IPC: 1.53544 cumulative IPC: 1.60275 (Simulation time: 0 hr 19 min 54 sec) 
Heartbeat CPU 0 instructions: 20000000 cycles: 12505776 heartbeat IPC: 1.5357 cumulative IPC: 1.59926 (Simulation time: 0 hr 21 min 1 sec) 
Heartbeat CPU 0 instructions: 21000001 cycles: 13101417 heartbeat IPC: 1.67887 cumulative IPC: 1.60288 (Simulation time: 0 hr 22 min 2 sec) 
Heartbeat CPU 0 instructions: 22000003 cycles: 13721396 heartbeat IPC: 1.61296 cumulative IPC: 1.60334 (Simulation time: 0 hr 23 min 7 sec) 
Heartbeat CPU 0 instructions: 23000001 cycles: 14372557 heartbeat IPC: 1.53572 cumulative IPC: 1.60027 (Simulation time: 0 hr 24 min 13 sec) 
Heartbeat CPU 0 instructions: 24000000 cycles: 15024195 heartbeat IPC: 1.53459 cumulative IPC: 1.59742 (Simulation time: 0 hr 25 min 22 sec) 
Heartbeat CPU 0 instructions: 25000000 cycles: 15588251 heartbeat IPC: 1.77287 cumulative IPC: 1.60377 (Simulation time: 0 hr 26 min 20 sec) 
Heartbeat CPU 0 instructions: 26000003 cycles: 16240225 heartbeat IPC: 1.53381 cumulative IPC: 1.60096 (Simulation time: 0 hr 27 min 29 sec) 
Heartbeat CPU 0 instructions: 27000000 cycles: 16891849 heartbeat IPC: 1.53462 cumulative IPC: 1.5984 (Simulation time: 0 hr 28 min 34 sec) 
Heartbeat CPU 0 instructions: 28000000 cycles: 17455983 heartbeat IPC: 1.77263 cumulative IPC: 1.60403 (Simulation time: 0 hr 29 min 33 sec) 
Heartbeat CPU 0 instructions: 29000002 cycles: 18107423 heartbeat IPC: 1.53506 cumulative IPC: 1.60155 (Simulation time: 0 hr 30 min 35 sec) 
Heartbeat CPU 0 instructions: 30000002 cycles: 18758771 heartbeat IPC: 1.53528 cumulative IPC: 1.59925 (Simulation time: 0 hr 31 min 37 sec) 
Heartbeat CPU 0 instructions: 31000002 cycles: 19382821 heartbeat IPC: 1.60244 cumulative IPC: 1.59935 (Simulation time: 0 hr 32 min 42 sec) 
Heartbeat CPU 0 instructions: 32000000 cycles: 19974295 heartbeat IPC: 1.69069 cumulative IPC: 1.60206 (Simulation time: 0 hr 33 min 38 sec) 
Heartbeat CPU 0 instructions: 33000000 cycles: 20625851 heartbeat IPC: 1.53479 cumulative IPC: 1.59993 (Simulation time: 0 hr 34 min 43 sec) 
Heartbeat CPU 0 instructions: 34000000 cycles: 21277884 heartbeat IPC: 1.53366 cumulative IPC: 1.5979 (Simulation time: 0 hr 35 min 44 sec) 
Heartbeat CPU 0 instructions: 35000000 cycles: 21842124 heartbeat IPC: 1.7723 cumulative IPC: 1.60241 (Simulation time: 0 hr 36 min 44 sec) 
Heartbeat CPU 0 instructions: 36000000 cycles: 22493690 heartbeat IPC: 1.53476 cumulative IPC: 1.60045 (Simulation time: 0 hr 37 min 47 sec) 
Heartbeat CPU 0 instructions: 37000003 cycles: 23145406 heartbeat IPC: 1.53442 cumulative IPC: 1.59859 (Simulation time: 0 hr 38 min 48 sec) 
Heartbeat CPU 0 instructions: 38000002 cycles: 23731082 heartbeat IPC: 1.70743 cumulative IPC: 1.60128 (Simulation time: 0 hr 39 min 52 sec) 
Heartbeat CPU 0 instructions: 39000000 cycles: 24361286 heartbeat IPC: 1.58678 cumulative IPC: 1.6009 (Simulation time: 0 hr 40 min 57 sec) 
Heartbeat CPU 0 instructions: 40000000 cycles: 25013094 heartbeat IPC: 1.53419 cumulative IPC: 1.59916 (Simulation time: 0 hr 41 min 55 sec) 
Heartbeat CPU 0 instructions: 41000000 cycles: 25664071 heartbeat IPC: 1.53615 cumulative IPC: 1.59756 (Simulation time: 0 hr 43 min 4 sec) 
Heartbeat CPU 0 instructions: 42000000 cycles: 26228893 heartbeat IPC: 1.77047 cumulative IPC: 1.60129 (Simulation time: 0 hr 44 min 1 sec) 
Heartbeat CPU 0 instructions: 43000002 cycles: 26880002 heartbeat IPC: 1.53584 cumulative IPC: 1.5997 (Simulation time: 0 hr 45 min 2 sec) 
Heartbeat CPU 0 instructions: 44000000 cycles: 27531571 heartbeat IPC: 1.53475 cumulative IPC: 1.59817 (Simulation time: 0 hr 46 min 8 sec) 
Heartbeat CPU 0 instructions: 45000001 cycles: 28090696 heartbeat IPC: 1.78851 cumulative IPC: 1.60195 (Simulation time: 0 hr 47 min 10 sec) 
Heartbeat CPU 0 instructions: 46000001 cycles: 28591439 heartbeat IPC: 1.99703 cumulative IPC: 1.60887 (Simulation time: 0 hr 48 min 10 sec) 
Heartbeat CPU 0 instructions: 47000001 cycles: 29092113 heartbeat IPC: 1.99731 cumulative IPC: 1.61556 (Simulation time: 0 hr 49 min 8 sec) 
Heartbeat CPU 0 instructions: 48000000 cycles: 29592968 heartbeat IPC: 1.99658 cumulative IPC: 1.62201 (Simulation time: 0 hr 50 min 10 sec) 
Heartbeat CPU 0 instructions: 49000002 cycles: 30093354 heartbeat IPC: 1.99846 cumulative IPC: 1.62827 (Simulation time: 0 hr 51 min 13 sec) 
Heartbeat CPU 0 instructions: 50000001 cycles: 30594281 heartbeat IPC: 1.9963 cumulative IPC: 1.63429 (Simulation time: 0 hr 52 min 14 sec) 

Warmup complete CPU 0 instructions: 50000001 cycles: 30594281 (Simulation time: 0 hr 52 min 14 sec) 

Heartbeat CPU 0 instructions: 51000000 cycles: 32244999 heartbeat IPC: 0.605796 cumulative IPC: 0.605796 (Simulation time: 0 hr 53 min 22 sec) 
Heartbeat CPU 0 instructions: 52000000 cycles: 33801939 heartbeat IPC: 0.642286 cumulative IPC: 0.623508 (Simulation time: 0 hr 54 min 35 sec) 
Heartbeat CPU 0 instructions: 53000003 cycles: 35445130 heartbeat IPC: 0.608574 cumulative IPC: 0.618449 (Simulation time: 0 hr 55 min 45 sec) 
Heartbeat CPU 0 instructions: 54000003 cycles: 37002899 heartbeat IPC: 0.641944 cumulative IPC: 0.62416 (Simulation time: 0 hr 56 min 54 sec) 
Heartbeat CPU 0 instructions: 55000001 cycles: 38864438 heartbeat IPC: 0.537189 cumulative IPC: 0.604583 (Simulation time: 0 hr 58 min 6 sec) 
Heartbeat CPU 0 instructions: 56000000 cycles: 41258150 heartbeat IPC: 0.417761 cumulative IPC: 0.562647 (Simulation time: 0 hr 59 min 18 sec) 
Heartbeat CPU 0 instructions: 57000001 cycles: 43572853 heartbeat IPC: 0.432021 cumulative IPC: 0.539351 (Simulation time: 1 hr 0 min 29 sec) 
Heartbeat CPU 0 instructions: 58000001 cycles: 45887102 heartbeat IPC: 0.432106 cumulative IPC: 0.523121 (Simulation time: 1 hr 1 min 42 sec) 
Heartbeat CPU 0 instructions: 59000003 cycles: 48237453 heartbeat IPC: 0.425469 cumulative IPC: 0.510112 (Simulation time: 1 hr 3 min 8 sec) 
Heartbeat CPU 0 instructions: 60000000 cycles: 50596022 heartbeat IPC: 0.423985 cumulative IPC: 0.499956 (Simulation time: 1 hr 4 min 31 sec) 
Heartbeat CPU 0 instructions: 61000003 cycles: 52937699 heartbeat IPC: 0.427046 cumulative IPC: 0.492315 (Simulation time: 1 hr 5 min 55 sec) 
Heartbeat CPU 0 instructions: 62000001 cycles: 55270962 heartbeat IPC: 0.428584 cumulative IPC: 0.486289 (Simulation time: 1 hr 7 min 23 sec) 
Heartbeat CPU 0 instructions: 63000000 cycles: 57245168 heartbeat IPC: 0.506532 cumulative IPC: 0.487789 (Simulation time: 1 hr 8 min 46 sec) 
Heartbeat CPU 0 instructions: 64000000 cycles: 58471740 heartbeat IPC: 0.81528 cumulative IPC: 0.502198 (Simulation time: 1 hr 9 min 50 sec) 
Heartbeat CPU 0 instructions: 65000000 cycles: 59728590 heartbeat IPC: 0.79564 cumulative IPC: 0.514857 (Simulation time: 1 hr 10 min 53 sec) 
Heartbeat CPU 0 instructions: 66000002 cycles: 60977972 heartbeat IPC: 0.800397 cumulative IPC: 0.526598 (Simulation time: 1 hr 11 min 54 sec) 
Heartbeat CPU 0 instructions: 67000001 cycles: 62223489 heartbeat IPC: 0.802879 cumulative IPC: 0.537478 (Simulation time: 1 hr 12 min 56 sec) 
Heartbeat CPU 0 instructions: 68000000 cycles: 63531106 heartbeat IPC: 0.764749 cumulative IPC: 0.546501 (Simulation time: 1 hr 13 min 47 sec) 
Heartbeat CPU 0 instructions: 69000000 cycles: 64769404 heartbeat IPC: 0.80756 cumulative IPC: 0.55596 (Simulation time: 1 hr 14 min 44 sec) 
Heartbeat CPU 0 instructions: 70000000 cycles: 66039996 heartbeat IPC: 0.787035 cumulative IPC: 0.564243 (Simulation time: 1 hr 15 min 38 sec) 
Heartbeat CPU 0 instructions: 71000003 cycles: 67277445 heartbeat IPC: 0.808117 cumulative IPC: 0.57247 (Simulation time: 1 hr 16 min 36 sec) 
Heartbeat CPU 0 instructions: 72000000 cycles: 68542022 heartbeat IPC: 0.790776 cumulative IPC: 0.579745 (Simulation time: 1 hr 17 min 29 sec) 
Heartbeat CPU 0 instructions: 73000000 cycles: 69808671 heartbeat IPC: 0.789485 cumulative IPC: 0.586519 (Simulation time: 1 hr 18 min 15 sec) 
Heartbeat CPU 0 instructions: 74000000 cycles: 71049061 heartbeat IPC: 0.806198 cumulative IPC: 0.593255 (Simulation time: 1 hr 18 min 57 sec) 
Heartbeat CPU 0 instructions: 75000003 cycles: 72335479 heartbeat IPC: 0.777355 cumulative IPC: 0.598929 (Simulation time: 1 hr 19 min 44 sec) 
Heartbeat CPU 0 instructions: 76000000 cycles: 73579920 heartbeat IPC: 0.803571 cumulative IPC: 0.604853 (Simulation time: 1 hr 20 min 32 sec) 
Heartbeat CPU 0 instructions: 77000000 cycles: 74871628 heartbeat IPC: 0.774169 cumulative IPC: 0.609793 (Simulation time: 1 hr 21 min 16 sec) 
Heartbeat CPU 0 instructions: 78000001 cycles: 76134799 heartbeat IPC: 0.791659 cumulative IPC: 0.614837 (Simulation time: 1 hr 22 min 0 sec) 
Heartbeat CPU 0 instructions: 79000001 cycles: 77422887 heartbeat IPC: 0.776344 cumulative IPC: 0.61928 (Simulation time: 1 hr 22 min 41 sec) 
Heartbeat CPU 0 instructions: 80000000 cycles: 78701170 heartbeat IPC: 0.782299 cumulative IPC: 0.623611 (Simulation time: 1 hr 23 min 24 sec) 
Heartbeat CPU 0 instructions: 81000000 cycles: 79944747 heartbeat IPC: 0.804132 cumulative IPC: 0.62816 (Simulation time: 1 hr 24 min 2 sec) 
Heartbeat CPU 0 instructions: 82000003 cycles: 81232301 heartbeat IPC: 0.776669 cumulative IPC: 0.631936 (Simulation time: 1 hr 24 min 39 sec) 
Heartbeat CPU 0 instructions: 83000001 cycles: 82487409 heartbeat IPC: 0.796743 cumulative IPC: 0.635922 (Simulation time: 1 hr 25 min 18 sec) 
Heartbeat CPU 0 instructions: 84000000 cycles: 83768603 heartbeat IPC: 0.780521 cumulative IPC: 0.639406 (Simulation time: 1 hr 25 min 55 sec) 
Heartbeat CPU 0 instructions: 85000001 cycles: 85022718 heartbeat IPC: 0.797376 cumulative IPC: 0.643046 (Simulation time: 1 hr 26 min 29 sec) 
Heartbeat CPU 0 instructions: 86000003 cycles: 86301348 heartbeat IPC: 0.782089 cumulative IPC: 0.646238 (Simulation time: 1 hr 27 min 4 sec) 
Heartbeat CPU 0 instructions: 87000001 cycles: 87563157 heartbeat IPC: 0.792511 cumulative IPC: 0.649477 (Simulation time: 1 hr 27 min 37 sec) 
Heartbeat CPU 0 instructions: 88000000 cycles: 88831986 heartbeat IPC: 0.788127 cumulative IPC: 0.652498 (Simulation time: 1 hr 28 min 8 sec) 
Heartbeat CPU 0 instructions: 89000001 cycles: 90124047 heartbeat IPC: 0.773958 cumulative IPC: 0.655134 (Simulation time: 1 hr 28 min 37 sec) 
Heartbeat CPU 0 instructions: 90000002 cycles: 91393731 heartbeat IPC: 0.787598 cumulative IPC: 0.657901 (Simulation time: 1 hr 29 min 5 sec) 
Heartbeat CPU 0 instructions: 91000000 cycles: 92682630 heartbeat IPC: 0.775854 cumulative IPC: 0.660349 (Simulation time: 1 hr 29 min 32 sec) 
Heartbeat CPU 0 instructions: 92000000 cycles: 93932289 heartbeat IPC: 0.800218 cumulative IPC: 0.663109 (Simulation time: 1 hr 30 min 4 sec) 
Heartbeat CPU 0 instructions: 93000002 cycles: 95224815 heartbeat IPC: 0.77368 cumulative IPC: 0.66532 (Simulation time: 1 hr 30 min 34 sec) 
Heartbeat CPU 0 instructions: 94000000 cycles: 96465807 heartbeat IPC: 0.805805 cumulative IPC: 0.667967 (Simulation time: 1 hr 30 min 58 sec) 
Heartbeat CPU 0 instructions: 95000003 cycles: 97711807 heartbeat IPC: 0.802571 cumulative IPC: 0.670466 (Simulation time: 1 hr 31 min 25 sec) 
Heartbeat CPU 0 instructions: 96000000 cycles: 98992871 heartbeat IPC: 0.780599 cumulative IPC: 0.672528 (Simulation time: 1 hr 31 min 51 sec) 
Heartbeat CPU 0 instructions: 97000001 cycles: 100234571 heartbeat IPC: 0.805348 cumulative IPC: 0.674897 (Simulation time: 1 hr 32 min 17 sec) 
Heartbeat CPU 0 instructions: 98000002 cycles: 101528426 heartbeat IPC: 0.772885 cumulative IPC: 0.676684 (Simulation time: 1 hr 32 min 38 sec) 
Heartbeat CPU 0 instructions: 99000000 cycles: 102771453 heartbeat IPC: 0.804486 cumulative IPC: 0.678885 (Simulation time: 1 hr 32 min 57 sec) 
Heartbeat CPU 0 instructions: 100000000 cycles: 104069113 heartbeat IPC: 0.770618 cumulative IPC: 0.680505 (Simulation time: 1 hr 33 min 16 sec) 
Heartbeat CPU 0 instructions: 101000000 cycles: 105318567 heartbeat IPC: 0.80035 cumulative IPC: 0.682509 (Simulation time: 1 hr 33 min 33 sec) 
Heartbeat CPU 0 instructions: 102000001 cycles: 106568799 heartbeat IPC: 0.799852 cumulative IPC: 0.68444 (Simulation time: 1 hr 33 min 48 sec) 
Heartbeat CPU 0 instructions: 103000002 cycles: 107866745 heartbeat IPC: 0.770449 cumulative IPC: 0.685885 (Simulation time: 1 hr 34 min 1 sec) 
Heartbeat CPU 0 instructions: 104000000 cycles: 109106073 heartbeat IPC: 0.806887 cumulative IPC: 0.687795 (Simulation time: 1 hr 34 min 15 sec) 
Heartbeat CPU 0 instructions: 105000001 cycles: 110403132 heartbeat IPC: 0.770976 cumulative IPC: 0.689147 (Simulation time: 1 hr 34 min 27 sec) 
Heartbeat CPU 0 instructions: 106000002 cycles: 111648756 heartbeat IPC: 0.802811 cumulative IPC: 0.690893 (Simulation time: 1 hr 34 min 38 sec) 
Heartbeat CPU 0 instructions: 107000000 cycles: 112934122 heartbeat IPC: 0.777987 cumulative IPC: 0.692253 (Simulation time: 1 hr 34 min 48 sec) 
Heartbeat CPU 0 instructions: 108000000 cycles: 114186446 heartbeat IPC: 0.798515 cumulative IPC: 0.693845 (Simulation time: 1 hr 34 min 58 sec) 
Heartbeat CPU 0 instructions: 109000003 cycles: 115433538 heartbeat IPC: 0.801868 cumulative IPC: 0.695433 (Simulation time: 1 hr 35 min 8 sec) 
Heartbeat CPU 0 instructions: 110000001 cycles: 116730547 heartbeat IPC: 0.771003 cumulative IPC: 0.696571 (Simulation time: 1 hr 35 min 17 sec) 
Heartbeat CPU 0 instructions: 111000001 cycles: 117972657 heartbeat IPC: 0.805082 cumulative IPC: 0.698113 (Simulation time: 1 hr 35 min 26 sec) 
Heartbeat CPU 0 instructions: 112000000 cycles: 119309610 heartbeat IPC: 0.747969 cumulative IPC: 0.698865 (Simulation time: 1 hr 35 min 35 sec) 
Heartbeat CPU 0 instructions: 113000000 cycles: 120968463 heartbeat IPC: 0.602826 cumulative IPC: 0.697102 (Simulation time: 1 hr 35 min 43 sec) 
Heartbeat CPU 0 instructions: 114000000 cycles: 122568605 heartbeat IPC: 0.624945 cumulative IPC: 0.695846 (Simulation time: 1 hr 35 min 50 sec) 
Heartbeat CPU 0 instructions: 115000000 cycles: 124187214 heartbeat IPC: 0.617814 cumulative IPC: 0.694497 (Simulation time: 1 hr 35 min 57 sec) 
Heartbeat CPU 0 instructions: 116000000 cycles: 125809457 heartbeat IPC: 0.61643 cumulative IPC: 0.693167 (Simulation time: 1 hr 36 min 4 sec) 
Heartbeat CPU 0 instructions: 117000002 cycles: 127432311 heartbeat IPC: 0.6162 cumulative IPC: 0.691877 (Simulation time: 1 hr 36 min 10 sec) 
Heartbeat CPU 0 instructions: 118000000 cycles: 129065234 heartbeat IPC: 0.612398 cumulative IPC: 0.690559 (Simulation time: 1 hr 36 min 17 sec) 
Heartbeat CPU 0 instructions: 119000001 cycles: 130698009 heartbeat IPC: 0.612455 cumulative IPC: 0.689285 (Simulation time: 1 hr 36 min 22 sec) 
Heartbeat CPU 0 instructions: 120000000 cycles: 132367816 heartbeat IPC: 0.598871 cumulative IPC: 0.687802 (Simulation time: 1 hr 36 min 28 sec) 
Heartbeat CPU 0 instructions: 121000002 cycles: 134021418 heartbeat IPC: 0.604742 cumulative IPC: 0.686474 (Simulation time: 1 hr 36 min 33 sec) 
Heartbeat CPU 0 instructions: 122000000 cycles: 135704439 heartbeat IPC: 0.594168 cumulative IPC: 0.684996 (Simulation time: 1 hr 36 min 39 sec) 
Heartbeat CPU 0 instructions: 123000002 cycles: 137356699 heartbeat IPC: 0.605233 cumulative IPC: 0.683761 (Simulation time: 1 hr 36 min 44 sec) 
Heartbeat CPU 0 instructions: 124000000 cycles: 139012139 heartbeat IPC: 0.604068 cumulative IPC: 0.682544 (Simulation time: 1 hr 36 min 50 sec) 
Heartbeat CPU 0 instructions: 125000003 cycles: 140673896 heartbeat IPC: 0.601775 cumulative IPC: 0.681325 (Simulation time: 1 hr 36 min 55 sec) 
Heartbeat CPU 0 instructions: 126000000 cycles: 142317405 heartbeat IPC: 0.608452 cumulative IPC: 0.680253 (Simulation time: 1 hr 37 min 0 sec) 
Heartbeat CPU 0 instructions: 127000001 cycles: 144010944 heartbeat IPC: 0.59048 cumulative IPC: 0.678913 (Simulation time: 1 hr 37 min 5 sec) 
Heartbeat CPU 0 instructions: 128000000 cycles: 145658441 heartbeat IPC: 0.606981 cumulative IPC: 0.677883 (Simulation time: 1 hr 37 min 11 sec) 
Heartbeat CPU 0 instructions: 129000001 cycles: 147295893 heartbeat IPC: 0.610706 cumulative IPC: 0.67694 (Simulation time: 1 hr 37 min 16 sec) 
Heartbeat CPU 0 instructions: 130000003 cycles: 148970928 heartbeat IPC: 0.597004 cumulative IPC: 0.675809 (Simulation time: 1 hr 37 min 21 sec) 
Heartbeat CPU 0 instructions: 131000001 cycles: 154414310 heartbeat IPC: 0.183709 cumulative IPC: 0.654175 (Simulation time: 1 hr 37 min 31 sec) 
Heartbeat CPU 0 instructions: 132000000 cycles: 157323340 heartbeat IPC: 0.343757 cumulative IPC: 0.64705 (Simulation time: 1 hr 37 min 41 sec) 
Heartbeat CPU 0 instructions: 133000002 cycles: 159906225 heartbeat IPC: 0.387165 cumulative IPC: 0.641859 (Simulation time: 1 hr 37 min 49 sec) 
Heartbeat CPU 0 instructions: 134000000 cycles: 161259445 heartbeat IPC: 0.738977 cumulative IPC: 0.642865 (Simulation time: 1 hr 37 min 53 sec) 
Heartbeat CPU 0 instructions: 135000001 cycles: 162524209 heartbeat IPC: 0.790662 cumulative IPC: 0.644281 (Simulation time: 1 hr 37 min 57 sec) 
Heartbeat CPU 0 instructions: 136000000 cycles: 163793472 heartbeat IPC: 0.787858 cumulative IPC: 0.64565 (Simulation time: 1 hr 38 min 2 sec) 
Heartbeat CPU 0 instructions: 137000001 cycles: 165218936 heartbeat IPC: 0.701527 cumulative IPC: 0.646241 (Simulation time: 1 hr 38 min 6 sec) 
Heartbeat CPU 0 instructions: 138000003 cycles: 166762881 heartbeat IPC: 0.647693 cumulative IPC: 0.646258 (Simulation time: 1 hr 38 min 11 sec) 
Heartbeat CPU 0 instructions: 139000001 cycles: 168268346 heartbeat IPC: 0.664245 cumulative IPC: 0.646454 (Simulation time: 1 hr 38 min 16 sec) 
Heartbeat CPU 0 instructions: 140000000 cycles: 169788545 heartbeat IPC: 0.657808 cumulative IPC: 0.646578 (Simulation time: 1 hr 38 min 21 sec) 
Heartbeat CPU 0 instructions: 141000003 cycles: 171307553 heartbeat IPC: 0.658326 cumulative IPC: 0.646705 (Simulation time: 1 hr 38 min 26 sec) 
Heartbeat CPU 0 instructions: 142000003 cycles: 172858750 heartbeat IPC: 0.644663 cumulative IPC: 0.646683 (Simulation time: 1 hr 38 min 30 sec) 
Heartbeat CPU 0 instructions: 143000000 cycles: 174366413 heartbeat IPC: 0.663276 cumulative IPC: 0.646857 (Simulation time: 1 hr 38 min 35 sec) 
Heartbeat CPU 0 instructions: 144000000 cycles: 175879872 heartbeat IPC: 0.660738 cumulative IPC: 0.647002 (Simulation time: 1 hr 38 min 40 sec) 
Heartbeat CPU 0 instructions: 145000001 cycles: 177424543 heartbeat IPC: 0.647388 cumulative IPC: 0.647006 (Simulation time: 1 hr 38 min 45 sec) 
Heartbeat CPU 0 instructions: 146000003 cycles: 178948533 heartbeat IPC: 0.656174 cumulative IPC: 0.6471 (Simulation time: 1 hr 38 min 49 sec) 
Heartbeat CPU 0 instructions: 147000000 cycles: 180992201 heartbeat IPC: 0.489315 cumulative IPC: 0.644956 (Simulation time: 1 hr 38 min 54 sec) 
Heartbeat CPU 0 instructions: 148000000 cycles: 183454759 heartbeat IPC: 0.406082 cumulative IPC: 0.641107 (Simulation time: 1 hr 39 min 0 sec) 
Heartbeat CPU 0 instructions: 149000003 cycles: 185858240 heartbeat IPC: 0.416064 cumulative IPC: 0.637624 (Simulation time: 1 hr 39 min 6 sec) 
Heartbeat CPU 0 instructions: 150000001 cycles: 188231378 heartbeat IPC: 0.421382 cumulative IPC: 0.634368 (Simulation time: 1 hr 39 min 12 sec) 
Finished CPU 0 instructions: 100000000 cycles: 157637097 cummulative IPC: 0.634368 (Simulation time: 1 hr 39 min 12 sec) 

ChampSim completed all CPUs

Region of Interest Statistics

CPU 0 cummulative IPC: 0.634368 instructions: 100000000 cycles: 157637097
LLC TOTAL     ACCESS:    4660848  HIT:    1254447  MISS:    3406401
LLC LOAD      ACCESS:     475014  HIT:     124643  MISS:     350371
LLC RFO       ACCESS:     797459  HIT:      90852  MISS:     706607
LLC PREFETCH  ACCESS:    2243893  HIT:     522069  MISS:    1721824
LLC WRITEBACK ACCESS:    1144482  HIT:     516883  MISS:     627599
OPTgen accesses: 23824
OPTgen hits: 11436
OPTgen hit rate: 48.002


