
*** ChampSim Multicore Out-of-Order Simulator ***

Warmup Instructions: 50000000
Simulation Instructions: 100000000
Configuration: 2
Number of CPUs: 1
LLC sets: 2048
LLC ways: 16
Off-chip DRAM Channels: 1 Width: 64-bit Data Rate: 1600 MT/s

CPU 0 runs /datasets/cs240c-wi22-a00-public/data/Assignment2-gz/milc_744B.trace.gz
CPU 0 L1D next line prefetcher
CPU 0 L2C IP-based stride prefetcher
Initialize Hawkeye state
Heartbeat CPU 0 instructions: 1000000 cycles: 383656 heartbeat IPC: 2.6065 cumulative IPC: 2.6065 (Simulation time: 0 hr 0 min 38 sec) 
Heartbeat CPU 0 instructions: 2000001 cycles: 767293 heartbeat IPC: 2.60663 cumulative IPC: 2.60657 (Simulation time: 0 hr 1 min 15 sec) 
Heartbeat CPU 0 instructions: 3000001 cycles: 1150974 heartbeat IPC: 2.60633 cumulative IPC: 2.60649 (Simulation time: 0 hr 1 min 49 sec) 
Heartbeat CPU 0 instructions: 4000000 cycles: 1534617 heartbeat IPC: 2.60659 cumulative IPC: 2.60651 (Simulation time: 0 hr 2 min 26 sec) 
Heartbeat CPU 0 instructions: 5000001 cycles: 1918298 heartbeat IPC: 2.60633 cumulative IPC: 2.60648 (Simulation time: 0 hr 2 min 58 sec) 
Heartbeat CPU 0 instructions: 6000002 cycles: 2301951 heartbeat IPC: 2.60652 cumulative IPC: 2.60649 (Simulation time: 0 hr 3 min 35 sec) 
Heartbeat CPU 0 instructions: 7000002 cycles: 2685605 heartbeat IPC: 2.60652 cumulative IPC: 2.60649 (Simulation time: 0 hr 4 min 7 sec) 
Heartbeat CPU 0 instructions: 8000000 cycles: 3069239 heartbeat IPC: 2.60665 cumulative IPC: 2.60651 (Simulation time: 0 hr 4 min 39 sec) 
Heartbeat CPU 0 instructions: 9000003 cycles: 3452946 heartbeat IPC: 2.60616 cumulative IPC: 2.60647 (Simulation time: 0 hr 5 min 10 sec) 
Heartbeat CPU 0 instructions: 10000002 cycles: 3836611 heartbeat IPC: 2.60644 cumulative IPC: 2.60647 (Simulation time: 0 hr 5 min 41 sec) 
Heartbeat CPU 0 instructions: 11000003 cycles: 4220269 heartbeat IPC: 2.60649 cumulative IPC: 2.60647 (Simulation time: 0 hr 6 min 11 sec) 
Heartbeat CPU 0 instructions: 12000000 cycles: 4603919 heartbeat IPC: 2.60653 cumulative IPC: 2.60648 (Simulation time: 0 hr 6 min 43 sec) 
Heartbeat CPU 0 instructions: 13000002 cycles: 4987595 heartbeat IPC: 2.60637 cumulative IPC: 2.60647 (Simulation time: 0 hr 7 min 16 sec) 
Heartbeat CPU 0 instructions: 14000001 cycles: 5371239 heartbeat IPC: 2.60658 cumulative IPC: 2.60648 (Simulation time: 0 hr 7 min 50 sec) 
Heartbeat CPU 0 instructions: 15000001 cycles: 5754911 heartbeat IPC: 2.60639 cumulative IPC: 2.60647 (Simulation time: 0 hr 8 min 19 sec) 
Heartbeat CPU 0 instructions: 16000000 cycles: 6138558 heartbeat IPC: 2.60656 cumulative IPC: 2.60648 (Simulation time: 0 hr 8 min 52 sec) 
Heartbeat CPU 0 instructions: 17000001 cycles: 6522213 heartbeat IPC: 2.60651 cumulative IPC: 2.60648 (Simulation time: 0 hr 9 min 23 sec) 
Heartbeat CPU 0 instructions: 18000003 cycles: 6905855 heartbeat IPC: 2.6066 cumulative IPC: 2.60648 (Simulation time: 0 hr 9 min 55 sec) 
Heartbeat CPU 0 instructions: 19000002 cycles: 7289496 heartbeat IPC: 2.6066 cumulative IPC: 2.60649 (Simulation time: 0 hr 10 min 29 sec) 
Heartbeat CPU 0 instructions: 20000000 cycles: 7673132 heartbeat IPC: 2.60663 cumulative IPC: 2.6065 (Simulation time: 0 hr 10 min 59 sec) 
Heartbeat CPU 0 instructions: 21000003 cycles: 8056837 heartbeat IPC: 2.60618 cumulative IPC: 2.60648 (Simulation time: 0 hr 11 min 33 sec) 
Heartbeat CPU 0 instructions: 22000002 cycles: 8440504 heartbeat IPC: 2.60642 cumulative IPC: 2.60648 (Simulation time: 0 hr 12 min 8 sec) 
Heartbeat CPU 0 instructions: 23000000 cycles: 8824165 heartbeat IPC: 2.60646 cumulative IPC: 2.60648 (Simulation time: 0 hr 12 min 40 sec) 
Heartbeat CPU 0 instructions: 24000000 cycles: 9207788 heartbeat IPC: 2.60673 cumulative IPC: 2.60649 (Simulation time: 0 hr 13 min 11 sec) 
Heartbeat CPU 0 instructions: 25000002 cycles: 9591463 heartbeat IPC: 2.60638 cumulative IPC: 2.60648 (Simulation time: 0 hr 13 min 43 sec) 
Heartbeat CPU 0 instructions: 26000001 cycles: 9975122 heartbeat IPC: 2.60648 cumulative IPC: 2.60648 (Simulation time: 0 hr 14 min 14 sec) 
Heartbeat CPU 0 instructions: 27000001 cycles: 10358818 heartbeat IPC: 2.60623 cumulative IPC: 2.60648 (Simulation time: 0 hr 14 min 42 sec) 
Heartbeat CPU 0 instructions: 28000000 cycles: 10742467 heartbeat IPC: 2.60655 cumulative IPC: 2.60648 (Simulation time: 0 hr 15 min 15 sec) 
Heartbeat CPU 0 instructions: 29000000 cycles: 11126140 heartbeat IPC: 2.60639 cumulative IPC: 2.60647 (Simulation time: 0 hr 15 min 47 sec) 
Heartbeat CPU 0 instructions: 30000003 cycles: 11509791 heartbeat IPC: 2.60654 cumulative IPC: 2.60648 (Simulation time: 0 hr 16 min 21 sec) 
Heartbeat CPU 0 instructions: 31000002 cycles: 11893424 heartbeat IPC: 2.60666 cumulative IPC: 2.60648 (Simulation time: 0 hr 16 min 56 sec) 
Heartbeat CPU 0 instructions: 32000000 cycles: 12277079 heartbeat IPC: 2.6065 cumulative IPC: 2.60648 (Simulation time: 0 hr 17 min 29 sec) 
Heartbeat CPU 0 instructions: 33000001 cycles: 12660737 heartbeat IPC: 2.60649 cumulative IPC: 2.60648 (Simulation time: 0 hr 17 min 59 sec) 
Heartbeat CPU 0 instructions: 34000002 cycles: 13044413 heartbeat IPC: 2.60637 cumulative IPC: 2.60648 (Simulation time: 0 hr 18 min 33 sec) 
Heartbeat CPU 0 instructions: 35000000 cycles: 13428051 heartbeat IPC: 2.60662 cumulative IPC: 2.60648 (Simulation time: 0 hr 19 min 2 sec) 
Heartbeat CPU 0 instructions: 36000000 cycles: 13811694 heartbeat IPC: 2.60659 cumulative IPC: 2.60649 (Simulation time: 0 hr 19 min 33 sec) 
Heartbeat CPU 0 instructions: 37000001 cycles: 14195360 heartbeat IPC: 2.60644 cumulative IPC: 2.60649 (Simulation time: 0 hr 20 min 5 sec) 
Heartbeat CPU 0 instructions: 38000000 cycles: 14579025 heartbeat IPC: 2.60644 cumulative IPC: 2.60648 (Simulation time: 0 hr 20 min 38 sec) 
Heartbeat CPU 0 instructions: 39000002 cycles: 14962680 heartbeat IPC: 2.60651 cumulative IPC: 2.60649 (Simulation time: 0 hr 21 min 11 sec) 
Heartbeat CPU 0 instructions: 40000000 cycles: 15346358 heartbeat IPC: 2.60635 cumulative IPC: 2.60648 (Simulation time: 0 hr 21 min 43 sec) 
Heartbeat CPU 0 instructions: 41000003 cycles: 15730024 heartbeat IPC: 2.60644 cumulative IPC: 2.60648 (Simulation time: 0 hr 22 min 13 sec) 
Heartbeat CPU 0 instructions: 42000002 cycles: 16113669 heartbeat IPC: 2.60657 cumulative IPC: 2.60648 (Simulation time: 0 hr 22 min 47 sec) 
Heartbeat CPU 0 instructions: 43000002 cycles: 16497335 heartbeat IPC: 2.60643 cumulative IPC: 2.60648 (Simulation time: 0 hr 23 min 18 sec) 
Heartbeat CPU 0 instructions: 44000000 cycles: 16880988 heartbeat IPC: 2.60652 cumulative IPC: 2.60648 (Simulation time: 0 hr 23 min 50 sec) 
Heartbeat CPU 0 instructions: 45000000 cycles: 17264648 heartbeat IPC: 2.60647 cumulative IPC: 2.60648 (Simulation time: 0 hr 24 min 20 sec) 
Heartbeat CPU 0 instructions: 46000002 cycles: 17648338 heartbeat IPC: 2.60628 cumulative IPC: 2.60648 (Simulation time: 0 hr 24 min 55 sec) 
Heartbeat CPU 0 instructions: 47000002 cycles: 18031991 heartbeat IPC: 2.60652 cumulative IPC: 2.60648 (Simulation time: 0 hr 25 min 28 sec) 
Heartbeat CPU 0 instructions: 48000000 cycles: 18415635 heartbeat IPC: 2.60658 cumulative IPC: 2.60648 (Simulation time: 0 hr 26 min 7 sec) 
Heartbeat CPU 0 instructions: 49000001 cycles: 18799298 heartbeat IPC: 2.60646 cumulative IPC: 2.60648 (Simulation time: 0 hr 26 min 40 sec) 
Heartbeat CPU 0 instructions: 50000000 cycles: 19182930 heartbeat IPC: 2.60666 cumulative IPC: 2.60648 (Simulation time: 0 hr 27 min 12 sec) 

Warmup complete CPU 0 instructions: 50000004 cycles: 19182931 (Simulation time: 0 hr 27 min 12 sec) 

Heartbeat CPU 0 instructions: 51000001 cycles: 20635215 heartbeat IPC: 0.688571 cumulative IPC: 0.688568 (Simulation time: 0 hr 27 min 47 sec) 
Heartbeat CPU 0 instructions: 52000000 cycles: 22064991 heartbeat IPC: 0.69941 cumulative IPC: 0.693947 (Simulation time: 0 hr 28 min 22 sec) 
Heartbeat CPU 0 instructions: 53000000 cycles: 23486458 heartbeat IPC: 0.703499 cumulative IPC: 0.697102 (Simulation time: 0 hr 28 min 57 sec) 
Heartbeat CPU 0 instructions: 54000001 cycles: 24910660 heartbeat IPC: 0.702148 cumulative IPC: 0.698357 (Simulation time: 0 hr 29 min 40 sec) 
Heartbeat CPU 0 instructions: 55000003 cycles: 26339461 heartbeat IPC: 0.699889 cumulative IPC: 0.698662 (Simulation time: 0 hr 30 min 26 sec) 
Heartbeat CPU 0 instructions: 56000000 cycles: 27769359 heartbeat IPC: 0.699349 cumulative IPC: 0.698777 (Simulation time: 0 hr 31 min 6 sec) 
Heartbeat CPU 0 instructions: 57000000 cycles: 29192111 heartbeat IPC: 0.702863 cumulative IPC: 0.699358 (Simulation time: 0 hr 31 min 43 sec) 
Heartbeat CPU 0 instructions: 58000000 cycles: 30610302 heartbeat IPC: 0.705124 cumulative IPC: 0.700073 (Simulation time: 0 hr 32 min 23 sec) 
Heartbeat CPU 0 instructions: 59000002 cycles: 32035280 heartbeat IPC: 0.701767 cumulative IPC: 0.700261 (Simulation time: 0 hr 33 min 5 sec) 
Heartbeat CPU 0 instructions: 60000000 cycles: 33448387 heartbeat IPC: 0.707659 cumulative IPC: 0.700994 (Simulation time: 0 hr 33 min 48 sec) 
Heartbeat CPU 0 instructions: 61000001 cycles: 34872179 heartbeat IPC: 0.70235 cumulative IPC: 0.701117 (Simulation time: 0 hr 34 min 29 sec) 
Heartbeat CPU 0 instructions: 62000003 cycles: 36301235 heartbeat IPC: 0.699764 cumulative IPC: 0.701004 (Simulation time: 0 hr 35 min 11 sec) 
Heartbeat CPU 0 instructions: 63000001 cycles: 37722920 heartbeat IPC: 0.703389 cumulative IPC: 0.701187 (Simulation time: 0 hr 35 min 49 sec) 
Heartbeat CPU 0 instructions: 64000000 cycles: 39141017 heartbeat IPC: 0.70517 cumulative IPC: 0.70147 (Simulation time: 0 hr 36 min 21 sec) 
Heartbeat CPU 0 instructions: 65000002 cycles: 40565372 heartbeat IPC: 0.702074 cumulative IPC: 0.70151 (Simulation time: 0 hr 37 min 2 sec) 
Heartbeat CPU 0 instructions: 66000001 cycles: 41981010 heartbeat IPC: 0.706395 cumulative IPC: 0.701813 (Simulation time: 0 hr 37 min 37 sec) 
Heartbeat CPU 0 instructions: 67000003 cycles: 43403094 heartbeat IPC: 0.703195 cumulative IPC: 0.701894 (Simulation time: 0 hr 38 min 9 sec) 
Heartbeat CPU 0 instructions: 68000000 cycles: 44832063 heartbeat IPC: 0.699803 cumulative IPC: 0.701778 (Simulation time: 0 hr 38 min 49 sec) 
Heartbeat CPU 0 instructions: 69000003 cycles: 46255482 heartbeat IPC: 0.702536 cumulative IPC: 0.701818 (Simulation time: 0 hr 39 min 29 sec) 
Heartbeat CPU 0 instructions: 70000002 cycles: 47675084 heartbeat IPC: 0.704422 cumulative IPC: 0.701948 (Simulation time: 0 hr 40 min 3 sec) 
Heartbeat CPU 0 instructions: 71000002 cycles: 49089939 heartbeat IPC: 0.706786 cumulative IPC: 0.702177 (Simulation time: 0 hr 40 min 38 sec) 
Heartbeat CPU 0 instructions: 72000000 cycles: 50513960 heartbeat IPC: 0.702235 cumulative IPC: 0.702179 (Simulation time: 0 hr 41 min 18 sec) 
Heartbeat CPU 0 instructions: 73000002 cycles: 51933554 heartbeat IPC: 0.704428 cumulative IPC: 0.702277 (Simulation time: 0 hr 41 min 53 sec) 
Heartbeat CPU 0 instructions: 74000002 cycles: 53353881 heartbeat IPC: 0.704063 cumulative IPC: 0.702351 (Simulation time: 0 hr 42 min 26 sec) 
Heartbeat CPU 0 instructions: 75000001 cycles: 54769156 heartbeat IPC: 0.706576 cumulative IPC: 0.702519 (Simulation time: 0 hr 43 min 3 sec) 
Heartbeat CPU 0 instructions: 76000000 cycles: 56193643 heartbeat IPC: 0.702006 cumulative IPC: 0.702499 (Simulation time: 0 hr 43 min 42 sec) 
Heartbeat CPU 0 instructions: 77000002 cycles: 57615690 heartbeat IPC: 0.703213 cumulative IPC: 0.702526 (Simulation time: 0 hr 44 min 23 sec) 
Heartbeat CPU 0 instructions: 78000000 cycles: 59037625 heartbeat IPC: 0.703266 cumulative IPC: 0.702552 (Simulation time: 0 hr 45 min 6 sec) 
Heartbeat CPU 0 instructions: 79000000 cycles: 60463784 heartbeat IPC: 0.701184 cumulative IPC: 0.702505 (Simulation time: 0 hr 45 min 40 sec) 
Heartbeat CPU 0 instructions: 80000000 cycles: 61887209 heartbeat IPC: 0.702531 cumulative IPC: 0.702506 (Simulation time: 0 hr 46 min 13 sec) 
Heartbeat CPU 0 instructions: 81000003 cycles: 63306499 heartbeat IPC: 0.70458 cumulative IPC: 0.702572 (Simulation time: 0 hr 46 min 50 sec) 
Heartbeat CPU 0 instructions: 82000003 cycles: 64727800 heartbeat IPC: 0.703581 cumulative IPC: 0.702604 (Simulation time: 0 hr 47 min 31 sec) 
Heartbeat CPU 0 instructions: 83000002 cycles: 66145969 heartbeat IPC: 0.705134 cumulative IPC: 0.70268 (Simulation time: 0 hr 48 min 9 sec) 
Heartbeat CPU 0 instructions: 84000000 cycles: 67567377 heartbeat IPC: 0.703526 cumulative IPC: 0.702705 (Simulation time: 0 hr 48 min 43 sec) 
Heartbeat CPU 0 instructions: 85000000 cycles: 68985421 heartbeat IPC: 0.705197 cumulative IPC: 0.702776 (Simulation time: 0 hr 49 min 16 sec) 
Heartbeat CPU 0 instructions: 86000001 cycles: 70399738 heartbeat IPC: 0.707056 cumulative IPC: 0.702894 (Simulation time: 0 hr 49 min 55 sec) 
Heartbeat CPU 0 instructions: 87000001 cycles: 71824041 heartbeat IPC: 0.702098 cumulative IPC: 0.702873 (Simulation time: 0 hr 50 min 31 sec) 
Heartbeat CPU 0 instructions: 88000000 cycles: 73246196 heartbeat IPC: 0.703158 cumulative IPC: 0.70288 (Simulation time: 0 hr 51 min 2 sec) 
Heartbeat CPU 0 instructions: 89000001 cycles: 74661569 heartbeat IPC: 0.706528 cumulative IPC: 0.702973 (Simulation time: 0 hr 51 min 35 sec) 
Heartbeat CPU 0 instructions: 90000000 cycles: 76084341 heartbeat IPC: 0.702853 cumulative IPC: 0.70297 (Simulation time: 0 hr 52 min 8 sec) 
Heartbeat CPU 0 instructions: 91000001 cycles: 77507384 heartbeat IPC: 0.70272 cumulative IPC: 0.702964 (Simulation time: 0 hr 52 min 39 sec) 
Heartbeat CPU 0 instructions: 92000000 cycles: 82172776 heartbeat IPC: 0.214344 cumulative IPC: 0.666774 (Simulation time: 0 hr 53 min 53 sec) 
Heartbeat CPU 0 instructions: 93000000 cycles: 86804776 heartbeat IPC: 0.215889 cumulative IPC: 0.635889 (Simulation time: 0 hr 55 min 13 sec) 
Heartbeat CPU 0 instructions: 94000002 cycles: 90029653 heartbeat IPC: 0.31009 cumulative IPC: 0.621059 (Simulation time: 0 hr 56 min 14 sec) 
Heartbeat CPU 0 instructions: 95000000 cycles: 91366378 heartbeat IPC: 0.748096 cumulative IPC: 0.623412 (Simulation time: 0 hr 56 min 55 sec) 
Heartbeat CPU 0 instructions: 96000000 cycles: 92718521 heartbeat IPC: 0.739567 cumulative IPC: 0.625547 (Simulation time: 0 hr 57 min 33 sec) 
Heartbeat CPU 0 instructions: 97000002 cycles: 93983366 heartbeat IPC: 0.790612 cumulative IPC: 0.628339 (Simulation time: 0 hr 58 min 4 sec) 
Heartbeat CPU 0 instructions: 98000003 cycles: 95232820 heartbeat IPC: 0.80035 cumulative IPC: 0.631165 (Simulation time: 0 hr 58 min 35 sec) 
Heartbeat CPU 0 instructions: 99000000 cycles: 96484168 heartbeat IPC: 0.799136 cumulative IPC: 0.633884 (Simulation time: 0 hr 59 min 17 sec) 
Heartbeat CPU 0 instructions: 100000000 cycles: 97730754 heartbeat IPC: 0.802191 cumulative IPC: 0.636555 (Simulation time: 0 hr 59 min 54 sec) 
Heartbeat CPU 0 instructions: 101000001 cycles: 98983964 heartbeat IPC: 0.797952 cumulative IPC: 0.639089 (Simulation time: 1 hr 0 min 29 sec) 
Heartbeat CPU 0 instructions: 102000000 cycles: 100242584 heartbeat IPC: 0.79452 cumulative IPC: 0.641503 (Simulation time: 1 hr 1 min 5 sec) 
Heartbeat CPU 0 instructions: 103000002 cycles: 101501014 heartbeat IPC: 0.794643 cumulative IPC: 0.643844 (Simulation time: 1 hr 1 min 36 sec) 
Heartbeat CPU 0 instructions: 104000000 cycles: 102760098 heartbeat IPC: 0.794227 cumulative IPC: 0.646109 (Simulation time: 1 hr 2 min 7 sec) 
Heartbeat CPU 0 instructions: 105000003 cycles: 104021731 heartbeat IPC: 0.792626 cumulative IPC: 0.648288 (Simulation time: 1 hr 2 min 40 sec) 
Heartbeat CPU 0 instructions: 106000002 cycles: 105278038 heartbeat IPC: 0.795983 cumulative IPC: 0.650443 (Simulation time: 1 hr 3 min 14 sec) 
Heartbeat CPU 0 instructions: 107000002 cycles: 106538155 heartbeat IPC: 0.793577 cumulative IPC: 0.652508 (Simulation time: 1 hr 3 min 45 sec) 
Heartbeat CPU 0 instructions: 108000000 cycles: 107801222 heartbeat IPC: 0.791722 cumulative IPC: 0.654492 (Simulation time: 1 hr 4 min 18 sec) 
Heartbeat CPU 0 instructions: 109000001 cycles: 109059034 heartbeat IPC: 0.795032 cumulative IPC: 0.656459 (Simulation time: 1 hr 4 min 48 sec) 
Heartbeat CPU 0 instructions: 110000001 cycles: 110318715 heartbeat IPC: 0.793852 cumulative IPC: 0.658358 (Simulation time: 1 hr 5 min 20 sec) 
Heartbeat CPU 0 instructions: 111000000 cycles: 111576226 heartbeat IPC: 0.795221 cumulative IPC: 0.660221 (Simulation time: 1 hr 5 min 58 sec) 
Heartbeat CPU 0 instructions: 112000000 cycles: 112836997 heartbeat IPC: 0.793165 cumulative IPC: 0.662011 (Simulation time: 1 hr 6 min 33 sec) 
Heartbeat CPU 0 instructions: 113000002 cycles: 114098482 heartbeat IPC: 0.792718 cumulative IPC: 0.663748 (Simulation time: 1 hr 7 min 10 sec) 
Heartbeat CPU 0 instructions: 114000000 cycles: 115346210 heartbeat IPC: 0.801455 cumulative IPC: 0.665535 (Simulation time: 1 hr 7 min 44 sec) 
Heartbeat CPU 0 instructions: 115000002 cycles: 116602753 heartbeat IPC: 0.795836 cumulative IPC: 0.667215 (Simulation time: 1 hr 8 min 17 sec) 
Heartbeat CPU 0 instructions: 116000000 cycles: 117860059 heartbeat IPC: 0.79535 cumulative IPC: 0.668848 (Simulation time: 1 hr 8 min 46 sec) 
Heartbeat CPU 0 instructions: 117000003 cycles: 119115475 heartbeat IPC: 0.796551 cumulative IPC: 0.670452 (Simulation time: 1 hr 9 min 18 sec) 
Heartbeat CPU 0 instructions: 118000000 cycles: 120374411 heartbeat IPC: 0.794319 cumulative IPC: 0.671993 (Simulation time: 1 hr 9 min 55 sec) 
Heartbeat CPU 0 instructions: 119000003 cycles: 121637318 heartbeat IPC: 0.791826 cumulative IPC: 0.67347 (Simulation time: 1 hr 10 min 26 sec) 
Heartbeat CPU 0 instructions: 120000000 cycles: 122897351 heartbeat IPC: 0.793628 cumulative IPC: 0.67493 (Simulation time: 1 hr 10 min 54 sec) 
Heartbeat CPU 0 instructions: 121000003 cycles: 124155534 heartbeat IPC: 0.794799 cumulative IPC: 0.676367 (Simulation time: 1 hr 11 min 26 sec) 
Heartbeat CPU 0 instructions: 122000001 cycles: 125412800 heartbeat IPC: 0.795375 cumulative IPC: 0.677775 (Simulation time: 1 hr 11 min 53 sec) 
Heartbeat CPU 0 instructions: 123000000 cycles: 126668507 heartbeat IPC: 0.796363 cumulative IPC: 0.679161 (Simulation time: 1 hr 12 min 25 sec) 
Heartbeat CPU 0 instructions: 124000000 cycles: 127925097 heartbeat IPC: 0.795805 cumulative IPC: 0.680509 (Simulation time: 1 hr 12 min 52 sec) 
Heartbeat CPU 0 instructions: 125000003 cycles: 129186756 heartbeat IPC: 0.79261 cumulative IPC: 0.681794 (Simulation time: 1 hr 13 min 23 sec) 
Heartbeat CPU 0 instructions: 126000000 cycles: 130442095 heartbeat IPC: 0.796595 cumulative IPC: 0.68309 (Simulation time: 1 hr 13 min 50 sec) 
Heartbeat CPU 0 instructions: 127000000 cycles: 131700291 heartbeat IPC: 0.794789 cumulative IPC: 0.684339 (Simulation time: 1 hr 14 min 16 sec) 
Heartbeat CPU 0 instructions: 128000000 cycles: 132956579 heartbeat IPC: 0.795996 cumulative IPC: 0.685572 (Simulation time: 1 hr 14 min 42 sec) 
Heartbeat CPU 0 instructions: 129000000 cycles: 134215150 heartbeat IPC: 0.794552 cumulative IPC: 0.686764 (Simulation time: 1 hr 15 min 9 sec) 
Heartbeat CPU 0 instructions: 130000002 cycles: 135470600 heartbeat IPC: 0.796529 cumulative IPC: 0.687949 (Simulation time: 1 hr 15 min 38 sec) 
Heartbeat CPU 0 instructions: 131000002 cycles: 136727912 heartbeat IPC: 0.795348 cumulative IPC: 0.689098 (Simulation time: 1 hr 16 min 11 sec) 
Heartbeat CPU 0 instructions: 132000000 cycles: 137987500 heartbeat IPC: 0.793909 cumulative IPC: 0.690209 (Simulation time: 1 hr 16 min 38 sec) 
Heartbeat CPU 0 instructions: 133000002 cycles: 139242664 heartbeat IPC: 0.79671 cumulative IPC: 0.691323 (Simulation time: 1 hr 17 min 4 sec) 
Heartbeat CPU 0 instructions: 134000002 cycles: 140501035 heartbeat IPC: 0.794678 cumulative IPC: 0.692395 (Simulation time: 1 hr 17 min 35 sec) 
Heartbeat CPU 0 instructions: 135000000 cycles: 141760832 heartbeat IPC: 0.793777 cumulative IPC: 0.693437 (Simulation time: 1 hr 18 min 7 sec) 
Heartbeat CPU 0 instructions: 136000000 cycles: 143018177 heartbeat IPC: 0.795327 cumulative IPC: 0.694471 (Simulation time: 1 hr 18 min 31 sec) 
Heartbeat CPU 0 instructions: 137000001 cycles: 144269869 heartbeat IPC: 0.798919 cumulative IPC: 0.695516 (Simulation time: 1 hr 18 min 56 sec) 
Heartbeat CPU 0 instructions: 138000003 cycles: 145533293 heartbeat IPC: 0.791502 cumulative IPC: 0.696476 (Simulation time: 1 hr 19 min 23 sec) 
Heartbeat CPU 0 instructions: 139000001 cycles: 146790562 heartbeat IPC: 0.795373 cumulative IPC: 0.69745 (Simulation time: 1 hr 19 min 44 sec) 
Heartbeat CPU 0 instructions: 140000000 cycles: 148052903 heartbeat IPC: 0.792178 cumulative IPC: 0.698378 (Simulation time: 1 hr 20 min 9 sec) 
Heartbeat CPU 0 instructions: 141000003 cycles: 149314430 heartbeat IPC: 0.792692 cumulative IPC: 0.699293 (Simulation time: 1 hr 20 min 31 sec) 
Heartbeat CPU 0 instructions: 142000001 cycles: 150573561 heartbeat IPC: 0.794197 cumulative IPC: 0.700202 (Simulation time: 1 hr 20 min 57 sec) 
Heartbeat CPU 0 instructions: 143000001 cycles: 151834153 heartbeat IPC: 0.793278 cumulative IPC: 0.701087 (Simulation time: 1 hr 21 min 20 sec) 
Heartbeat CPU 0 instructions: 144000000 cycles: 153087605 heartbeat IPC: 0.797796 cumulative IPC: 0.701992 (Simulation time: 1 hr 21 min 41 sec) 
Heartbeat CPU 0 instructions: 145000001 cycles: 154344409 heartbeat IPC: 0.79567 cumulative IPC: 0.702863 (Simulation time: 1 hr 22 min 3 sec) 
Heartbeat CPU 0 instructions: 146000003 cycles: 155604056 heartbeat IPC: 0.793875 cumulative IPC: 0.703703 (Simulation time: 1 hr 22 min 26 sec) 
Heartbeat CPU 0 instructions: 147000003 cycles: 156860764 heartbeat IPC: 0.79573 cumulative IPC: 0.704543 (Simulation time: 1 hr 22 min 47 sec) 
Heartbeat CPU 0 instructions: 148000000 cycles: 158121748 heartbeat IPC: 0.793029 cumulative IPC: 0.705346 (Simulation time: 1 hr 23 min 11 sec) 
Heartbeat CPU 0 instructions: 149000001 cycles: 159381536 heartbeat IPC: 0.793785 cumulative IPC: 0.706141 (Simulation time: 1 hr 23 min 33 sec) 
Heartbeat CPU 0 instructions: 150000003 cycles: 160643381 heartbeat IPC: 0.792492 cumulative IPC: 0.706911 (Simulation time: 1 hr 23 min 53 sec) 
Finished CPU 0 instructions: 100000003 cycles: 141460451 cummulative IPC: 0.706911 (Simulation time: 1 hr 23 min 53 sec) 

ChampSim completed all CPUs

Region of Interest Statistics

CPU 0 cummulative IPC: 0.706911 instructions: 100000003 cycles: 141460451
LLC TOTAL     ACCESS:    2853535  HIT:      74104  MISS:    2779431
LLC LOAD      ACCESS:     878662  HIT:        100  MISS:     878562
LLC RFO       ACCESS:     539880  HIT:       4440  MISS:     535440
LLC PREFETCH  ACCESS:     755010  HIT:       5701  MISS:     749309
LLC WRITEBACK ACCESS:     679983  HIT:      63863  MISS:     616120
OPTgen accesses: 25473
OPTgen hits: 276
OPTgen hit rate: 1.0835


