
*** ChampSim Multicore Out-of-Order Simulator ***

Warmup Instructions: 50000000
Simulation Instructions: 100000000
Configuration: 2
Number of CPUs: 1
LLC sets: 2048
LLC ways: 16
Off-chip DRAM Channels: 1 Width: 64-bit Data Rate: 1600 MT/s

CPU 0 runs /datasets/cs240c-wi22-a00-public/data/Assignment2-gz/perlbench_53B.trace.gz
CPU 0 L1D next line prefetcher
CPU 0 L2C IP-based stride prefetcher
Initialize Hawkeye state
Heartbeat CPU 0 instructions: 1000000 cycles: 615801 heartbeat IPC: 1.6239 cumulative IPC: 1.6239 (Simulation time: 0 hr 0 min 44 sec) 
Heartbeat CPU 0 instructions: 2000001 cycles: 1252973 heartbeat IPC: 1.56944 cumulative IPC: 1.5962 (Simulation time: 0 hr 1 min 23 sec) 
Heartbeat CPU 0 instructions: 3000002 cycles: 1908460 heartbeat IPC: 1.52558 cumulative IPC: 1.57195 (Simulation time: 0 hr 2 min 7 sec) 
Heartbeat CPU 0 instructions: 4000000 cycles: 2523963 heartbeat IPC: 1.62468 cumulative IPC: 1.58481 (Simulation time: 0 hr 2 min 45 sec) 
Heartbeat CPU 0 instructions: 5000001 cycles: 3151965 heartbeat IPC: 1.59235 cumulative IPC: 1.58631 (Simulation time: 0 hr 3 min 24 sec) 
Heartbeat CPU 0 instructions: 6000001 cycles: 3767465 heartbeat IPC: 1.6247 cumulative IPC: 1.59258 (Simulation time: 0 hr 4 min 6 sec) 
Heartbeat CPU 0 instructions: 7000002 cycles: 4390335 heartbeat IPC: 1.60547 cumulative IPC: 1.59441 (Simulation time: 0 hr 4 min 49 sec) 
Heartbeat CPU 0 instructions: 8000000 cycles: 5000735 heartbeat IPC: 1.63827 cumulative IPC: 1.59976 (Simulation time: 0 hr 5 min 30 sec) 
Heartbeat CPU 0 instructions: 9000000 cycles: 5652458 heartbeat IPC: 1.53439 cumulative IPC: 1.59223 (Simulation time: 0 hr 6 min 8 sec) 
Heartbeat CPU 0 instructions: 10000001 cycles: 6287747 heartbeat IPC: 1.57409 cumulative IPC: 1.59039 (Simulation time: 0 hr 6 min 48 sec) 
Heartbeat CPU 0 instructions: 11000000 cycles: 6904522 heartbeat IPC: 1.62134 cumulative IPC: 1.59316 (Simulation time: 0 hr 7 min 26 sec) 
Heartbeat CPU 0 instructions: 12000000 cycles: 7561738 heartbeat IPC: 1.52157 cumulative IPC: 1.58694 (Simulation time: 0 hr 8 min 8 sec) 
Heartbeat CPU 0 instructions: 13000000 cycles: 8151498 heartbeat IPC: 1.69561 cumulative IPC: 1.5948 (Simulation time: 0 hr 8 min 42 sec) 
Heartbeat CPU 0 instructions: 14000000 cycles: 8768411 heartbeat IPC: 1.62097 cumulative IPC: 1.59664 (Simulation time: 0 hr 9 min 20 sec) 
Heartbeat CPU 0 instructions: 15000001 cycles: 9380504 heartbeat IPC: 1.63374 cumulative IPC: 1.59906 (Simulation time: 0 hr 10 min 5 sec) 
Heartbeat CPU 0 instructions: 16000000 cycles: 9994620 heartbeat IPC: 1.62836 cumulative IPC: 1.60086 (Simulation time: 0 hr 10 min 47 sec) 
Heartbeat CPU 0 instructions: 17000002 cycles: 10626812 heartbeat IPC: 1.5818 cumulative IPC: 1.59973 (Simulation time: 0 hr 11 min 29 sec) 
Heartbeat CPU 0 instructions: 18000002 cycles: 11287236 heartbeat IPC: 1.51418 cumulative IPC: 1.59472 (Simulation time: 0 hr 12 min 10 sec) 
Heartbeat CPU 0 instructions: 19000001 cycles: 11894321 heartbeat IPC: 1.64721 cumulative IPC: 1.5974 (Simulation time: 0 hr 12 min 48 sec) 
Heartbeat CPU 0 instructions: 20000000 cycles: 12569777 heartbeat IPC: 1.48048 cumulative IPC: 1.59112 (Simulation time: 0 hr 13 min 31 sec) 
Heartbeat CPU 0 instructions: 21000000 cycles: 13182280 heartbeat IPC: 1.63265 cumulative IPC: 1.59305 (Simulation time: 0 hr 14 min 8 sec) 
Heartbeat CPU 0 instructions: 22000000 cycles: 13738005 heartbeat IPC: 1.79945 cumulative IPC: 1.6014 (Simulation time: 0 hr 14 min 40 sec) 
Heartbeat CPU 0 instructions: 23000001 cycles: 14277086 heartbeat IPC: 1.85501 cumulative IPC: 1.61097 (Simulation time: 0 hr 15 min 12 sec) 
Heartbeat CPU 0 instructions: 24000000 cycles: 14899949 heartbeat IPC: 1.60549 cumulative IPC: 1.61074 (Simulation time: 0 hr 15 min 52 sec) 
Heartbeat CPU 0 instructions: 25000000 cycles: 15452260 heartbeat IPC: 1.81057 cumulative IPC: 1.61789 (Simulation time: 0 hr 16 min 30 sec) 
Heartbeat CPU 0 instructions: 26000001 cycles: 16005861 heartbeat IPC: 1.80636 cumulative IPC: 1.62441 (Simulation time: 0 hr 17 min 10 sec) 
Heartbeat CPU 0 instructions: 27000001 cycles: 16597960 heartbeat IPC: 1.68891 cumulative IPC: 1.62671 (Simulation time: 0 hr 17 min 46 sec) 
Heartbeat CPU 0 instructions: 28000000 cycles: 17240717 heartbeat IPC: 1.5558 cumulative IPC: 1.62406 (Simulation time: 0 hr 18 min 27 sec) 
Heartbeat CPU 0 instructions: 29000000 cycles: 17852026 heartbeat IPC: 1.63583 cumulative IPC: 1.62447 (Simulation time: 0 hr 19 min 1 sec) 
Heartbeat CPU 0 instructions: 30000000 cycles: 18407010 heartbeat IPC: 1.80185 cumulative IPC: 1.62981 (Simulation time: 0 hr 19 min 37 sec) 
Heartbeat CPU 0 instructions: 31000001 cycles: 18958330 heartbeat IPC: 1.81383 cumulative IPC: 1.63517 (Simulation time: 0 hr 20 min 13 sec) 
Heartbeat CPU 0 instructions: 32000000 cycles: 19515050 heartbeat IPC: 1.79623 cumulative IPC: 1.63976 (Simulation time: 0 hr 20 min 54 sec) 
Heartbeat CPU 0 instructions: 33000003 cycles: 20104471 heartbeat IPC: 1.69659 cumulative IPC: 1.64143 (Simulation time: 0 hr 21 min 34 sec) 
Heartbeat CPU 0 instructions: 34000001 cycles: 20713055 heartbeat IPC: 1.64316 cumulative IPC: 1.64148 (Simulation time: 0 hr 22 min 17 sec) 
Heartbeat CPU 0 instructions: 35000001 cycles: 21324416 heartbeat IPC: 1.63569 cumulative IPC: 1.64131 (Simulation time: 0 hr 22 min 57 sec) 
Heartbeat CPU 0 instructions: 36000000 cycles: 21979642 heartbeat IPC: 1.52619 cumulative IPC: 1.63788 (Simulation time: 0 hr 23 min 39 sec) 
Heartbeat CPU 0 instructions: 37000002 cycles: 22613369 heartbeat IPC: 1.57797 cumulative IPC: 1.6362 (Simulation time: 0 hr 24 min 17 sec) 
Heartbeat CPU 0 instructions: 38000000 cycles: 23233418 heartbeat IPC: 1.61277 cumulative IPC: 1.63558 (Simulation time: 0 hr 24 min 59 sec) 
Heartbeat CPU 0 instructions: 39000001 cycles: 23863527 heartbeat IPC: 1.58703 cumulative IPC: 1.63429 (Simulation time: 0 hr 25 min 42 sec) 
Heartbeat CPU 0 instructions: 40000000 cycles: 24486689 heartbeat IPC: 1.60472 cumulative IPC: 1.63354 (Simulation time: 0 hr 26 min 22 sec) 
Heartbeat CPU 0 instructions: 41000002 cycles: 25110641 heartbeat IPC: 1.60269 cumulative IPC: 1.63277 (Simulation time: 0 hr 27 min 1 sec) 
Heartbeat CPU 0 instructions: 42000000 cycles: 25724430 heartbeat IPC: 1.62922 cumulative IPC: 1.63269 (Simulation time: 0 hr 27 min 41 sec) 
Heartbeat CPU 0 instructions: 43000002 cycles: 26364270 heartbeat IPC: 1.56289 cumulative IPC: 1.631 (Simulation time: 0 hr 28 min 18 sec) 
Heartbeat CPU 0 instructions: 44000000 cycles: 27024754 heartbeat IPC: 1.51404 cumulative IPC: 1.62814 (Simulation time: 0 hr 28 min 58 sec) 
Heartbeat CPU 0 instructions: 45000001 cycles: 27483289 heartbeat IPC: 2.18086 cumulative IPC: 1.63736 (Simulation time: 0 hr 29 min 31 sec) 
Heartbeat CPU 0 instructions: 46000000 cycles: 28033953 heartbeat IPC: 1.81599 cumulative IPC: 1.64087 (Simulation time: 0 hr 30 min 11 sec) 
Heartbeat CPU 0 instructions: 47000002 cycles: 28571806 heartbeat IPC: 1.85925 cumulative IPC: 1.64498 (Simulation time: 0 hr 30 min 48 sec) 
Heartbeat CPU 0 instructions: 48000000 cycles: 29109637 heartbeat IPC: 1.85932 cumulative IPC: 1.64894 (Simulation time: 0 hr 31 min 24 sec) 
Heartbeat CPU 0 instructions: 49000000 cycles: 29710443 heartbeat IPC: 1.66443 cumulative IPC: 1.64925 (Simulation time: 0 hr 32 min 7 sec) 
Heartbeat CPU 0 instructions: 50000002 cycles: 30241743 heartbeat IPC: 1.88218 cumulative IPC: 1.65334 (Simulation time: 0 hr 32 min 39 sec) 

Warmup complete CPU 0 instructions: 50000002 cycles: 30241743 (Simulation time: 0 hr 32 min 39 sec) 

Heartbeat CPU 0 instructions: 51000000 cycles: 32172168 heartbeat IPC: 0.51802 cumulative IPC: 0.51802 (Simulation time: 0 hr 33 min 18 sec) 
Heartbeat CPU 0 instructions: 52000000 cycles: 34087173 heartbeat IPC: 0.522192 cumulative IPC: 0.520097 (Simulation time: 0 hr 33 min 57 sec) 
Heartbeat CPU 0 instructions: 53000002 cycles: 36038375 heartbeat IPC: 0.512506 cumulative IPC: 0.517542 (Simulation time: 0 hr 34 min 39 sec) 
Heartbeat CPU 0 instructions: 54000000 cycles: 38974504 heartbeat IPC: 0.340584 cumulative IPC: 0.458045 (Simulation time: 0 hr 35 min 24 sec) 
Heartbeat CPU 0 instructions: 55000000 cycles: 41477027 heartbeat IPC: 0.399597 cumulative IPC: 0.445026 (Simulation time: 0 hr 36 min 9 sec) 
Heartbeat CPU 0 instructions: 56000000 cycles: 44298380 heartbeat IPC: 0.35444 cumulative IPC: 0.426844 (Simulation time: 0 hr 36 min 52 sec) 
Heartbeat CPU 0 instructions: 57000001 cycles: 47348409 heartbeat IPC: 0.327866 cumulative IPC: 0.409197 (Simulation time: 0 hr 37 min 37 sec) 
Heartbeat CPU 0 instructions: 58000003 cycles: 50322611 heartbeat IPC: 0.336225 cumulative IPC: 0.398389 (Simulation time: 0 hr 38 min 34 sec) 
Heartbeat CPU 0 instructions: 59000002 cycles: 53145015 heartbeat IPC: 0.354308 cumulative IPC: 0.392957 (Simulation time: 0 hr 39 min 22 sec) 
Heartbeat CPU 0 instructions: 60000000 cycles: 55909589 heartbeat IPC: 0.361719 cumulative IPC: 0.389592 (Simulation time: 0 hr 40 min 6 sec) 
Heartbeat CPU 0 instructions: 61000002 cycles: 58539701 heartbeat IPC: 0.380213 cumulative IPC: 0.388721 (Simulation time: 0 hr 40 min 55 sec) 
Heartbeat CPU 0 instructions: 62000002 cycles: 61218432 heartbeat IPC: 0.373311 cumulative IPC: 0.387388 (Simulation time: 0 hr 41 min 41 sec) 
Heartbeat CPU 0 instructions: 63000001 cycles: 63884624 heartbeat IPC: 0.375066 cumulative IPC: 0.386412 (Simulation time: 0 hr 42 min 26 sec) 
Heartbeat CPU 0 instructions: 64000000 cycles: 66540110 heartbeat IPC: 0.376579 cumulative IPC: 0.385692 (Simulation time: 0 hr 43 min 14 sec) 
Heartbeat CPU 0 instructions: 65000003 cycles: 69178010 heartbeat IPC: 0.379091 cumulative IPC: 0.385245 (Simulation time: 0 hr 43 min 54 sec) 
Heartbeat CPU 0 instructions: 66000001 cycles: 71806471 heartbeat IPC: 0.38045 cumulative IPC: 0.384942 (Simulation time: 0 hr 44 min 36 sec) 
Heartbeat CPU 0 instructions: 67000001 cycles: 74419730 heartbeat IPC: 0.382664 cumulative IPC: 0.384807 (Simulation time: 0 hr 45 min 27 sec) 
Heartbeat CPU 0 instructions: 68000000 cycles: 77086208 heartbeat IPC: 0.375026 cumulative IPC: 0.38425 (Simulation time: 0 hr 46 min 7 sec) 
Heartbeat CPU 0 instructions: 69000001 cycles: 79723276 heartbeat IPC: 0.379209 cumulative IPC: 0.383982 (Simulation time: 0 hr 46 min 53 sec) 
Heartbeat CPU 0 instructions: 70000001 cycles: 82333751 heartbeat IPC: 0.383072 cumulative IPC: 0.383936 (Simulation time: 0 hr 47 min 40 sec) 
Heartbeat CPU 0 instructions: 71000001 cycles: 85050521 heartbeat IPC: 0.368084 cumulative IPC: 0.38315 (Simulation time: 0 hr 48 min 24 sec) 
Heartbeat CPU 0 instructions: 72000000 cycles: 87673559 heartbeat IPC: 0.381237 cumulative IPC: 0.383063 (Simulation time: 0 hr 49 min 12 sec) 
Heartbeat CPU 0 instructions: 73000002 cycles: 90311140 heartbeat IPC: 0.379136 cumulative IPC: 0.38289 (Simulation time: 0 hr 49 min 59 sec) 
Heartbeat CPU 0 instructions: 74000001 cycles: 92988805 heartbeat IPC: 0.373459 cumulative IPC: 0.382488 (Simulation time: 0 hr 50 min 41 sec) 
Heartbeat CPU 0 instructions: 75000001 cycles: 95646521 heartbeat IPC: 0.376263 cumulative IPC: 0.382235 (Simulation time: 0 hr 51 min 31 sec) 
Heartbeat CPU 0 instructions: 76000000 cycles: 98287086 heartbeat IPC: 0.378706 cumulative IPC: 0.382098 (Simulation time: 0 hr 52 min 18 sec) 
Heartbeat CPU 0 instructions: 77000002 cycles: 100959507 heartbeat IPC: 0.374193 cumulative IPC: 0.381799 (Simulation time: 0 hr 53 min 0 sec) 
Heartbeat CPU 0 instructions: 78000000 cycles: 103612984 heartbeat IPC: 0.376863 cumulative IPC: 0.381621 (Simulation time: 0 hr 53 min 40 sec) 
Heartbeat CPU 0 instructions: 79000002 cycles: 106274094 heartbeat IPC: 0.375784 cumulative IPC: 0.381417 (Simulation time: 0 hr 54 min 22 sec) 
Heartbeat CPU 0 instructions: 80000000 cycles: 108908822 heartbeat IPC: 0.379545 cumulative IPC: 0.381354 (Simulation time: 0 hr 55 min 6 sec) 
Heartbeat CPU 0 instructions: 81000000 cycles: 111523168 heartbeat IPC: 0.382505 cumulative IPC: 0.381391 (Simulation time: 0 hr 55 min 57 sec) 
Heartbeat CPU 0 instructions: 82000002 cycles: 114199792 heartbeat IPC: 0.373606 cumulative IPC: 0.381143 (Simulation time: 0 hr 56 min 48 sec) 
Heartbeat CPU 0 instructions: 83000000 cycles: 116845251 heartbeat IPC: 0.378005 cumulative IPC: 0.381047 (Simulation time: 0 hr 57 min 30 sec) 
Heartbeat CPU 0 instructions: 84000000 cycles: 119500839 heartbeat IPC: 0.376564 cumulative IPC: 0.380914 (Simulation time: 0 hr 58 min 22 sec) 
Heartbeat CPU 0 instructions: 85000001 cycles: 122177084 heartbeat IPC: 0.373658 cumulative IPC: 0.380702 (Simulation time: 0 hr 59 min 4 sec) 
Heartbeat CPU 0 instructions: 86000000 cycles: 124671881 heartbeat IPC: 0.400834 cumulative IPC: 0.381234 (Simulation time: 0 hr 59 min 59 sec) 
Heartbeat CPU 0 instructions: 87000000 cycles: 126825893 heartbeat IPC: 0.46425 cumulative IPC: 0.383086 (Simulation time: 1 hr 0 min 40 sec) 
Heartbeat CPU 0 instructions: 88000000 cycles: 128823074 heartbeat IPC: 0.500706 cumulative IPC: 0.385469 (Simulation time: 1 hr 1 min 24 sec) 
Heartbeat CPU 0 instructions: 89000001 cycles: 130910187 heartbeat IPC: 0.479131 cumulative IPC: 0.38741 (Simulation time: 1 hr 2 min 2 sec) 
Heartbeat CPU 0 instructions: 90000000 cycles: 133623612 heartbeat IPC: 0.368538 cumulative IPC: 0.386915 (Simulation time: 1 hr 2 min 50 sec) 
Heartbeat CPU 0 instructions: 91000001 cycles: 136389447 heartbeat IPC: 0.361555 cumulative IPC: 0.386254 (Simulation time: 1 hr 3 min 38 sec) 
Heartbeat CPU 0 instructions: 92000000 cycles: 139071413 heartbeat IPC: 0.37286 cumulative IPC: 0.385924 (Simulation time: 1 hr 4 min 24 sec) 
Heartbeat CPU 0 instructions: 93000000 cycles: 141720905 heartbeat IPC: 0.377431 cumulative IPC: 0.385722 (Simulation time: 1 hr 5 min 3 sec) 
Heartbeat CPU 0 instructions: 94000002 cycles: 144368631 heartbeat IPC: 0.377683 cumulative IPC: 0.385536 (Simulation time: 1 hr 5 min 49 sec) 
Heartbeat CPU 0 instructions: 95000000 cycles: 146988028 heartbeat IPC: 0.381766 cumulative IPC: 0.385451 (Simulation time: 1 hr 6 min 35 sec) 
Heartbeat CPU 0 instructions: 96000000 cycles: 149652497 heartbeat IPC: 0.375309 cumulative IPC: 0.385225 (Simulation time: 1 hr 7 min 22 sec) 
Heartbeat CPU 0 instructions: 97000000 cycles: 152292772 heartbeat IPC: 0.378748 cumulative IPC: 0.385085 (Simulation time: 1 hr 8 min 4 sec) 
Heartbeat CPU 0 instructions: 98000000 cycles: 154915250 heartbeat IPC: 0.381319 cumulative IPC: 0.385006 (Simulation time: 1 hr 8 min 54 sec) 
Heartbeat CPU 0 instructions: 99000002 cycles: 157524275 heartbeat IPC: 0.383286 cumulative IPC: 0.38497 (Simulation time: 1 hr 9 min 39 sec) 
Heartbeat CPU 0 instructions: 100000000 cycles: 160151020 heartbeat IPC: 0.380699 cumulative IPC: 0.384884 (Simulation time: 1 hr 10 min 22 sec) 
Heartbeat CPU 0 instructions: 101000002 cycles: 162805339 heartbeat IPC: 0.376745 cumulative IPC: 0.384721 (Simulation time: 1 hr 11 min 1 sec) 
Heartbeat CPU 0 instructions: 102000000 cycles: 165436135 heartbeat IPC: 0.380112 cumulative IPC: 0.384631 (Simulation time: 1 hr 11 min 41 sec) 
Heartbeat CPU 0 instructions: 103000000 cycles: 168061707 heartbeat IPC: 0.380869 cumulative IPC: 0.38456 (Simulation time: 1 hr 12 min 23 sec) 
Heartbeat CPU 0 instructions: 104000000 cycles: 170724083 heartbeat IPC: 0.375604 cumulative IPC: 0.38439 (Simulation time: 1 hr 13 min 7 sec) 
Heartbeat CPU 0 instructions: 105000003 cycles: 172905349 heartbeat IPC: 0.458451 cumulative IPC: 0.385522 (Simulation time: 1 hr 13 min 44 sec) 
Heartbeat CPU 0 instructions: 106000000 cycles: 174882086 heartbeat IPC: 0.505883 cumulative IPC: 0.387167 (Simulation time: 1 hr 14 min 27 sec) 
Heartbeat CPU 0 instructions: 107000003 cycles: 176856595 heartbeat IPC: 0.506457 cumulative IPC: 0.388774 (Simulation time: 1 hr 15 min 0 sec) 
Heartbeat CPU 0 instructions: 108000000 cycles: 179671013 heartbeat IPC: 0.355312 cumulative IPC: 0.388143 (Simulation time: 1 hr 15 min 42 sec) 
Heartbeat CPU 0 instructions: 109000001 cycles: 182373575 heartbeat IPC: 0.37002 cumulative IPC: 0.387822 (Simulation time: 1 hr 16 min 21 sec) 
Heartbeat CPU 0 instructions: 110000000 cycles: 184913808 heartbeat IPC: 0.393664 cumulative IPC: 0.387917 (Simulation time: 1 hr 17 min 3 sec) 
Heartbeat CPU 0 instructions: 111000000 cycles: 187731527 heartbeat IPC: 0.354897 cumulative IPC: 0.387327 (Simulation time: 1 hr 17 min 40 sec) 
Heartbeat CPU 0 instructions: 112000000 cycles: 190747536 heartbeat IPC: 0.331564 cumulative IPC: 0.386279 (Simulation time: 1 hr 18 min 11 sec) 
Heartbeat CPU 0 instructions: 113000000 cycles: 193697059 heartbeat IPC: 0.339038 cumulative IPC: 0.385426 (Simulation time: 1 hr 18 min 43 sec) 
Heartbeat CPU 0 instructions: 114000000 cycles: 196344229 heartbeat IPC: 0.377762 cumulative IPC: 0.385304 (Simulation time: 1 hr 19 min 17 sec) 
Heartbeat CPU 0 instructions: 115000000 cycles: 199072882 heartbeat IPC: 0.366481 cumulative IPC: 0.385 (Simulation time: 1 hr 19 min 50 sec) 
Heartbeat CPU 0 instructions: 116000000 cycles: 201778604 heartbeat IPC: 0.369587 cumulative IPC: 0.384757 (Simulation time: 1 hr 20 min 22 sec) 
Heartbeat CPU 0 instructions: 117000000 cycles: 204636593 heartbeat IPC: 0.349896 cumulative IPC: 0.384186 (Simulation time: 1 hr 20 min 52 sec) 
Heartbeat CPU 0 instructions: 118000003 cycles: 207193811 heartbeat IPC: 0.391051 cumulative IPC: 0.384285 (Simulation time: 1 hr 21 min 25 sec) 
Heartbeat CPU 0 instructions: 119000002 cycles: 208699868 heartbeat IPC: 0.663985 cumulative IPC: 0.386645 (Simulation time: 1 hr 21 min 56 sec) 
Heartbeat CPU 0 instructions: 120000000 cycles: 210736974 heartbeat IPC: 0.490891 cumulative IPC: 0.387822 (Simulation time: 1 hr 22 min 22 sec) 
Heartbeat CPU 0 instructions: 121000003 cycles: 212666116 heartbeat IPC: 0.518367 cumulative IPC: 0.389202 (Simulation time: 1 hr 22 min 43 sec) 
Heartbeat CPU 0 instructions: 122000000 cycles: 214593883 heartbeat IPC: 0.518733 cumulative IPC: 0.390557 (Simulation time: 1 hr 23 min 7 sec) 
Heartbeat CPU 0 instructions: 123000000 cycles: 216590907 heartbeat IPC: 0.500745 cumulative IPC: 0.391738 (Simulation time: 1 hr 23 min 32 sec) 
Heartbeat CPU 0 instructions: 124000000 cycles: 218981814 heartbeat IPC: 0.418251 cumulative IPC: 0.392074 (Simulation time: 1 hr 24 min 5 sec) 
Heartbeat CPU 0 instructions: 125000002 cycles: 220757571 heartbeat IPC: 0.563141 cumulative IPC: 0.393668 (Simulation time: 1 hr 24 min 29 sec) 
Heartbeat CPU 0 instructions: 126000001 cycles: 222685268 heartbeat IPC: 0.518753 cumulative IPC: 0.394921 (Simulation time: 1 hr 24 min 51 sec) 
Heartbeat CPU 0 instructions: 127000001 cycles: 224611631 heartbeat IPC: 0.519113 cumulative IPC: 0.396152 (Simulation time: 1 hr 25 min 13 sec) 
Heartbeat CPU 0 instructions: 128000000 cycles: 226787609 heartbeat IPC: 0.459563 cumulative IPC: 0.396854 (Simulation time: 1 hr 25 min 36 sec) 
Heartbeat CPU 0 instructions: 129000001 cycles: 229551295 heartbeat IPC: 0.361836 cumulative IPC: 0.396368 (Simulation time: 1 hr 26 min 0 sec) 
Heartbeat CPU 0 instructions: 130000002 cycles: 232069806 heartbeat IPC: 0.39706 cumulative IPC: 0.396377 (Simulation time: 1 hr 26 min 26 sec) 
Heartbeat CPU 0 instructions: 131000000 cycles: 234899525 heartbeat IPC: 0.353391 cumulative IPC: 0.395783 (Simulation time: 1 hr 26 min 53 sec) 
Heartbeat CPU 0 instructions: 132000000 cycles: 237649012 heartbeat IPC: 0.363704 cumulative IPC: 0.395357 (Simulation time: 1 hr 27 min 17 sec) 
Heartbeat CPU 0 instructions: 133000000 cycles: 240584468 heartbeat IPC: 0.340663 cumulative IPC: 0.394594 (Simulation time: 1 hr 27 min 41 sec) 
Heartbeat CPU 0 instructions: 134000000 cycles: 243289060 heartbeat IPC: 0.369742 cumulative IPC: 0.394279 (Simulation time: 1 hr 28 min 4 sec) 
Heartbeat CPU 0 instructions: 135000000 cycles: 246089293 heartbeat IPC: 0.357113 cumulative IPC: 0.393796 (Simulation time: 1 hr 28 min 26 sec) 
Heartbeat CPU 0 instructions: 136000000 cycles: 249012629 heartbeat IPC: 0.342075 cumulative IPC: 0.393105 (Simulation time: 1 hr 28 min 48 sec) 
Heartbeat CPU 0 instructions: 137000003 cycles: 251812926 heartbeat IPC: 0.357106 cumulative IPC: 0.39265 (Simulation time: 1 hr 29 min 12 sec) 
Heartbeat CPU 0 instructions: 138000000 cycles: 253953626 heartbeat IPC: 0.467136 cumulative IPC: 0.393363 (Simulation time: 1 hr 29 min 35 sec) 
Heartbeat CPU 0 instructions: 139000000 cycles: 256713877 heartbeat IPC: 0.362286 cumulative IPC: 0.392984 (Simulation time: 1 hr 29 min 59 sec) 
Heartbeat CPU 0 instructions: 140000000 cycles: 259554240 heartbeat IPC: 0.352068 cumulative IPC: 0.392478 (Simulation time: 1 hr 30 min 21 sec) 
Heartbeat CPU 0 instructions: 141000001 cycles: 262244906 heartbeat IPC: 0.371656 cumulative IPC: 0.392236 (Simulation time: 1 hr 30 min 44 sec) 
Heartbeat CPU 0 instructions: 142000002 cycles: 264856746 heartbeat IPC: 0.382872 cumulative IPC: 0.392132 (Simulation time: 1 hr 31 min 5 sec) 
Heartbeat CPU 0 instructions: 143000001 cycles: 267503777 heartbeat IPC: 0.377781 cumulative IPC: 0.391972 (Simulation time: 1 hr 31 min 25 sec) 
Heartbeat CPU 0 instructions: 144000000 cycles: 270087713 heartbeat IPC: 0.387006 cumulative IPC: 0.391918 (Simulation time: 1 hr 31 min 45 sec) 
Heartbeat CPU 0 instructions: 145000000 cycles: 272697283 heartbeat IPC: 0.383205 cumulative IPC: 0.391824 (Simulation time: 1 hr 32 min 4 sec) 
Heartbeat CPU 0 instructions: 146000000 cycles: 275313589 heartbeat IPC: 0.382218 cumulative IPC: 0.391722 (Simulation time: 1 hr 32 min 21 sec) 
Heartbeat CPU 0 instructions: 147000002 cycles: 277715018 heartbeat IPC: 0.41642 cumulative IPC: 0.391962 (Simulation time: 1 hr 32 min 39 sec) 
Heartbeat CPU 0 instructions: 148000000 cycles: 279783984 heartbeat IPC: 0.483332 cumulative IPC: 0.392719 (Simulation time: 1 hr 32 min 57 sec) 
Heartbeat CPU 0 instructions: 149000001 cycles: 282223921 heartbeat IPC: 0.409847 cumulative IPC: 0.392885 (Simulation time: 1 hr 33 min 16 sec) 
Heartbeat CPU 0 instructions: 150000002 cycles: 284962480 heartbeat IPC: 0.365156 cumulative IPC: 0.392587 (Simulation time: 1 hr 33 min 32 sec) 
Finished CPU 0 instructions: 100000000 cycles: 254720737 cummulative IPC: 0.392587 (Simulation time: 1 hr 33 min 32 sec) 

ChampSim completed all CPUs

Region of Interest Statistics

CPU 0 cummulative IPC: 0.392587 instructions: 100000000 cycles: 254720737
LLC TOTAL     ACCESS:     651892  HIT:     608067  MISS:      43825
LLC LOAD      ACCESS:     308407  HIT:     290087  MISS:      18320
LLC RFO       ACCESS:      29186  HIT:      24027  MISS:       5159
LLC PREFETCH  ACCESS:     213177  HIT:     193381  MISS:      19796
LLC WRITEBACK ACCESS:     101122  HIT:     100572  MISS:        550
OPTgen accesses: 7688
OPTgen hits: 9304
OPTgen hit rate: 121.02


