
*** ChampSim Multicore Out-of-Order Simulator ***

Warmup Instructions: 50000000
Simulation Instructions: 100000000
Configuration: 2
Number of CPUs: 1
LLC sets: 2048
LLC ways: 16
Off-chip DRAM Channels: 1 Width: 64-bit Data Rate: 1600 MT/s

CPU 0 runs /datasets/cs240c-wi22-a00-public/data/Assignment2-gz/cactusADM_1039B.trace.gz
CPU 0 L1D next line prefetcher
CPU 0 L2C IP-based stride prefetcher
Initialize Hawkeye state
Heartbeat CPU 0 instructions: 1000000 cycles: 595518 heartbeat IPC: 1.67921 cumulative IPC: 1.67921 (Simulation time: 0 hr 0 min 46 sec) 
Heartbeat CPU 0 instructions: 2000002 cycles: 1190937 heartbeat IPC: 1.67949 cumulative IPC: 1.67935 (Simulation time: 0 hr 1 min 29 sec) 
Heartbeat CPU 0 instructions: 3000003 cycles: 1786622 heartbeat IPC: 1.67874 cumulative IPC: 1.67915 (Simulation time: 0 hr 2 min 15 sec) 
Heartbeat CPU 0 instructions: 4000000 cycles: 2382046 heartbeat IPC: 1.67947 cumulative IPC: 1.67923 (Simulation time: 0 hr 2 min 57 sec) 
Heartbeat CPU 0 instructions: 5000001 cycles: 2977457 heartbeat IPC: 1.67951 cumulative IPC: 1.67929 (Simulation time: 0 hr 3 min 46 sec) 
Heartbeat CPU 0 instructions: 6000002 cycles: 3572930 heartbeat IPC: 1.67934 cumulative IPC: 1.67929 (Simulation time: 0 hr 4 min 31 sec) 
Heartbeat CPU 0 instructions: 7000000 cycles: 4168306 heartbeat IPC: 1.67961 cumulative IPC: 1.67934 (Simulation time: 0 hr 5 min 12 sec) 
Heartbeat CPU 0 instructions: 8000000 cycles: 4763681 heartbeat IPC: 1.67961 cumulative IPC: 1.67937 (Simulation time: 0 hr 5 min 57 sec) 
Heartbeat CPU 0 instructions: 9000002 cycles: 5359336 heartbeat IPC: 1.67883 cumulative IPC: 1.67931 (Simulation time: 0 hr 6 min 38 sec) 
Heartbeat CPU 0 instructions: 10000003 cycles: 5974113 heartbeat IPC: 1.62661 cumulative IPC: 1.67389 (Simulation time: 0 hr 7 min 19 sec) 
Heartbeat CPU 0 instructions: 11000002 cycles: 6713182 heartbeat IPC: 1.35305 cumulative IPC: 1.63857 (Simulation time: 0 hr 8 min 5 sec) 
Heartbeat CPU 0 instructions: 12000000 cycles: 7308626 heartbeat IPC: 1.67942 cumulative IPC: 1.6419 (Simulation time: 0 hr 8 min 46 sec) 
Heartbeat CPU 0 instructions: 13000002 cycles: 7904132 heartbeat IPC: 1.67925 cumulative IPC: 1.64471 (Simulation time: 0 hr 9 min 35 sec) 
Heartbeat CPU 0 instructions: 14000000 cycles: 8499778 heartbeat IPC: 1.67885 cumulative IPC: 1.6471 (Simulation time: 0 hr 10 min 18 sec) 
Heartbeat CPU 0 instructions: 15000000 cycles: 9094831 heartbeat IPC: 1.68052 cumulative IPC: 1.64929 (Simulation time: 0 hr 11 min 1 sec) 
Heartbeat CPU 0 instructions: 16000000 cycles: 9690429 heartbeat IPC: 1.67898 cumulative IPC: 1.65111 (Simulation time: 0 hr 11 min 45 sec) 
Heartbeat CPU 0 instructions: 17000003 cycles: 10286020 heartbeat IPC: 1.67901 cumulative IPC: 1.65273 (Simulation time: 0 hr 12 min 27 sec) 
Heartbeat CPU 0 instructions: 18000001 cycles: 10881554 heartbeat IPC: 1.67916 cumulative IPC: 1.65418 (Simulation time: 0 hr 13 min 12 sec) 
Heartbeat CPU 0 instructions: 19000002 cycles: 11476928 heartbeat IPC: 1.67962 cumulative IPC: 1.6555 (Simulation time: 0 hr 13 min 54 sec) 
Heartbeat CPU 0 instructions: 20000000 cycles: 12072366 heartbeat IPC: 1.67943 cumulative IPC: 1.65668 (Simulation time: 0 hr 14 min 36 sec) 
Heartbeat CPU 0 instructions: 21000002 cycles: 12668053 heartbeat IPC: 1.67874 cumulative IPC: 1.65771 (Simulation time: 0 hr 15 min 19 sec) 
Heartbeat CPU 0 instructions: 22000002 cycles: 13263480 heartbeat IPC: 1.67947 cumulative IPC: 1.65869 (Simulation time: 0 hr 16 min 1 sec) 
Heartbeat CPU 0 instructions: 23000002 cycles: 13858923 heartbeat IPC: 1.67942 cumulative IPC: 1.65958 (Simulation time: 0 hr 16 min 43 sec) 
Heartbeat CPU 0 instructions: 24000000 cycles: 14615004 heartbeat IPC: 1.32261 cumulative IPC: 1.64215 (Simulation time: 0 hr 17 min 36 sec) 
Heartbeat CPU 0 instructions: 25000002 cycles: 15210284 heartbeat IPC: 1.67989 cumulative IPC: 1.64362 (Simulation time: 0 hr 18 min 19 sec) 
Heartbeat CPU 0 instructions: 26000001 cycles: 15805395 heartbeat IPC: 1.68036 cumulative IPC: 1.64501 (Simulation time: 0 hr 19 min 7 sec) 
Heartbeat CPU 0 instructions: 27000000 cycles: 16400646 heartbeat IPC: 1.67996 cumulative IPC: 1.64628 (Simulation time: 0 hr 19 min 48 sec) 
Heartbeat CPU 0 instructions: 28000000 cycles: 16995882 heartbeat IPC: 1.68001 cumulative IPC: 1.64746 (Simulation time: 0 hr 20 min 33 sec) 
Heartbeat CPU 0 instructions: 29000000 cycles: 17591344 heartbeat IPC: 1.67937 cumulative IPC: 1.64854 (Simulation time: 0 hr 21 min 17 sec) 
Heartbeat CPU 0 instructions: 30000002 cycles: 18186501 heartbeat IPC: 1.68023 cumulative IPC: 1.64958 (Simulation time: 0 hr 21 min 57 sec) 
Heartbeat CPU 0 instructions: 31000001 cycles: 18782010 heartbeat IPC: 1.67923 cumulative IPC: 1.65052 (Simulation time: 0 hr 22 min 37 sec) 
Heartbeat CPU 0 instructions: 32000000 cycles: 19376964 heartbeat IPC: 1.6808 cumulative IPC: 1.65145 (Simulation time: 0 hr 23 min 20 sec) 
Heartbeat CPU 0 instructions: 33000001 cycles: 19972387 heartbeat IPC: 1.67948 cumulative IPC: 1.65228 (Simulation time: 0 hr 24 min 3 sec) 
Heartbeat CPU 0 instructions: 34000003 cycles: 20567450 heartbeat IPC: 1.6805 cumulative IPC: 1.6531 (Simulation time: 0 hr 24 min 53 sec) 
Heartbeat CPU 0 instructions: 35000001 cycles: 21162848 heartbeat IPC: 1.67955 cumulative IPC: 1.65384 (Simulation time: 0 hr 25 min 35 sec) 
Heartbeat CPU 0 instructions: 36000000 cycles: 21758237 heartbeat IPC: 1.67957 cumulative IPC: 1.65455 (Simulation time: 0 hr 26 min 15 sec) 
Heartbeat CPU 0 instructions: 37000002 cycles: 22515246 heartbeat IPC: 1.32099 cumulative IPC: 1.64333 (Simulation time: 0 hr 27 min 7 sec) 
Heartbeat CPU 0 instructions: 38000000 cycles: 23110389 heartbeat IPC: 1.68027 cumulative IPC: 1.64428 (Simulation time: 0 hr 27 min 55 sec) 
Heartbeat CPU 0 instructions: 39000002 cycles: 23705602 heartbeat IPC: 1.68007 cumulative IPC: 1.64518 (Simulation time: 0 hr 28 min 35 sec) 
Heartbeat CPU 0 instructions: 40000000 cycles: 24300832 heartbeat IPC: 1.68002 cumulative IPC: 1.64603 (Simulation time: 0 hr 29 min 24 sec) 
Heartbeat CPU 0 instructions: 41000003 cycles: 24896261 heartbeat IPC: 1.67947 cumulative IPC: 1.64683 (Simulation time: 0 hr 30 min 7 sec) 
Heartbeat CPU 0 instructions: 42000001 cycles: 25491445 heartbeat IPC: 1.68015 cumulative IPC: 1.64761 (Simulation time: 0 hr 30 min 51 sec) 
Heartbeat CPU 0 instructions: 43000000 cycles: 26086810 heartbeat IPC: 1.67964 cumulative IPC: 1.64834 (Simulation time: 0 hr 31 min 38 sec) 
Heartbeat CPU 0 instructions: 44000000 cycles: 26681902 heartbeat IPC: 1.68041 cumulative IPC: 1.64906 (Simulation time: 0 hr 32 min 23 sec) 
Heartbeat CPU 0 instructions: 45000000 cycles: 27277377 heartbeat IPC: 1.67933 cumulative IPC: 1.64972 (Simulation time: 0 hr 33 min 5 sec) 
Heartbeat CPU 0 instructions: 46000003 cycles: 27872570 heartbeat IPC: 1.68013 cumulative IPC: 1.65037 (Simulation time: 0 hr 33 min 45 sec) 
Heartbeat CPU 0 instructions: 47000002 cycles: 28467698 heartbeat IPC: 1.68031 cumulative IPC: 1.65099 (Simulation time: 0 hr 34 min 23 sec) 
Heartbeat CPU 0 instructions: 48000000 cycles: 29062690 heartbeat IPC: 1.68069 cumulative IPC: 1.6516 (Simulation time: 0 hr 35 min 6 sec) 
Heartbeat CPU 0 instructions: 49000001 cycles: 29658088 heartbeat IPC: 1.67955 cumulative IPC: 1.65216 (Simulation time: 0 hr 35 min 50 sec) 
Heartbeat CPU 0 instructions: 50000000 cycles: 30415116 heartbeat IPC: 1.32095 cumulative IPC: 1.64392 (Simulation time: 0 hr 36 min 39 sec) 

Warmup complete CPU 0 instructions: 50000004 cycles: 30415117 (Simulation time: 0 hr 36 min 39 sec) 

Heartbeat CPU 0 instructions: 51000003 cycles: 32179803 heartbeat IPC: 0.566674 cumulative IPC: 0.566673 (Simulation time: 0 hr 37 min 24 sec) 
Heartbeat CPU 0 instructions: 52000000 cycles: 33951201 heartbeat IPC: 0.564524 cumulative IPC: 0.565596 (Simulation time: 0 hr 38 min 10 sec) 
Heartbeat CPU 0 instructions: 53000003 cycles: 35722455 heartbeat IPC: 0.564573 cumulative IPC: 0.565255 (Simulation time: 0 hr 39 min 0 sec) 
Heartbeat CPU 0 instructions: 54000002 cycles: 37438632 heartbeat IPC: 0.58269 cumulative IPC: 0.569515 (Simulation time: 0 hr 39 min 48 sec) 
Heartbeat CPU 0 instructions: 55000001 cycles: 39164860 heartbeat IPC: 0.579297 cumulative IPC: 0.571445 (Simulation time: 0 hr 40 min 37 sec) 
Heartbeat CPU 0 instructions: 56000000 cycles: 40934987 heartbeat IPC: 0.564931 cumulative IPC: 0.570349 (Simulation time: 0 hr 41 min 24 sec) 
Heartbeat CPU 0 instructions: 57000000 cycles: 42709722 heartbeat IPC: 0.563464 cumulative IPC: 0.569355 (Simulation time: 0 hr 42 min 8 sec) 
Heartbeat CPU 0 instructions: 58000000 cycles: 44475224 heartbeat IPC: 0.566411 cumulative IPC: 0.568985 (Simulation time: 0 hr 42 min 58 sec) 
Heartbeat CPU 0 instructions: 59000002 cycles: 46162306 heartbeat IPC: 0.592741 cumulative IPC: 0.57153 (Simulation time: 0 hr 43 min 47 sec) 
Heartbeat CPU 0 instructions: 60000000 cycles: 47921995 heartbeat IPC: 0.568281 cumulative IPC: 0.571204 (Simulation time: 0 hr 44 min 34 sec) 
Heartbeat CPU 0 instructions: 61000001 cycles: 49695969 heartbeat IPC: 0.563707 cumulative IPC: 0.570514 (Simulation time: 0 hr 45 min 16 sec) 
Heartbeat CPU 0 instructions: 62000000 cycles: 51470073 heartbeat IPC: 0.563664 cumulative IPC: 0.569937 (Simulation time: 0 hr 46 min 7 sec) 
Heartbeat CPU 0 instructions: 63000001 cycles: 57673570 heartbeat IPC: 0.1612 cumulative IPC: 0.476916 (Simulation time: 0 hr 47 min 9 sec) 
Heartbeat CPU 0 instructions: 64000000 cycles: 59940196 heartbeat IPC: 0.441184 cumulative IPC: 0.474173 (Simulation time: 0 hr 47 min 53 sec) 
Heartbeat CPU 0 instructions: 65000002 cycles: 61710932 heartbeat IPC: 0.564738 cumulative IPC: 0.479297 (Simulation time: 0 hr 48 min 39 sec) 
Heartbeat CPU 0 instructions: 66000001 cycles: 63481194 heartbeat IPC: 0.564888 cumulative IPC: 0.48388 (Simulation time: 0 hr 49 min 32 sec) 
Heartbeat CPU 0 instructions: 67000003 cycles: 65246352 heartbeat IPC: 0.566523 cumulative IPC: 0.488068 (Simulation time: 0 hr 50 min 19 sec) 
Heartbeat CPU 0 instructions: 68000000 cycles: 66972276 heartbeat IPC: 0.579398 cumulative IPC: 0.49238 (Simulation time: 0 hr 51 min 5 sec) 
Heartbeat CPU 0 instructions: 69000003 cycles: 68749433 heartbeat IPC: 0.562698 cumulative IPC: 0.495639 (Simulation time: 0 hr 51 min 45 sec) 
Heartbeat CPU 0 instructions: 70000002 cycles: 70519208 heartbeat IPC: 0.565043 cumulative IPC: 0.498702 (Simulation time: 0 hr 52 min 27 sec) 
Heartbeat CPU 0 instructions: 71000000 cycles: 72290622 heartbeat IPC: 0.56452 cumulative IPC: 0.501486 (Simulation time: 0 hr 53 min 6 sec) 
Heartbeat CPU 0 instructions: 72000000 cycles: 74036321 heartbeat IPC: 0.572836 cumulative IPC: 0.504342 (Simulation time: 0 hr 53 min 51 sec) 
Heartbeat CPU 0 instructions: 73000001 cycles: 75736497 heartbeat IPC: 0.588175 cumulative IPC: 0.507487 (Simulation time: 0 hr 54 min 39 sec) 
Heartbeat CPU 0 instructions: 74000003 cycles: 77504166 heartbeat IPC: 0.565718 cumulative IPC: 0.509673 (Simulation time: 0 hr 55 min 27 sec) 
Heartbeat CPU 0 instructions: 75000002 cycles: 79277287 heartbeat IPC: 0.563977 cumulative IPC: 0.511643 (Simulation time: 0 hr 56 min 14 sec) 
Heartbeat CPU 0 instructions: 76000000 cycles: 84534863 heartbeat IPC: 0.190201 cumulative IPC: 0.480416 (Simulation time: 0 hr 57 min 14 sec) 
Heartbeat CPU 0 instructions: 77000001 cycles: 87696399 heartbeat IPC: 0.316302 cumulative IPC: 0.471358 (Simulation time: 0 hr 57 min 58 sec) 
Heartbeat CPU 0 instructions: 78000000 cycles: 89445053 heartbeat IPC: 0.571868 cumulative IPC: 0.474336 (Simulation time: 0 hr 58 min 40 sec) 
Heartbeat CPU 0 instructions: 79000002 cycles: 91214853 heartbeat IPC: 0.565037 cumulative IPC: 0.476976 (Simulation time: 0 hr 59 min 29 sec) 
Heartbeat CPU 0 instructions: 80000000 cycles: 92984215 heartbeat IPC: 0.565174 cumulative IPC: 0.47947 (Simulation time: 1 hr 0 min 20 sec) 
Heartbeat CPU 0 instructions: 81000002 cycles: 94731203 heartbeat IPC: 0.572415 cumulative IPC: 0.481994 (Simulation time: 1 hr 1 min 10 sec) 
Heartbeat CPU 0 instructions: 82000002 cycles: 96425617 heartbeat IPC: 0.590175 cumulative IPC: 0.484771 (Simulation time: 1 hr 2 min 3 sec) 
Heartbeat CPU 0 instructions: 83000003 cycles: 98191063 heartbeat IPC: 0.56643 cumulative IPC: 0.486898 (Simulation time: 1 hr 2 min 53 sec) 
Heartbeat CPU 0 instructions: 84000000 cycles: 99960372 heartbeat IPC: 0.565191 cumulative IPC: 0.48889 (Simulation time: 1 hr 3 min 34 sec) 
Heartbeat CPU 0 instructions: 85000002 cycles: 101730433 heartbeat IPC: 0.564953 cumulative IPC: 0.490778 (Simulation time: 1 hr 4 min 17 sec) 
Heartbeat CPU 0 instructions: 86000003 cycles: 103445331 heartbeat IPC: 0.583126 cumulative IPC: 0.492947 (Simulation time: 1 hr 5 min 0 sec) 
Heartbeat CPU 0 instructions: 87000000 cycles: 105186828 heartbeat IPC: 0.574217 cumulative IPC: 0.494839 (Simulation time: 1 hr 5 min 50 sec) 
Heartbeat CPU 0 instructions: 88000000 cycles: 106956199 heartbeat IPC: 0.565173 cumulative IPC: 0.496465 (Simulation time: 1 hr 6 min 41 sec) 
Heartbeat CPU 0 instructions: 89000001 cycles: 111287963 heartbeat IPC: 0.230853 cumulative IPC: 0.482238 (Simulation time: 1 hr 7 min 34 sec) 
Heartbeat CPU 0 instructions: 90000002 cycles: 115403103 heartbeat IPC: 0.243005 cumulative IPC: 0.470655 (Simulation time: 1 hr 8 min 28 sec) 
Heartbeat CPU 0 instructions: 91000000 cycles: 117097249 heartbeat IPC: 0.590267 cumulative IPC: 0.472992 (Simulation time: 1 hr 9 min 6 sec) 
Heartbeat CPU 0 instructions: 92000000 cycles: 118860417 heartbeat IPC: 0.567161 cumulative IPC: 0.47487 (Simulation time: 1 hr 9 min 47 sec) 
Heartbeat CPU 0 instructions: 93000001 cycles: 120631481 heartbeat IPC: 0.564633 cumulative IPC: 0.476632 (Simulation time: 1 hr 10 min 33 sec) 
Heartbeat CPU 0 instructions: 94000003 cycles: 122405709 heartbeat IPC: 0.563627 cumulative IPC: 0.47831 (Simulation time: 1 hr 11 min 18 sec) 
Heartbeat CPU 0 instructions: 95000001 cycles: 124126118 heartbeat IPC: 0.581256 cumulative IPC: 0.4802 (Simulation time: 1 hr 12 min 9 sec) 
Heartbeat CPU 0 instructions: 96000000 cycles: 125845854 heartbeat IPC: 0.581484 cumulative IPC: 0.482025 (Simulation time: 1 hr 12 min 50 sec) 
Heartbeat CPU 0 instructions: 97000002 cycles: 127614766 heartbeat IPC: 0.56532 cumulative IPC: 0.483541 (Simulation time: 1 hr 13 min 35 sec) 
Heartbeat CPU 0 instructions: 98000000 cycles: 129387433 heartbeat IPC: 0.564121 cumulative IPC: 0.484984 (Simulation time: 1 hr 14 min 21 sec) 
Heartbeat CPU 0 instructions: 99000002 cycles: 131155304 heartbeat IPC: 0.565653 cumulative IPC: 0.4864 (Simulation time: 1 hr 14 min 57 sec) 
Heartbeat CPU 0 instructions: 100000000 cycles: 132845898 heartbeat IPC: 0.591507 cumulative IPC: 0.488134 (Simulation time: 1 hr 15 min 38 sec) 
Heartbeat CPU 0 instructions: 101000002 cycles: 134600421 heartbeat IPC: 0.569957 cumulative IPC: 0.489512 (Simulation time: 1 hr 16 min 22 sec) 
Heartbeat CPU 0 instructions: 102000000 cycles: 137945257 heartbeat IPC: 0.298968 cumulative IPC: 0.483585 (Simulation time: 1 hr 16 min 59 sec) 
Heartbeat CPU 0 instructions: 103000002 cycles: 143057531 heartbeat IPC: 0.195608 cumulative IPC: 0.470515 (Simulation time: 1 hr 17 min 40 sec) 
Heartbeat CPU 0 instructions: 104000000 cycles: 144782838 heartbeat IPC: 0.579606 cumulative IPC: 0.472161 (Simulation time: 1 hr 18 min 11 sec) 
Heartbeat CPU 0 instructions: 105000002 cycles: 146497185 heartbeat IPC: 0.583314 cumulative IPC: 0.473803 (Simulation time: 1 hr 18 min 45 sec) 
Heartbeat CPU 0 instructions: 106000001 cycles: 148268192 heartbeat IPC: 0.56465 cumulative IPC: 0.475168 (Simulation time: 1 hr 19 min 17 sec) 
Heartbeat CPU 0 instructions: 107000003 cycles: 150037884 heartbeat IPC: 0.565071 cumulative IPC: 0.476498 (Simulation time: 1 hr 19 min 48 sec) 
Heartbeat CPU 0 instructions: 108000000 cycles: 151805463 heartbeat IPC: 0.565744 cumulative IPC: 0.477797 (Simulation time: 1 hr 20 min 17 sec) 
Heartbeat CPU 0 instructions: 109000003 cycles: 153502218 heartbeat IPC: 0.589362 cumulative IPC: 0.479335 (Simulation time: 1 hr 20 min 51 sec) 
Heartbeat CPU 0 instructions: 110000002 cycles: 155251005 heartbeat IPC: 0.571824 cumulative IPC: 0.480631 (Simulation time: 1 hr 21 min 20 sec) 
Heartbeat CPU 0 instructions: 111000002 cycles: 157021822 heartbeat IPC: 0.564711 cumulative IPC: 0.481807 (Simulation time: 1 hr 21 min 49 sec) 
Heartbeat CPU 0 instructions: 112000000 cycles: 158793304 heartbeat IPC: 0.564498 cumulative IPC: 0.482948 (Simulation time: 1 hr 22 min 18 sec) 
Heartbeat CPU 0 instructions: 113000002 cycles: 160549628 heartbeat IPC: 0.569372 cumulative IPC: 0.484114 (Simulation time: 1 hr 22 min 48 sec) 
Heartbeat CPU 0 instructions: 114000002 cycles: 162241934 heartbeat IPC: 0.59091 cumulative IPC: 0.485485 (Simulation time: 1 hr 23 min 17 sec) 
Heartbeat CPU 0 instructions: 115000001 cycles: 164674480 heartbeat IPC: 0.411092 cumulative IPC: 0.484138 (Simulation time: 1 hr 23 min 52 sec) 
Heartbeat CPU 0 instructions: 116000000 cycles: 170685351 heartbeat IPC: 0.166365 cumulative IPC: 0.47052 (Simulation time: 1 hr 24 min 22 sec) 
Heartbeat CPU 0 instructions: 117000003 cycles: 172457269 heartbeat IPC: 0.564362 cumulative IPC: 0.471691 (Simulation time: 1 hr 24 min 57 sec) 
Heartbeat CPU 0 instructions: 118000001 cycles: 174157548 heartbeat IPC: 0.588138 cumulative IPC: 0.473068 (Simulation time: 1 hr 25 min 28 sec) 
Heartbeat CPU 0 instructions: 119000001 cycles: 175898706 heartbeat IPC: 0.57433 cumulative IPC: 0.47428 (Simulation time: 1 hr 25 min 54 sec) 
Heartbeat CPU 0 instructions: 120000000 cycles: 177670098 heartbeat IPC: 0.564527 cumulative IPC: 0.475366 (Simulation time: 1 hr 26 min 19 sec) 
Heartbeat CPU 0 instructions: 121000000 cycles: 179442272 heartbeat IPC: 0.564279 cumulative IPC: 0.476423 (Simulation time: 1 hr 26 min 43 sec) 
Heartbeat CPU 0 instructions: 122000003 cycles: 181201501 heartbeat IPC: 0.568433 cumulative IPC: 0.477497 (Simulation time: 1 hr 27 min 9 sec) 
Heartbeat CPU 0 instructions: 123000002 cycles: 182889737 heartbeat IPC: 0.592334 cumulative IPC: 0.478768 (Simulation time: 1 hr 27 min 39 sec) 
Heartbeat CPU 0 instructions: 124000000 cycles: 184656682 heartbeat IPC: 0.565947 cumulative IPC: 0.479767 (Simulation time: 1 hr 28 min 6 sec) 
Heartbeat CPU 0 instructions: 125000001 cycles: 186426281 heartbeat IPC: 0.5651 cumulative IPC: 0.480735 (Simulation time: 1 hr 28 min 30 sec) 
Heartbeat CPU 0 instructions: 126000000 cycles: 188196295 heartbeat IPC: 0.564967 cumulative IPC: 0.48168 (Simulation time: 1 hr 28 min 52 sec) 
Heartbeat CPU 0 instructions: 127000003 cycles: 189920139 heartbeat IPC: 0.580101 cumulative IPC: 0.482743 (Simulation time: 1 hr 29 min 15 sec) 
Heartbeat CPU 0 instructions: 128000000 cycles: 191693362 heartbeat IPC: 0.563943 cumulative IPC: 0.483636 (Simulation time: 1 hr 29 min 38 sec) 
Heartbeat CPU 0 instructions: 129000001 cycles: 198558021 heartbeat IPC: 0.145674 cumulative IPC: 0.469838 (Simulation time: 1 hr 30 min 6 sec) 
Heartbeat CPU 0 instructions: 130000002 cycles: 208092771 heartbeat IPC: 0.10488 cumulative IPC: 0.450254 (Simulation time: 1 hr 30 min 38 sec) 
Heartbeat CPU 0 instructions: 131000002 cycles: 212041305 heartbeat IPC: 0.253259 cumulative IPC: 0.445971 (Simulation time: 1 hr 31 min 3 sec) 
Heartbeat CPU 0 instructions: 132000000 cycles: 213820711 heartbeat IPC: 0.561984 cumulative IPC: 0.447096 (Simulation time: 1 hr 31 min 23 sec) 
Heartbeat CPU 0 instructions: 133000000 cycles: 215522489 heartbeat IPC: 0.587621 cumulative IPC: 0.448388 (Simulation time: 1 hr 31 min 43 sec) 
Heartbeat CPU 0 instructions: 134000003 cycles: 217292706 heartbeat IPC: 0.564904 cumulative IPC: 0.449492 (Simulation time: 1 hr 32 min 1 sec) 
Heartbeat CPU 0 instructions: 135000002 cycles: 219079305 heartbeat IPC: 0.559722 cumulative IPC: 0.450536 (Simulation time: 1 hr 32 min 19 sec) 
Heartbeat CPU 0 instructions: 136000000 cycles: 220869563 heartbeat IPC: 0.558578 cumulative IPC: 0.451552 (Simulation time: 1 hr 32 min 37 sec) 
Heartbeat CPU 0 instructions: 137000001 cycles: 222622802 heartbeat IPC: 0.570373 cumulative IPC: 0.452635 (Simulation time: 1 hr 32 min 54 sec) 
Heartbeat CPU 0 instructions: 138000001 cycles: 224335520 heartbeat IPC: 0.583867 cumulative IPC: 0.453794 (Simulation time: 1 hr 33 min 10 sec) 
Heartbeat CPU 0 instructions: 139000003 cycles: 226116848 heartbeat IPC: 0.56138 cumulative IPC: 0.454774 (Simulation time: 1 hr 33 min 27 sec) 
Heartbeat CPU 0 instructions: 140000000 cycles: 227907187 heartbeat IPC: 0.558552 cumulative IPC: 0.455714 (Simulation time: 1 hr 33 min 42 sec) 
Heartbeat CPU 0 instructions: 141000003 cycles: 229692121 heartbeat IPC: 0.560246 cumulative IPC: 0.456651 (Simulation time: 1 hr 33 min 55 sec) 
Heartbeat CPU 0 instructions: 142000003 cycles: 231413224 heartbeat IPC: 0.581023 cumulative IPC: 0.457716 (Simulation time: 1 hr 34 min 9 sec) 
Heartbeat CPU 0 instructions: 143000002 cycles: 235304198 heartbeat IPC: 0.257005 cumulative IPC: 0.453904 (Simulation time: 1 hr 34 min 22 sec) 
Heartbeat CPU 0 instructions: 144000000 cycles: 240256543 heartbeat IPC: 0.201924 cumulative IPC: 0.447957 (Simulation time: 1 hr 34 min 35 sec) 
Heartbeat CPU 0 instructions: 145000003 cycles: 241996683 heartbeat IPC: 0.574668 cumulative IPC: 0.448999 (Simulation time: 1 hr 34 min 45 sec) 
Heartbeat CPU 0 instructions: 146000001 cycles: 243701205 heartbeat IPC: 0.586674 cumulative IPC: 0.4501 (Simulation time: 1 hr 34 min 55 sec) 
Heartbeat CPU 0 instructions: 147000001 cycles: 245365718 heartbeat IPC: 0.600776 cumulative IPC: 0.451266 (Simulation time: 1 hr 35 min 5 sec) 
Heartbeat CPU 0 instructions: 148000000 cycles: 247102394 heartbeat IPC: 0.575812 cumulative IPC: 0.452265 (Simulation time: 1 hr 35 min 15 sec) 
Heartbeat CPU 0 instructions: 149000000 cycles: 248839722 heartbeat IPC: 0.575597 cumulative IPC: 0.453246 (Simulation time: 1 hr 35 min 24 sec) 
Heartbeat CPU 0 instructions: 150000002 cycles: 250576529 heartbeat IPC: 0.57577 cumulative IPC: 0.454212 (Simulation time: 1 hr 35 min 33 sec) 
Finished CPU 0 instructions: 100000002 cycles: 220161413 cummulative IPC: 0.454212 (Simulation time: 1 hr 35 min 33 sec) 

ChampSim completed all CPUs

Region of Interest Statistics

CPU 0 cummulative IPC: 0.454212 instructions: 100000002 cycles: 220161413
LLC TOTAL     ACCESS:    1242524  HIT:     336275  MISS:     906249
LLC LOAD      ACCESS:      28192  HIT:       3431  MISS:      24761
LLC RFO       ACCESS:     290712  HIT:      85985  MISS:     204727
LLC PREFETCH  ACCESS:     631233  HIT:     110213  MISS:     521020
LLC WRITEBACK ACCESS:     292387  HIT:     136646  MISS:     155741
OPTgen accesses: 7336
OPTgen hits: 2633
OPTgen hit rate: 35.8915


