
*** ChampSim Multicore Out-of-Order Simulator ***

Warmup Instructions: 50000000
Simulation Instructions: 100000000
Configuration: 2
Number of CPUs: 1
LLC sets: 2048
LLC ways: 16
Off-chip DRAM Channels: 1 Width: 64-bit Data Rate: 1600 MT/s

CPU 0 runs /datasets/cs240c-wi22-a00-public/data/Assignment2-gz/leslie3d_1116B.trace.gz
CPU 0 L1D next line prefetcher
CPU 0 L2C IP-based stride prefetcher
Initialize Hawkeye state
Heartbeat CPU 0 instructions: 1000003 cycles: 535311 heartbeat IPC: 1.86808 cumulative IPC: 1.86808 (Simulation time: 0 hr 0 min 36 sec) 
Heartbeat CPU 0 instructions: 2000003 cycles: 1071193 heartbeat IPC: 1.86608 cumulative IPC: 1.86708 (Simulation time: 0 hr 1 min 14 sec) 
Heartbeat CPU 0 instructions: 3000003 cycles: 1607887 heartbeat IPC: 1.86326 cumulative IPC: 1.8658 (Simulation time: 0 hr 1 min 49 sec) 
Heartbeat CPU 0 instructions: 4000000 cycles: 2143303 heartbeat IPC: 1.8677 cumulative IPC: 1.86628 (Simulation time: 0 hr 2 min 26 sec) 
Heartbeat CPU 0 instructions: 5000001 cycles: 2678433 heartbeat IPC: 1.86871 cumulative IPC: 1.86676 (Simulation time: 0 hr 3 min 3 sec) 
Heartbeat CPU 0 instructions: 6000001 cycles: 3213941 heartbeat IPC: 1.86739 cumulative IPC: 1.86687 (Simulation time: 0 hr 3 min 34 sec) 
Heartbeat CPU 0 instructions: 7000001 cycles: 3749958 heartbeat IPC: 1.86561 cumulative IPC: 1.86669 (Simulation time: 0 hr 4 min 10 sec) 
Heartbeat CPU 0 instructions: 8000000 cycles: 4285983 heartbeat IPC: 1.86558 cumulative IPC: 1.86655 (Simulation time: 0 hr 4 min 49 sec) 
Heartbeat CPU 0 instructions: 9000003 cycles: 4821121 heartbeat IPC: 1.86868 cumulative IPC: 1.86679 (Simulation time: 0 hr 5 min 24 sec) 
Heartbeat CPU 0 instructions: 10000002 cycles: 5356171 heartbeat IPC: 1.86898 cumulative IPC: 1.86701 (Simulation time: 0 hr 5 min 56 sec) 
Heartbeat CPU 0 instructions: 11000001 cycles: 5891944 heartbeat IPC: 1.86646 cumulative IPC: 1.86696 (Simulation time: 0 hr 6 min 29 sec) 
Heartbeat CPU 0 instructions: 12000000 cycles: 6428418 heartbeat IPC: 1.86402 cumulative IPC: 1.86671 (Simulation time: 0 hr 6 min 59 sec) 
Heartbeat CPU 0 instructions: 13000002 cycles: 6963711 heartbeat IPC: 1.86814 cumulative IPC: 1.86682 (Simulation time: 0 hr 7 min 35 sec) 
Heartbeat CPU 0 instructions: 14000003 cycles: 7498470 heartbeat IPC: 1.87 cumulative IPC: 1.86705 (Simulation time: 0 hr 8 min 6 sec) 
Heartbeat CPU 0 instructions: 15000002 cycles: 8033977 heartbeat IPC: 1.86739 cumulative IPC: 1.86707 (Simulation time: 0 hr 8 min 37 sec) 
Heartbeat CPU 0 instructions: 16000000 cycles: 8570107 heartbeat IPC: 1.86522 cumulative IPC: 1.86695 (Simulation time: 0 hr 9 min 12 sec) 
Heartbeat CPU 0 instructions: 17000003 cycles: 9106509 heartbeat IPC: 1.86428 cumulative IPC: 1.8668 (Simulation time: 0 hr 9 min 45 sec) 
Heartbeat CPU 0 instructions: 18000001 cycles: 9641557 heartbeat IPC: 1.86899 cumulative IPC: 1.86692 (Simulation time: 0 hr 10 min 22 sec) 
Heartbeat CPU 0 instructions: 19000001 cycles: 10177086 heartbeat IPC: 1.86731 cumulative IPC: 1.86694 (Simulation time: 0 hr 11 min 0 sec) 
Heartbeat CPU 0 instructions: 20000000 cycles: 10712565 heartbeat IPC: 1.86749 cumulative IPC: 1.86697 (Simulation time: 0 hr 11 min 30 sec) 
Heartbeat CPU 0 instructions: 21000000 cycles: 11249159 heartbeat IPC: 1.86361 cumulative IPC: 1.86681 (Simulation time: 0 hr 12 min 6 sec) 
Heartbeat CPU 0 instructions: 22000000 cycles: 11784340 heartbeat IPC: 1.86853 cumulative IPC: 1.86688 (Simulation time: 0 hr 12 min 43 sec) 
Heartbeat CPU 0 instructions: 23000003 cycles: 12319668 heartbeat IPC: 1.86802 cumulative IPC: 1.86693 (Simulation time: 0 hr 13 min 23 sec) 
Heartbeat CPU 0 instructions: 24000000 cycles: 12854820 heartbeat IPC: 1.86862 cumulative IPC: 1.867 (Simulation time: 0 hr 13 min 57 sec) 
Heartbeat CPU 0 instructions: 25000001 cycles: 13390903 heartbeat IPC: 1.86538 cumulative IPC: 1.86694 (Simulation time: 0 hr 14 min 28 sec) 
Heartbeat CPU 0 instructions: 26000002 cycles: 13927344 heartbeat IPC: 1.86414 cumulative IPC: 1.86683 (Simulation time: 0 hr 15 min 1 sec) 
Heartbeat CPU 0 instructions: 27000003 cycles: 14462307 heartbeat IPC: 1.86929 cumulative IPC: 1.86692 (Simulation time: 0 hr 15 min 35 sec) 
Heartbeat CPU 0 instructions: 28000000 cycles: 14997513 heartbeat IPC: 1.86843 cumulative IPC: 1.86698 (Simulation time: 0 hr 16 min 14 sec) 
Heartbeat CPU 0 instructions: 29000000 cycles: 15533083 heartbeat IPC: 1.86717 cumulative IPC: 1.86698 (Simulation time: 0 hr 16 min 48 sec) 
Heartbeat CPU 0 instructions: 30000002 cycles: 16070018 heartbeat IPC: 1.86243 cumulative IPC: 1.86683 (Simulation time: 0 hr 17 min 21 sec) 
Heartbeat CPU 0 instructions: 31000001 cycles: 16605390 heartbeat IPC: 1.86786 cumulative IPC: 1.86686 (Simulation time: 0 hr 17 min 52 sec) 
Heartbeat CPU 0 instructions: 32000000 cycles: 17140962 heartbeat IPC: 1.86716 cumulative IPC: 1.86687 (Simulation time: 0 hr 18 min 28 sec) 
Heartbeat CPU 0 instructions: 33000001 cycles: 17676297 heartbeat IPC: 1.86799 cumulative IPC: 1.86691 (Simulation time: 0 hr 19 min 4 sec) 
Heartbeat CPU 0 instructions: 34000000 cycles: 18212111 heartbeat IPC: 1.86632 cumulative IPC: 1.86689 (Simulation time: 0 hr 19 min 44 sec) 
Heartbeat CPU 0 instructions: 35000000 cycles: 18748290 heartbeat IPC: 1.86505 cumulative IPC: 1.86684 (Simulation time: 0 hr 20 min 24 sec) 
Heartbeat CPU 0 instructions: 36000000 cycles: 19282982 heartbeat IPC: 1.87024 cumulative IPC: 1.86693 (Simulation time: 0 hr 21 min 5 sec) 
Heartbeat CPU 0 instructions: 37000003 cycles: 19865350 heartbeat IPC: 1.71713 cumulative IPC: 1.86254 (Simulation time: 0 hr 21 min 51 sec) 
Heartbeat CPU 0 instructions: 38000003 cycles: 20283602 heartbeat IPC: 2.3909 cumulative IPC: 1.87343 (Simulation time: 0 hr 22 min 34 sec) 
Heartbeat CPU 0 instructions: 39000003 cycles: 20701764 heartbeat IPC: 2.39142 cumulative IPC: 1.8839 (Simulation time: 0 hr 23 min 10 sec) 
Heartbeat CPU 0 instructions: 40000000 cycles: 21120143 heartbeat IPC: 2.39017 cumulative IPC: 1.89393 (Simulation time: 0 hr 23 min 49 sec) 
Heartbeat CPU 0 instructions: 41000002 cycles: 21538307 heartbeat IPC: 2.39141 cumulative IPC: 1.90359 (Simulation time: 0 hr 24 min 32 sec) 
Heartbeat CPU 0 instructions: 42000001 cycles: 21956159 heartbeat IPC: 2.39319 cumulative IPC: 1.9129 (Simulation time: 0 hr 25 min 18 sec) 
Heartbeat CPU 0 instructions: 43000003 cycles: 22374188 heartbeat IPC: 2.39218 cumulative IPC: 1.92186 (Simulation time: 0 hr 26 min 0 sec) 
Heartbeat CPU 0 instructions: 44000000 cycles: 22792099 heartbeat IPC: 2.39285 cumulative IPC: 1.93049 (Simulation time: 0 hr 26 min 41 sec) 
Heartbeat CPU 0 instructions: 45000002 cycles: 23210228 heartbeat IPC: 2.39161 cumulative IPC: 1.9388 (Simulation time: 0 hr 27 min 25 sec) 
Heartbeat CPU 0 instructions: 46000002 cycles: 23628136 heartbeat IPC: 2.39287 cumulative IPC: 1.94683 (Simulation time: 0 hr 27 min 59 sec) 
Heartbeat CPU 0 instructions: 47000001 cycles: 24045820 heartbeat IPC: 2.39415 cumulative IPC: 1.9546 (Simulation time: 0 hr 28 min 42 sec) 
Heartbeat CPU 0 instructions: 48000000 cycles: 24463800 heartbeat IPC: 2.39246 cumulative IPC: 1.96208 (Simulation time: 0 hr 29 min 20 sec) 
Heartbeat CPU 0 instructions: 49000000 cycles: 24921041 heartbeat IPC: 2.18703 cumulative IPC: 1.96621 (Simulation time: 0 hr 30 min 2 sec) 
Heartbeat CPU 0 instructions: 50000000 cycles: 25408322 heartbeat IPC: 2.0522 cumulative IPC: 1.96786 (Simulation time: 0 hr 30 min 45 sec) 

Warmup complete CPU 0 instructions: 50000004 cycles: 25408324 (Simulation time: 0 hr 30 min 45 sec) 

Heartbeat CPU 0 instructions: 51000003 cycles: 27753065 heartbeat IPC: 0.426487 cumulative IPC: 0.426486 (Simulation time: 0 hr 31 min 34 sec) 
Heartbeat CPU 0 instructions: 52000000 cycles: 30147877 heartbeat IPC: 0.417568 cumulative IPC: 0.42198 (Simulation time: 0 hr 32 min 25 sec) 
Heartbeat CPU 0 instructions: 53000003 cycles: 32606005 heartbeat IPC: 0.406815 cumulative IPC: 0.416801 (Simulation time: 0 hr 33 min 16 sec) 
Heartbeat CPU 0 instructions: 54000000 cycles: 34962109 heartbeat IPC: 0.424428 cumulative IPC: 0.418682 (Simulation time: 0 hr 34 min 8 sec) 
Heartbeat CPU 0 instructions: 55000002 cycles: 37312150 heartbeat IPC: 0.425525 cumulative IPC: 0.420033 (Simulation time: 0 hr 35 min 8 sec) 
Heartbeat CPU 0 instructions: 56000000 cycles: 39688210 heartbeat IPC: 0.420864 cumulative IPC: 0.420171 (Simulation time: 0 hr 36 min 11 sec) 
Heartbeat CPU 0 instructions: 57000001 cycles: 42034834 heartbeat IPC: 0.426145 cumulative IPC: 0.421014 (Simulation time: 0 hr 37 min 3 sec) 
Heartbeat CPU 0 instructions: 58000001 cycles: 44281821 heartbeat IPC: 0.44504 cumulative IPC: 0.423875 (Simulation time: 0 hr 38 min 6 sec) 
Heartbeat CPU 0 instructions: 59000000 cycles: 45551067 heartbeat IPC: 0.787869 cumulative IPC: 0.446811 (Simulation time: 0 hr 38 min 50 sec) 
Heartbeat CPU 0 instructions: 60000000 cycles: 46842757 heartbeat IPC: 0.77418 cumulative IPC: 0.466539 (Simulation time: 0 hr 39 min 38 sec) 
Heartbeat CPU 0 instructions: 61000003 cycles: 48220777 heartbeat IPC: 0.725681 cumulative IPC: 0.482193 (Simulation time: 0 hr 40 min 26 sec) 
Heartbeat CPU 0 instructions: 62000002 cycles: 49535617 heartbeat IPC: 0.760548 cumulative IPC: 0.497362 (Simulation time: 0 hr 41 min 7 sec) 
Heartbeat CPU 0 instructions: 63000003 cycles: 50709892 heartbeat IPC: 0.85159 cumulative IPC: 0.513802 (Simulation time: 0 hr 41 min 48 sec) 
Heartbeat CPU 0 instructions: 64000000 cycles: 51913003 heartbeat IPC: 0.831176 cumulative IPC: 0.528208 (Simulation time: 0 hr 42 min 31 sec) 
Heartbeat CPU 0 instructions: 65000001 cycles: 53279654 heartbeat IPC: 0.731716 cumulative IPC: 0.538187 (Simulation time: 0 hr 43 min 20 sec) 
Heartbeat CPU 0 instructions: 66000000 cycles: 54493744 heartbeat IPC: 0.823661 cumulative IPC: 0.550104 (Simulation time: 0 hr 44 min 4 sec) 
Heartbeat CPU 0 instructions: 67000001 cycles: 55727992 heartbeat IPC: 0.810211 cumulative IPC: 0.560692 (Simulation time: 0 hr 44 min 49 sec) 
Heartbeat CPU 0 instructions: 68000000 cycles: 57104825 heartbeat IPC: 0.726304 cumulative IPC: 0.567886 (Simulation time: 0 hr 45 min 33 sec) 
Heartbeat CPU 0 instructions: 69000002 cycles: 58378957 heartbeat IPC: 0.78485 cumulative IPC: 0.57627 (Simulation time: 0 hr 46 min 23 sec) 
Heartbeat CPU 0 instructions: 70000000 cycles: 59578569 heartbeat IPC: 0.833601 cumulative IPC: 0.585304 (Simulation time: 0 hr 47 min 9 sec) 
Heartbeat CPU 0 instructions: 71000002 cycles: 60791428 heartbeat IPC: 0.8245 cumulative IPC: 0.593504 (Simulation time: 0 hr 47 min 53 sec) 
Heartbeat CPU 0 instructions: 72000000 cycles: 62200457 heartbeat IPC: 0.709707 cumulative IPC: 0.597954 (Simulation time: 0 hr 48 min 32 sec) 
Heartbeat CPU 0 instructions: 73000000 cycles: 63408633 heartbeat IPC: 0.827694 cumulative IPC: 0.605258 (Simulation time: 0 hr 49 min 14 sec) 
Heartbeat CPU 0 instructions: 74000000 cycles: 64606443 heartbeat IPC: 0.834857 cumulative IPC: 0.612274 (Simulation time: 0 hr 49 min 59 sec) 
Heartbeat CPU 0 instructions: 75000002 cycles: 66030394 heartbeat IPC: 0.702273 cumulative IPC: 0.615429 (Simulation time: 0 hr 50 min 39 sec) 
Heartbeat CPU 0 instructions: 76000000 cycles: 67233122 heartbeat IPC: 0.831442 cumulative IPC: 0.621641 (Simulation time: 0 hr 51 min 23 sec) 
Heartbeat CPU 0 instructions: 77000001 cycles: 68413753 heartbeat IPC: 0.847006 cumulative IPC: 0.627828 (Simulation time: 0 hr 52 min 5 sec) 
Heartbeat CPU 0 instructions: 78000000 cycles: 69696221 heartbeat IPC: 0.779746 cumulative IPC: 0.632227 (Simulation time: 0 hr 52 min 44 sec) 
Heartbeat CPU 0 instructions: 79000001 cycles: 71016423 heartbeat IPC: 0.757461 cumulative IPC: 0.635852 (Simulation time: 0 hr 53 min 26 sec) 
Heartbeat CPU 0 instructions: 80000000 cycles: 72204354 heartbeat IPC: 0.841799 cumulative IPC: 0.64108 (Simulation time: 0 hr 54 min 10 sec) 
Heartbeat CPU 0 instructions: 81000003 cycles: 73389524 heartbeat IPC: 0.843763 cumulative IPC: 0.646086 (Simulation time: 0 hr 54 min 56 sec) 
Heartbeat CPU 0 instructions: 82000000 cycles: 74803699 heartbeat IPC: 0.707124 cumulative IPC: 0.647834 (Simulation time: 0 hr 55 min 43 sec) 
Heartbeat CPU 0 instructions: 83000001 cycles: 75986829 heartbeat IPC: 0.845217 cumulative IPC: 0.652451 (Simulation time: 0 hr 56 min 27 sec) 
Heartbeat CPU 0 instructions: 84000000 cycles: 77180027 heartbeat IPC: 0.838083 cumulative IPC: 0.656729 (Simulation time: 0 hr 57 min 15 sec) 
Heartbeat CPU 0 instructions: 85000003 cycles: 78559203 heartbeat IPC: 0.725073 cumulative IPC: 0.658503 (Simulation time: 0 hr 57 min 52 sec) 
Heartbeat CPU 0 instructions: 86000002 cycles: 79763947 heartbeat IPC: 0.830051 cumulative IPC: 0.662305 (Simulation time: 0 hr 58 min 31 sec) 
Heartbeat CPU 0 instructions: 87000001 cycles: 80944631 heartbeat IPC: 0.846966 cumulative IPC: 0.666231 (Simulation time: 0 hr 59 min 17 sec) 
Heartbeat CPU 0 instructions: 88000000 cycles: 82157934 heartbeat IPC: 0.824196 cumulative IPC: 0.669608 (Simulation time: 1 hr 0 min 0 sec) 
Heartbeat CPU 0 instructions: 89000001 cycles: 83560734 heartbeat IPC: 0.712861 cumulative IPC: 0.670651 (Simulation time: 1 hr 0 min 43 sec) 
Heartbeat CPU 0 instructions: 90000003 cycles: 84745037 heartbeat IPC: 0.84438 cumulative IPC: 0.674119 (Simulation time: 1 hr 1 min 31 sec) 
Heartbeat CPU 0 instructions: 91000000 cycles: 85936200 heartbeat IPC: 0.839513 cumulative IPC: 0.677374 (Simulation time: 1 hr 2 min 14 sec) 
Heartbeat CPU 0 instructions: 92000000 cycles: 87348330 heartbeat IPC: 0.70815 cumulative IPC: 0.678075 (Simulation time: 1 hr 2 min 57 sec) 
Heartbeat CPU 0 instructions: 93000002 cycles: 88535151 heartbeat IPC: 0.842589 cumulative IPC: 0.681168 (Simulation time: 1 hr 3 min 38 sec) 
Heartbeat CPU 0 instructions: 94000000 cycles: 89724583 heartbeat IPC: 0.840736 cumulative IPC: 0.684119 (Simulation time: 1 hr 4 min 22 sec) 
Heartbeat CPU 0 instructions: 95000003 cycles: 91033050 heartbeat IPC: 0.764255 cumulative IPC: 0.685717 (Simulation time: 1 hr 5 min 2 sec) 
Heartbeat CPU 0 instructions: 96000000 cycles: 92352986 heartbeat IPC: 0.75761 cumulative IPC: 0.687135 (Simulation time: 1 hr 5 min 47 sec) 
Heartbeat CPU 0 instructions: 97000000 cycles: 93525443 heartbeat IPC: 0.85291 cumulative IPC: 0.689988 (Simulation time: 1 hr 6 min 33 sec) 
Heartbeat CPU 0 instructions: 98000000 cycles: 94723027 heartbeat IPC: 0.835015 cumulative IPC: 0.692494 (Simulation time: 1 hr 7 min 23 sec) 
Heartbeat CPU 0 instructions: 99000003 cycles: 96132408 heartbeat IPC: 0.709533 cumulative IPC: 0.692833 (Simulation time: 1 hr 8 min 0 sec) 
Heartbeat CPU 0 instructions: 100000000 cycles: 97332880 heartbeat IPC: 0.833003 cumulative IPC: 0.695173 (Simulation time: 1 hr 8 min 46 sec) 
Heartbeat CPU 0 instructions: 101000001 cycles: 98530027 heartbeat IPC: 0.83532 cumulative IPC: 0.697467 (Simulation time: 1 hr 9 min 38 sec) 
Heartbeat CPU 0 instructions: 102000003 cycles: 99930553 heartbeat IPC: 0.714019 cumulative IPC: 0.697778 (Simulation time: 1 hr 10 min 19 sec) 
Heartbeat CPU 0 instructions: 103000002 cycles: 101140652 heartbeat IPC: 0.826378 cumulative IPC: 0.699833 (Simulation time: 1 hr 11 min 2 sec) 
Heartbeat CPU 0 instructions: 104000000 cycles: 102335786 heartbeat IPC: 0.836725 cumulative IPC: 0.70196 (Simulation time: 1 hr 11 min 39 sec) 
Heartbeat CPU 0 instructions: 105000000 cycles: 103557309 heartbeat IPC: 0.81865 cumulative IPC: 0.703784 (Simulation time: 1 hr 12 min 24 sec) 
Heartbeat CPU 0 instructions: 106000003 cycles: 105445837 heartbeat IPC: 0.529515 cumulative IPC: 0.699672 (Simulation time: 1 hr 13 min 2 sec) 
Heartbeat CPU 0 instructions: 107000002 cycles: 107057109 heartbeat IPC: 0.620627 cumulative IPC: 0.698112 (Simulation time: 1 hr 13 min 37 sec) 
Heartbeat CPU 0 instructions: 108000000 cycles: 108737220 heartbeat IPC: 0.595198 cumulative IPC: 0.696037 (Simulation time: 1 hr 14 min 10 sec) 
Heartbeat CPU 0 instructions: 109000003 cycles: 110329253 heartbeat IPC: 0.62813 cumulative IPC: 0.694764 (Simulation time: 1 hr 14 min 51 sec) 
Heartbeat CPU 0 instructions: 110000003 cycles: 112007937 heartbeat IPC: 0.595705 cumulative IPC: 0.692844 (Simulation time: 1 hr 15 min 26 sec) 
Heartbeat CPU 0 instructions: 111000003 cycles: 113595895 heartbeat IPC: 0.62974 cumulative IPC: 0.691707 (Simulation time: 1 hr 15 min 58 sec) 
Heartbeat CPU 0 instructions: 112000000 cycles: 115243693 heartbeat IPC: 0.606869 cumulative IPC: 0.690151 (Simulation time: 1 hr 16 min 34 sec) 
Heartbeat CPU 0 instructions: 113000000 cycles: 116813820 heartbeat IPC: 0.636891 cumulative IPC: 0.689236 (Simulation time: 1 hr 17 min 10 sec) 
Heartbeat CPU 0 instructions: 114000000 cycles: 118477505 heartbeat IPC: 0.601075 cumulative IPC: 0.68766 (Simulation time: 1 hr 17 min 45 sec) 
Heartbeat CPU 0 instructions: 115000000 cycles: 120053299 heartbeat IPC: 0.634601 cumulative IPC: 0.686777 (Simulation time: 1 hr 18 min 19 sec) 
Heartbeat CPU 0 instructions: 116000000 cycles: 122361777 heartbeat IPC: 0.433186 cumulative IPC: 0.680739 (Simulation time: 1 hr 18 min 58 sec) 
Heartbeat CPU 0 instructions: 117000003 cycles: 124714556 heartbeat IPC: 0.425031 cumulative IPC: 0.674681 (Simulation time: 1 hr 19 min 33 sec) 
Heartbeat CPU 0 instructions: 118000002 cycles: 127000416 heartbeat IPC: 0.437472 cumulative IPC: 0.669343 (Simulation time: 1 hr 20 min 6 sec) 
Heartbeat CPU 0 instructions: 119000002 cycles: 129416363 heartbeat IPC: 0.413916 cumulative IPC: 0.66341 (Simulation time: 1 hr 20 min 40 sec) 
Heartbeat CPU 0 instructions: 120000000 cycles: 131806413 heartbeat IPC: 0.4184 cumulative IPC: 0.657907 (Simulation time: 1 hr 21 min 17 sec) 
Heartbeat CPU 0 instructions: 121000001 cycles: 134137202 heartbeat IPC: 0.42904 cumulative IPC: 0.653 (Simulation time: 1 hr 22 min 6 sec) 
Heartbeat CPU 0 instructions: 122000001 cycles: 136472619 heartbeat IPC: 0.428189 cumulative IPC: 0.648273 (Simulation time: 1 hr 22 min 41 sec) 
Heartbeat CPU 0 instructions: 123000001 cycles: 138837684 heartbeat IPC: 0.422821 cumulative IPC: 0.643572 (Simulation time: 1 hr 23 min 20 sec) 
Heartbeat CPU 0 instructions: 124000000 cycles: 140152019 heartbeat IPC: 0.76084 cumulative IPC: 0.644916 (Simulation time: 1 hr 23 min 53 sec) 
Heartbeat CPU 0 instructions: 125000000 cycles: 141401806 heartbeat IPC: 0.800136 cumulative IPC: 0.646588 (Simulation time: 1 hr 24 min 20 sec) 
Heartbeat CPU 0 instructions: 126000000 cycles: 142649515 heartbeat IPC: 0.801469 cumulative IPC: 0.648236 (Simulation time: 1 hr 24 min 45 sec) 
Heartbeat CPU 0 instructions: 127000003 cycles: 143900324 heartbeat IPC: 0.799485 cumulative IPC: 0.649833 (Simulation time: 1 hr 25 min 12 sec) 
Heartbeat CPU 0 instructions: 128000000 cycles: 145177689 heartbeat IPC: 0.782859 cumulative IPC: 0.651252 (Simulation time: 1 hr 25 min 42 sec) 
Heartbeat CPU 0 instructions: 129000000 cycles: 146422831 heartbeat IPC: 0.803121 cumulative IPC: 0.652814 (Simulation time: 1 hr 26 min 8 sec) 
Heartbeat CPU 0 instructions: 130000000 cycles: 147719690 heartbeat IPC: 0.771094 cumulative IPC: 0.654068 (Simulation time: 1 hr 26 min 33 sec) 
Heartbeat CPU 0 instructions: 131000000 cycles: 148946502 heartbeat IPC: 0.815121 cumulative IPC: 0.655668 (Simulation time: 1 hr 26 min 57 sec) 
Heartbeat CPU 0 instructions: 132000000 cycles: 150206889 heartbeat IPC: 0.793407 cumulative IPC: 0.657059 (Simulation time: 1 hr 27 min 21 sec) 
Heartbeat CPU 0 instructions: 133000001 cycles: 151472312 heartbeat IPC: 0.79025 cumulative IPC: 0.658396 (Simulation time: 1 hr 27 min 43 sec) 
Heartbeat CPU 0 instructions: 134000000 cycles: 152719625 heartbeat IPC: 0.801723 cumulative IPC: 0.6598 (Simulation time: 1 hr 28 min 8 sec) 
Heartbeat CPU 0 instructions: 135000001 cycles: 154009301 heartbeat IPC: 0.775389 cumulative IPC: 0.660959 (Simulation time: 1 hr 28 min 29 sec) 
Heartbeat CPU 0 instructions: 136000000 cycles: 155254513 heartbeat IPC: 0.803075 cumulative IPC: 0.662322 (Simulation time: 1 hr 28 min 50 sec) 
Heartbeat CPU 0 instructions: 137000001 cycles: 156550611 heartbeat IPC: 0.771547 cumulative IPC: 0.663402 (Simulation time: 1 hr 29 min 13 sec) 
Heartbeat CPU 0 instructions: 138000002 cycles: 157783938 heartbeat IPC: 0.810816 cumulative IPC: 0.664775 (Simulation time: 1 hr 29 min 35 sec) 
Heartbeat CPU 0 instructions: 139000000 cycles: 159045244 heartbeat IPC: 0.792827 cumulative IPC: 0.665984 (Simulation time: 1 hr 29 min 57 sec) 
Heartbeat CPU 0 instructions: 140000000 cycles: 160329124 heartbeat IPC: 0.778889 cumulative IPC: 0.667058 (Simulation time: 1 hr 30 min 17 sec) 
Heartbeat CPU 0 instructions: 141000001 cycles: 161568224 heartbeat IPC: 0.807038 cumulative IPC: 0.668332 (Simulation time: 1 hr 30 min 39 sec) 
Heartbeat CPU 0 instructions: 142000003 cycles: 162873632 heartbeat IPC: 0.766046 cumulative IPC: 0.66926 (Simulation time: 1 hr 31 min 2 sec) 
Heartbeat CPU 0 instructions: 143000003 cycles: 164116423 heartbeat IPC: 0.804641 cumulative IPC: 0.670473 (Simulation time: 1 hr 31 min 23 sec) 
Heartbeat CPU 0 instructions: 144000000 cycles: 165412604 heartbeat IPC: 0.771495 cumulative IPC: 0.671408 (Simulation time: 1 hr 31 min 43 sec) 
Heartbeat CPU 0 instructions: 145000003 cycles: 166678202 heartbeat IPC: 0.790143 cumulative IPC: 0.672472 (Simulation time: 1 hr 32 min 1 sec) 
Heartbeat CPU 0 instructions: 146000003 cycles: 167949593 heartbeat IPC: 0.78654 cumulative IPC: 0.673489 (Simulation time: 1 hr 32 min 18 sec) 
Heartbeat CPU 0 instructions: 147000003 cycles: 169229398 heartbeat IPC: 0.781369 cumulative IPC: 0.674449 (Simulation time: 1 hr 32 min 34 sec) 
Heartbeat CPU 0 instructions: 148000000 cycles: 170469344 heartbeat IPC: 0.806484 cumulative IPC: 0.675578 (Simulation time: 1 hr 32 min 50 sec) 
Heartbeat CPU 0 instructions: 149000000 cycles: 171754820 heartbeat IPC: 0.777922 cumulative IPC: 0.676477 (Simulation time: 1 hr 33 min 6 sec) 
Heartbeat CPU 0 instructions: 150000001 cycles: 173007241 heartbeat IPC: 0.798454 cumulative IPC: 0.677512 (Simulation time: 1 hr 33 min 22 sec) 
Finished CPU 0 instructions: 100000001 cycles: 147598918 cummulative IPC: 0.677512 (Simulation time: 1 hr 33 min 22 sec) 

ChampSim completed all CPUs

Region of Interest Statistics

CPU 0 cummulative IPC: 0.677512 instructions: 100000001 cycles: 147598918
LLC TOTAL     ACCESS:    4211888  HIT:    1282544  MISS:    2929344
LLC LOAD      ACCESS:     416575  HIT:     144491  MISS:     272084
LLC RFO       ACCESS:     595316  HIT:     160930  MISS:     434386
LLC PREFETCH  ACCESS:    2364610  HIT:     572446  MISS:    1792164
LLC WRITEBACK ACCESS:     835387  HIT:     404677  MISS:     430710
OPTgen accesses: 21810
OPTgen hits: 9256
OPTgen hit rate: 42.4392


