
*** ChampSim Multicore Out-of-Order Simulator ***

Warmup Instructions: 50000000
Simulation Instructions: 100000000
Configuration: 2
Number of CPUs: 1
LLC sets: 2048
LLC ways: 16
Off-chip DRAM Channels: 1 Width: 64-bit Data Rate: 1600 MT/s

CPU 0 runs /datasets/cs240c-wi22-a00-public/data/Assignment2-gz/zeusmp_100B.trace.gz
CPU 0 L1D next line prefetcher
CPU 0 L2C IP-based stride prefetcher
Initialize Hawkeye state
Heartbeat CPU 0 instructions: 1000002 cycles: 462679 heartbeat IPC: 2.16133 cumulative IPC: 2.16133 (Simulation time: 0 hr 0 min 35 sec) 
Heartbeat CPU 0 instructions: 2000001 cycles: 925469 heartbeat IPC: 2.16081 cumulative IPC: 2.16107 (Simulation time: 0 hr 1 min 9 sec) 
Heartbeat CPU 0 instructions: 3000003 cycles: 1388509 heartbeat IPC: 2.15964 cumulative IPC: 2.16059 (Simulation time: 0 hr 1 min 39 sec) 
Heartbeat CPU 0 instructions: 4000000 cycles: 1851236 heartbeat IPC: 2.16109 cumulative IPC: 2.16072 (Simulation time: 0 hr 2 min 11 sec) 
Heartbeat CPU 0 instructions: 5000003 cycles: 2314175 heartbeat IPC: 2.16012 cumulative IPC: 2.1606 (Simulation time: 0 hr 2 min 42 sec) 
Heartbeat CPU 0 instructions: 6000001 cycles: 2777030 heartbeat IPC: 2.1605 cumulative IPC: 2.16058 (Simulation time: 0 hr 3 min 10 sec) 
Heartbeat CPU 0 instructions: 7000001 cycles: 3239713 heartbeat IPC: 2.16131 cumulative IPC: 2.16069 (Simulation time: 0 hr 3 min 42 sec) 
Heartbeat CPU 0 instructions: 8000000 cycles: 3702585 heartbeat IPC: 2.16042 cumulative IPC: 2.16065 (Simulation time: 0 hr 4 min 14 sec) 
Heartbeat CPU 0 instructions: 9000003 cycles: 4165366 heartbeat IPC: 2.16086 cumulative IPC: 2.16068 (Simulation time: 0 hr 4 min 48 sec) 
Heartbeat CPU 0 instructions: 10000001 cycles: 4628690 heartbeat IPC: 2.15831 cumulative IPC: 2.16044 (Simulation time: 0 hr 5 min 21 sec) 
Heartbeat CPU 0 instructions: 11000000 cycles: 5092318 heartbeat IPC: 2.1569 cumulative IPC: 2.16012 (Simulation time: 0 hr 5 min 51 sec) 
Heartbeat CPU 0 instructions: 12000000 cycles: 5556006 heartbeat IPC: 2.15662 cumulative IPC: 2.15982 (Simulation time: 0 hr 6 min 21 sec) 
Heartbeat CPU 0 instructions: 13000001 cycles: 6019115 heartbeat IPC: 2.15932 cumulative IPC: 2.15979 (Simulation time: 0 hr 6 min 48 sec) 
Heartbeat CPU 0 instructions: 14000002 cycles: 6481910 heartbeat IPC: 2.16079 cumulative IPC: 2.15986 (Simulation time: 0 hr 7 min 18 sec) 
Heartbeat CPU 0 instructions: 15000002 cycles: 6944867 heartbeat IPC: 2.16003 cumulative IPC: 2.15987 (Simulation time: 0 hr 7 min 52 sec) 
Heartbeat CPU 0 instructions: 16000000 cycles: 7407539 heartbeat IPC: 2.16135 cumulative IPC: 2.15996 (Simulation time: 0 hr 8 min 20 sec) 
Heartbeat CPU 0 instructions: 17000000 cycles: 7838201 heartbeat IPC: 2.32201 cumulative IPC: 2.16886 (Simulation time: 0 hr 8 min 50 sec) 
Heartbeat CPU 0 instructions: 18000001 cycles: 8265869 heartbeat IPC: 2.33826 cumulative IPC: 2.17763 (Simulation time: 0 hr 9 min 17 sec) 
Heartbeat CPU 0 instructions: 19000002 cycles: 8693063 heartbeat IPC: 2.34086 cumulative IPC: 2.18565 (Simulation time: 0 hr 9 min 48 sec) 
Heartbeat CPU 0 instructions: 20000000 cycles: 9120476 heartbeat IPC: 2.33965 cumulative IPC: 2.19287 (Simulation time: 0 hr 10 min 19 sec) 
Heartbeat CPU 0 instructions: 21000001 cycles: 9547755 heartbeat IPC: 2.34039 cumulative IPC: 2.19947 (Simulation time: 0 hr 10 min 50 sec) 
Heartbeat CPU 0 instructions: 22000001 cycles: 9975183 heartbeat IPC: 2.33958 cumulative IPC: 2.20547 (Simulation time: 0 hr 11 min 22 sec) 
Heartbeat CPU 0 instructions: 23000000 cycles: 10403234 heartbeat IPC: 2.33617 cumulative IPC: 2.21085 (Simulation time: 0 hr 11 min 55 sec) 
Heartbeat CPU 0 instructions: 24000000 cycles: 10830546 heartbeat IPC: 2.34021 cumulative IPC: 2.21595 (Simulation time: 0 hr 12 min 25 sec) 
Heartbeat CPU 0 instructions: 25000002 cycles: 11257790 heartbeat IPC: 2.34059 cumulative IPC: 2.22068 (Simulation time: 0 hr 12 min 57 sec) 
Heartbeat CPU 0 instructions: 26000001 cycles: 11685234 heartbeat IPC: 2.33949 cumulative IPC: 2.22503 (Simulation time: 0 hr 13 min 29 sec) 
Heartbeat CPU 0 instructions: 27000003 cycles: 12113058 heartbeat IPC: 2.33741 cumulative IPC: 2.229 (Simulation time: 0 hr 14 min 1 sec) 
Heartbeat CPU 0 instructions: 28000000 cycles: 12540560 heartbeat IPC: 2.33916 cumulative IPC: 2.23276 (Simulation time: 0 hr 14 min 28 sec) 
Heartbeat CPU 0 instructions: 29000002 cycles: 12967728 heartbeat IPC: 2.341 cumulative IPC: 2.23632 (Simulation time: 0 hr 14 min 59 sec) 
Heartbeat CPU 0 instructions: 30000003 cycles: 13395167 heartbeat IPC: 2.33952 cumulative IPC: 2.23961 (Simulation time: 0 hr 15 min 29 sec) 
Heartbeat CPU 0 instructions: 31000001 cycles: 13822848 heartbeat IPC: 2.33819 cumulative IPC: 2.24266 (Simulation time: 0 hr 16 min 0 sec) 
Heartbeat CPU 0 instructions: 32000000 cycles: 14250554 heartbeat IPC: 2.33805 cumulative IPC: 2.24553 (Simulation time: 0 hr 16 min 34 sec) 
Heartbeat CPU 0 instructions: 33000002 cycles: 14677546 heartbeat IPC: 2.34197 cumulative IPC: 2.24833 (Simulation time: 0 hr 17 min 7 sec) 
Heartbeat CPU 0 instructions: 34000001 cycles: 15104732 heartbeat IPC: 2.3409 cumulative IPC: 2.25095 (Simulation time: 0 hr 17 min 42 sec) 
Heartbeat CPU 0 instructions: 35000003 cycles: 15532167 heartbeat IPC: 2.33954 cumulative IPC: 2.25339 (Simulation time: 0 hr 18 min 12 sec) 
Heartbeat CPU 0 instructions: 36000000 cycles: 15959792 heartbeat IPC: 2.33849 cumulative IPC: 2.25567 (Simulation time: 0 hr 18 min 45 sec) 
Heartbeat CPU 0 instructions: 37000001 cycles: 16387235 heartbeat IPC: 2.3395 cumulative IPC: 2.25785 (Simulation time: 0 hr 19 min 13 sec) 
Heartbeat CPU 0 instructions: 38000003 cycles: 16814711 heartbeat IPC: 2.33932 cumulative IPC: 2.25993 (Simulation time: 0 hr 19 min 44 sec) 
Heartbeat CPU 0 instructions: 39000000 cycles: 17242309 heartbeat IPC: 2.33864 cumulative IPC: 2.26188 (Simulation time: 0 hr 20 min 14 sec) 
Heartbeat CPU 0 instructions: 40000000 cycles: 17669641 heartbeat IPC: 2.3401 cumulative IPC: 2.26377 (Simulation time: 0 hr 20 min 44 sec) 
Heartbeat CPU 0 instructions: 41000003 cycles: 18097560 heartbeat IPC: 2.3369 cumulative IPC: 2.2655 (Simulation time: 0 hr 21 min 15 sec) 
Heartbeat CPU 0 instructions: 42000000 cycles: 18524658 heartbeat IPC: 2.34138 cumulative IPC: 2.26725 (Simulation time: 0 hr 21 min 44 sec) 
Heartbeat CPU 0 instructions: 43000003 cycles: 18952082 heartbeat IPC: 2.3396 cumulative IPC: 2.26888 (Simulation time: 0 hr 22 min 12 sec) 
Heartbeat CPU 0 instructions: 44000000 cycles: 19379537 heartbeat IPC: 2.33942 cumulative IPC: 2.27044 (Simulation time: 0 hr 22 min 45 sec) 
Heartbeat CPU 0 instructions: 45000001 cycles: 19807137 heartbeat IPC: 2.33864 cumulative IPC: 2.27191 (Simulation time: 0 hr 23 min 17 sec) 
Heartbeat CPU 0 instructions: 46000000 cycles: 20234739 heartbeat IPC: 2.33862 cumulative IPC: 2.27332 (Simulation time: 0 hr 23 min 48 sec) 
Heartbeat CPU 0 instructions: 47000003 cycles: 20661985 heartbeat IPC: 2.34058 cumulative IPC: 2.27471 (Simulation time: 0 hr 24 min 15 sec) 
Heartbeat CPU 0 instructions: 48000000 cycles: 21089436 heartbeat IPC: 2.33944 cumulative IPC: 2.27602 (Simulation time: 0 hr 24 min 48 sec) 
Heartbeat CPU 0 instructions: 49000001 cycles: 21516525 heartbeat IPC: 2.34143 cumulative IPC: 2.27732 (Simulation time: 0 hr 25 min 20 sec) 
Heartbeat CPU 0 instructions: 50000000 cycles: 21944550 heartbeat IPC: 2.33631 cumulative IPC: 2.27847 (Simulation time: 0 hr 25 min 51 sec) 

Warmup complete CPU 0 instructions: 50000003 cycles: 21944551 (Simulation time: 0 hr 25 min 51 sec) 

Heartbeat CPU 0 instructions: 51000002 cycles: 22635601 heartbeat IPC: 1.44707 cumulative IPC: 1.44707 (Simulation time: 0 hr 26 min 26 sec) 
Heartbeat CPU 0 instructions: 52000000 cycles: 23317841 heartbeat IPC: 1.46576 cumulative IPC: 1.45635 (Simulation time: 0 hr 27 min 0 sec) 
Heartbeat CPU 0 instructions: 53000001 cycles: 24009684 heartbeat IPC: 1.44542 cumulative IPC: 1.45269 (Simulation time: 0 hr 27 min 34 sec) 
Heartbeat CPU 0 instructions: 54000003 cycles: 24695739 heartbeat IPC: 1.45761 cumulative IPC: 1.45392 (Simulation time: 0 hr 28 min 11 sec) 
Heartbeat CPU 0 instructions: 55000003 cycles: 25382741 heartbeat IPC: 1.4556 cumulative IPC: 1.45425 (Simulation time: 0 hr 28 min 48 sec) 
Heartbeat CPU 0 instructions: 56000000 cycles: 26073367 heartbeat IPC: 1.44796 cumulative IPC: 1.4532 (Simulation time: 0 hr 29 min 26 sec) 
Heartbeat CPU 0 instructions: 57000003 cycles: 26753661 heartbeat IPC: 1.46996 cumulative IPC: 1.45557 (Simulation time: 0 hr 30 min 4 sec) 
Heartbeat CPU 0 instructions: 58000003 cycles: 27448517 heartbeat IPC: 1.43915 cumulative IPC: 1.4535 (Simulation time: 0 hr 30 min 43 sec) 
Heartbeat CPU 0 instructions: 59000000 cycles: 28132578 heartbeat IPC: 1.46185 cumulative IPC: 1.45442 (Simulation time: 0 hr 31 min 20 sec) 
Heartbeat CPU 0 instructions: 60000000 cycles: 28829770 heartbeat IPC: 1.43433 cumulative IPC: 1.45239 (Simulation time: 0 hr 32 min 0 sec) 
Heartbeat CPU 0 instructions: 61000000 cycles: 29514471 heartbeat IPC: 1.46049 cumulative IPC: 1.45312 (Simulation time: 0 hr 32 min 35 sec) 
Heartbeat CPU 0 instructions: 62000001 cycles: 30209550 heartbeat IPC: 1.43869 cumulative IPC: 1.45191 (Simulation time: 0 hr 33 min 11 sec) 
Heartbeat CPU 0 instructions: 63000001 cycles: 30895748 heartbeat IPC: 1.45731 cumulative IPC: 1.45232 (Simulation time: 0 hr 33 min 43 sec) 
Heartbeat CPU 0 instructions: 64000000 cycles: 31591425 heartbeat IPC: 1.43745 cumulative IPC: 1.45125 (Simulation time: 0 hr 34 min 17 sec) 
Heartbeat CPU 0 instructions: 65000003 cycles: 32273517 heartbeat IPC: 1.46608 cumulative IPC: 1.45223 (Simulation time: 0 hr 34 min 54 sec) 
Heartbeat CPU 0 instructions: 66000003 cycles: 32965473 heartbeat IPC: 1.44518 cumulative IPC: 1.45178 (Simulation time: 0 hr 35 min 28 sec) 
Heartbeat CPU 0 instructions: 67000000 cycles: 33647276 heartbeat IPC: 1.46669 cumulative IPC: 1.45265 (Simulation time: 0 hr 36 min 1 sec) 
Heartbeat CPU 0 instructions: 68000000 cycles: 34336937 heartbeat IPC: 1.44999 cumulative IPC: 1.4525 (Simulation time: 0 hr 36 min 35 sec) 
Heartbeat CPU 0 instructions: 69000000 cycles: 35022733 heartbeat IPC: 1.45816 cumulative IPC: 1.4528 (Simulation time: 0 hr 37 min 8 sec) 
Heartbeat CPU 0 instructions: 70000003 cycles: 35703409 heartbeat IPC: 1.46913 cumulative IPC: 1.45361 (Simulation time: 0 hr 37 min 43 sec) 
Heartbeat CPU 0 instructions: 71000003 cycles: 36395459 heartbeat IPC: 1.44498 cumulative IPC: 1.4532 (Simulation time: 0 hr 38 min 24 sec) 
Heartbeat CPU 0 instructions: 72000000 cycles: 37079183 heartbeat IPC: 1.46257 cumulative IPC: 1.45362 (Simulation time: 0 hr 38 min 57 sec) 
Heartbeat CPU 0 instructions: 73000002 cycles: 37773449 heartbeat IPC: 1.44037 cumulative IPC: 1.45304 (Simulation time: 0 hr 39 min 39 sec) 
Heartbeat CPU 0 instructions: 74000003 cycles: 38452235 heartbeat IPC: 1.47322 cumulative IPC: 1.45387 (Simulation time: 0 hr 40 min 25 sec) 
Heartbeat CPU 0 instructions: 75000003 cycles: 39144186 heartbeat IPC: 1.44519 cumulative IPC: 1.45352 (Simulation time: 0 hr 41 min 17 sec) 
Heartbeat CPU 0 instructions: 76000000 cycles: 39825993 heartbeat IPC: 1.46669 cumulative IPC: 1.45402 (Simulation time: 0 hr 42 min 6 sec) 
Heartbeat CPU 0 instructions: 77000002 cycles: 40521956 heartbeat IPC: 1.43686 cumulative IPC: 1.45338 (Simulation time: 0 hr 42 min 56 sec) 
Heartbeat CPU 0 instructions: 78000002 cycles: 41205195 heartbeat IPC: 1.46362 cumulative IPC: 1.45374 (Simulation time: 0 hr 43 min 47 sec) 
Heartbeat CPU 0 instructions: 79000000 cycles: 41898397 heartbeat IPC: 1.44258 cumulative IPC: 1.45335 (Simulation time: 0 hr 44 min 35 sec) 
Heartbeat CPU 0 instructions: 80000000 cycles: 42579593 heartbeat IPC: 1.46801 cumulative IPC: 1.45384 (Simulation time: 0 hr 45 min 27 sec) 
Heartbeat CPU 0 instructions: 81000003 cycles: 43272622 heartbeat IPC: 1.44295 cumulative IPC: 1.45348 (Simulation time: 0 hr 46 min 20 sec) 
Heartbeat CPU 0 instructions: 82000000 cycles: 43958233 heartbeat IPC: 1.45855 cumulative IPC: 1.45364 (Simulation time: 0 hr 47 min 13 sec) 
Heartbeat CPU 0 instructions: 83000002 cycles: 44637123 heartbeat IPC: 1.473 cumulative IPC: 1.45422 (Simulation time: 0 hr 48 min 6 sec) 
Heartbeat CPU 0 instructions: 84000000 cycles: 45330544 heartbeat IPC: 1.44212 cumulative IPC: 1.45386 (Simulation time: 0 hr 48 min 59 sec) 
Heartbeat CPU 0 instructions: 85000001 cycles: 46010421 heartbeat IPC: 1.47086 cumulative IPC: 1.45434 (Simulation time: 0 hr 49 min 52 sec) 
Heartbeat CPU 0 instructions: 86000001 cycles: 46704577 heartbeat IPC: 1.4406 cumulative IPC: 1.45396 (Simulation time: 0 hr 50 min 44 sec) 
Heartbeat CPU 0 instructions: 87000001 cycles: 47389126 heartbeat IPC: 1.46082 cumulative IPC: 1.45414 (Simulation time: 0 hr 51 min 34 sec) 
Heartbeat CPU 0 instructions: 88000000 cycles: 48080585 heartbeat IPC: 1.44622 cumulative IPC: 1.45393 (Simulation time: 0 hr 52 min 30 sec) 
Heartbeat CPU 0 instructions: 89000003 cycles: 48762894 heartbeat IPC: 1.46562 cumulative IPC: 1.45423 (Simulation time: 0 hr 53 min 22 sec) 
Heartbeat CPU 0 instructions: 90000001 cycles: 49454239 heartbeat IPC: 1.44645 cumulative IPC: 1.45403 (Simulation time: 0 hr 54 min 17 sec) 
Heartbeat CPU 0 instructions: 91000002 cycles: 50139951 heartbeat IPC: 1.45834 cumulative IPC: 1.45414 (Simulation time: 0 hr 55 min 13 sec) 
Heartbeat CPU 0 instructions: 92000000 cycles: 50834793 heartbeat IPC: 1.43917 cumulative IPC: 1.45378 (Simulation time: 0 hr 56 min 3 sec) 
Heartbeat CPU 0 instructions: 93000001 cycles: 51519378 heartbeat IPC: 1.46074 cumulative IPC: 1.45394 (Simulation time: 0 hr 56 min 54 sec) 
Heartbeat CPU 0 instructions: 94000003 cycles: 52214604 heartbeat IPC: 1.43838 cumulative IPC: 1.45358 (Simulation time: 0 hr 57 min 45 sec) 
Heartbeat CPU 0 instructions: 95000003 cycles: 52901478 heartbeat IPC: 1.45587 cumulative IPC: 1.45363 (Simulation time: 0 hr 58 min 38 sec) 
Heartbeat CPU 0 instructions: 96000000 cycles: 53589068 heartbeat IPC: 1.45435 cumulative IPC: 1.45365 (Simulation time: 0 hr 59 min 29 sec) 
Heartbeat CPU 0 instructions: 97000000 cycles: 54282009 heartbeat IPC: 1.44312 cumulative IPC: 1.45342 (Simulation time: 1 hr 0 min 23 sec) 
Heartbeat CPU 0 instructions: 98000001 cycles: 54961533 heartbeat IPC: 1.47162 cumulative IPC: 1.4538 (Simulation time: 1 hr 1 min 11 sec) 
Heartbeat CPU 0 instructions: 99000001 cycles: 55666505 heartbeat IPC: 1.4185 cumulative IPC: 1.45306 (Simulation time: 1 hr 2 min 4 sec) 
Heartbeat CPU 0 instructions: 100000000 cycles: 56362220 heartbeat IPC: 1.43737 cumulative IPC: 1.45274 (Simulation time: 1 hr 3 min 1 sec) 
Heartbeat CPU 0 instructions: 101000002 cycles: 57068263 heartbeat IPC: 1.41635 cumulative IPC: 1.45201 (Simulation time: 1 hr 3 min 50 sec) 
Heartbeat CPU 0 instructions: 102000003 cycles: 57766352 heartbeat IPC: 1.43248 cumulative IPC: 1.45163 (Simulation time: 1 hr 4 min 45 sec) 
Heartbeat CPU 0 instructions: 103000001 cycles: 58480935 heartbeat IPC: 1.39941 cumulative IPC: 1.45061 (Simulation time: 1 hr 5 min 40 sec) 
Heartbeat CPU 0 instructions: 104000000 cycles: 59183952 heartbeat IPC: 1.42244 cumulative IPC: 1.45008 (Simulation time: 1 hr 6 min 32 sec) 
Heartbeat CPU 0 instructions: 105000003 cycles: 59893362 heartbeat IPC: 1.40963 cumulative IPC: 1.44932 (Simulation time: 1 hr 7 min 20 sec) 
Heartbeat CPU 0 instructions: 106000002 cycles: 60588158 heartbeat IPC: 1.43927 cumulative IPC: 1.44914 (Simulation time: 1 hr 8 min 9 sec) 
Heartbeat CPU 0 instructions: 107000000 cycles: 61288924 heartbeat IPC: 1.42701 cumulative IPC: 1.44875 (Simulation time: 1 hr 9 min 2 sec) 
Heartbeat CPU 0 instructions: 108000000 cycles: 61970349 heartbeat IPC: 1.46751 cumulative IPC: 1.44907 (Simulation time: 1 hr 9 min 54 sec) 
Heartbeat CPU 0 instructions: 109000002 cycles: 62651688 heartbeat IPC: 1.4677 cumulative IPC: 1.44938 (Simulation time: 1 hr 10 min 45 sec) 
Heartbeat CPU 0 instructions: 110000000 cycles: 63345655 heartbeat IPC: 1.44099 cumulative IPC: 1.44924 (Simulation time: 1 hr 11 min 34 sec) 
Heartbeat CPU 0 instructions: 111000002 cycles: 64027619 heartbeat IPC: 1.46636 cumulative IPC: 1.44951 (Simulation time: 1 hr 12 min 25 sec) 
Heartbeat CPU 0 instructions: 112000000 cycles: 64719630 heartbeat IPC: 1.44506 cumulative IPC: 1.44944 (Simulation time: 1 hr 13 min 13 sec) 
Heartbeat CPU 0 instructions: 113000001 cycles: 65401807 heartbeat IPC: 1.4659 cumulative IPC: 1.4497 (Simulation time: 1 hr 14 min 2 sec) 
Heartbeat CPU 0 instructions: 114000000 cycles: 66104052 heartbeat IPC: 1.424 cumulative IPC: 1.44929 (Simulation time: 1 hr 14 min 48 sec) 
Heartbeat CPU 0 instructions: 115000000 cycles: 66791006 heartbeat IPC: 1.4557 cumulative IPC: 1.44939 (Simulation time: 1 hr 15 min 32 sec) 
Heartbeat CPU 0 instructions: 116000000 cycles: 67483949 heartbeat IPC: 1.44312 cumulative IPC: 1.44929 (Simulation time: 1 hr 16 min 13 sec) 
Heartbeat CPU 0 instructions: 117000003 cycles: 68166832 heartbeat IPC: 1.46438 cumulative IPC: 1.44952 (Simulation time: 1 hr 16 min 55 sec) 
Heartbeat CPU 0 instructions: 118000001 cycles: 68863536 heartbeat IPC: 1.43533 cumulative IPC: 1.44931 (Simulation time: 1 hr 17 min 34 sec) 
Heartbeat CPU 0 instructions: 119000003 cycles: 69545593 heartbeat IPC: 1.46616 cumulative IPC: 1.44955 (Simulation time: 1 hr 18 min 13 sec) 
Heartbeat CPU 0 instructions: 120000000 cycles: 70236427 heartbeat IPC: 1.44752 cumulative IPC: 1.44952 (Simulation time: 1 hr 18 min 51 sec) 
Heartbeat CPU 0 instructions: 121000000 cycles: 70918504 heartbeat IPC: 1.46611 cumulative IPC: 1.44975 (Simulation time: 1 hr 19 min 32 sec) 
Heartbeat CPU 0 instructions: 122000001 cycles: 71603662 heartbeat IPC: 1.45952 cumulative IPC: 1.44989 (Simulation time: 1 hr 20 min 9 sec) 
Heartbeat CPU 0 instructions: 123000001 cycles: 72292956 heartbeat IPC: 1.45076 cumulative IPC: 1.4499 (Simulation time: 1 hr 20 min 43 sec) 
Heartbeat CPU 0 instructions: 124000000 cycles: 72971488 heartbeat IPC: 1.47377 cumulative IPC: 1.45021 (Simulation time: 1 hr 21 min 16 sec) 
Heartbeat CPU 0 instructions: 125000002 cycles: 73662620 heartbeat IPC: 1.4469 cumulative IPC: 1.45017 (Simulation time: 1 hr 21 min 52 sec) 
Heartbeat CPU 0 instructions: 126000001 cycles: 74344463 heartbeat IPC: 1.46661 cumulative IPC: 1.45038 (Simulation time: 1 hr 22 min 27 sec) 
Heartbeat CPU 0 instructions: 127000002 cycles: 75034130 heartbeat IPC: 1.44998 cumulative IPC: 1.45038 (Simulation time: 1 hr 22 min 55 sec) 
Heartbeat CPU 0 instructions: 128000000 cycles: 75712344 heartbeat IPC: 1.47446 cumulative IPC: 1.45068 (Simulation time: 1 hr 23 min 28 sec) 
Heartbeat CPU 0 instructions: 129000001 cycles: 76404470 heartbeat IPC: 1.44483 cumulative IPC: 1.45061 (Simulation time: 1 hr 23 min 53 sec) 
Heartbeat CPU 0 instructions: 130000002 cycles: 77085384 heartbeat IPC: 1.46862 cumulative IPC: 1.45083 (Simulation time: 1 hr 24 min 21 sec) 
Heartbeat CPU 0 instructions: 131000000 cycles: 77776292 heartbeat IPC: 1.44737 cumulative IPC: 1.45079 (Simulation time: 1 hr 24 min 55 sec) 
Heartbeat CPU 0 instructions: 132000000 cycles: 78458431 heartbeat IPC: 1.46598 cumulative IPC: 1.45097 (Simulation time: 1 hr 25 min 22 sec) 
Heartbeat CPU 0 instructions: 133000001 cycles: 79153163 heartbeat IPC: 1.43941 cumulative IPC: 1.45083 (Simulation time: 1 hr 25 min 50 sec) 
Heartbeat CPU 0 instructions: 134000000 cycles: 79833632 heartbeat IPC: 1.46957 cumulative IPC: 1.45105 (Simulation time: 1 hr 26 min 16 sec) 
Heartbeat CPU 0 instructions: 135000001 cycles: 80526264 heartbeat IPC: 1.44377 cumulative IPC: 1.45096 (Simulation time: 1 hr 26 min 41 sec) 
Heartbeat CPU 0 instructions: 136000000 cycles: 81210268 heartbeat IPC: 1.46198 cumulative IPC: 1.45109 (Simulation time: 1 hr 27 min 3 sec) 
Heartbeat CPU 0 instructions: 137000001 cycles: 81890705 heartbeat IPC: 1.46965 cumulative IPC: 1.4513 (Simulation time: 1 hr 27 min 28 sec) 
Heartbeat CPU 0 instructions: 138000002 cycles: 82584076 heartbeat IPC: 1.44223 cumulative IPC: 1.4512 (Simulation time: 1 hr 27 min 52 sec) 
Heartbeat CPU 0 instructions: 139000002 cycles: 83265670 heartbeat IPC: 1.46715 cumulative IPC: 1.45138 (Simulation time: 1 hr 28 min 15 sec) 
Heartbeat CPU 0 instructions: 140000000 cycles: 83962183 heartbeat IPC: 1.43572 cumulative IPC: 1.4512 (Simulation time: 1 hr 28 min 37 sec) 
Heartbeat CPU 0 instructions: 141000001 cycles: 84641707 heartbeat IPC: 1.47162 cumulative IPC: 1.45142 (Simulation time: 1 hr 28 min 57 sec) 
Heartbeat CPU 0 instructions: 142000001 cycles: 85335658 heartbeat IPC: 1.44102 cumulative IPC: 1.45131 (Simulation time: 1 hr 29 min 21 sec) 
Heartbeat CPU 0 instructions: 143000000 cycles: 86017783 heartbeat IPC: 1.46601 cumulative IPC: 1.45146 (Simulation time: 1 hr 29 min 45 sec) 
Heartbeat CPU 0 instructions: 144000000 cycles: 86712606 heartbeat IPC: 1.43922 cumulative IPC: 1.45133 (Simulation time: 1 hr 30 min 6 sec) 
Heartbeat CPU 0 instructions: 145000001 cycles: 87392054 heartbeat IPC: 1.47178 cumulative IPC: 1.45155 (Simulation time: 1 hr 30 min 27 sec) 
Heartbeat CPU 0 instructions: 146000003 cycles: 88089284 heartbeat IPC: 1.43425 cumulative IPC: 1.45136 (Simulation time: 1 hr 30 min 48 sec) 
Heartbeat CPU 0 instructions: 147000002 cycles: 88771585 heartbeat IPC: 1.46563 cumulative IPC: 1.45151 (Simulation time: 1 hr 31 min 10 sec) 
Heartbeat CPU 0 instructions: 148000000 cycles: 89469288 heartbeat IPC: 1.43327 cumulative IPC: 1.45132 (Simulation time: 1 hr 31 min 31 sec) 
Heartbeat CPU 0 instructions: 149000001 cycles: 90157651 heartbeat IPC: 1.45272 cumulative IPC: 1.45133 (Simulation time: 1 hr 31 min 50 sec) 
Heartbeat CPU 0 instructions: 150000001 cycles: 90841183 heartbeat IPC: 1.46299 cumulative IPC: 1.45145 (Simulation time: 1 hr 32 min 8 sec) 
Finished CPU 0 instructions: 100000002 cycles: 68896633 cummulative IPC: 1.45145 (Simulation time: 1 hr 32 min 8 sec) 

ChampSim completed all CPUs

Region of Interest Statistics

CPU 0 cummulative IPC: 1.45145 instructions: 100000002 cycles: 68896633
LLC TOTAL     ACCESS:     824910  HIT:     149063  MISS:     675847
LLC LOAD      ACCESS:      16733  HIT:       7592  MISS:       9141
LLC RFO       ACCESS:     202295  HIT:       3758  MISS:     198537
LLC PREFETCH  ACCESS:     403153  HIT:     103243  MISS:     299910
LLC WRITEBACK ACCESS:     202729  HIT:      34470  MISS:     168259
OPTgen accesses: 5433
OPTgen hits: 1514
OPTgen hit rate: 27.8667


