
*** ChampSim Multicore Out-of-Order Simulator ***

Warmup Instructions: 10000000
Simulation Instructions: 100000000
Configuration: 2
Number of CPUs: 1
LLC sets: 2048
LLC ways: 16
Off-chip DRAM Channels: 1 Width: 64-bit Data Rate: 1600 MT/s

CPU 0 runs /datasets/cs240c-wi22-a00-public/data/Assignment2-gz/zeusmp_600B.trace.gz
CPU 0 L1D next line prefetcher
CPU 0 L2C IP-based stride prefetcher
Initialize SRRIP state
Heartbeat CPU 0 instructions: 1000000 cycles: 407346 heartbeat IPC: 2.45492 cumulative IPC: 2.45492 (Simulation time: 0 hr 0 min 33 sec) 
Heartbeat CPU 0 instructions: 2000001 cycles: 814284 heartbeat IPC: 2.45738 cumulative IPC: 2.45615 (Simulation time: 0 hr 1 min 12 sec) 
Heartbeat CPU 0 instructions: 3000000 cycles: 1221753 heartbeat IPC: 2.45417 cumulative IPC: 2.45549 (Simulation time: 0 hr 1 min 47 sec) 
Heartbeat CPU 0 instructions: 4000000 cycles: 1629404 heartbeat IPC: 2.45308 cumulative IPC: 2.45489 (Simulation time: 0 hr 2 min 23 sec) 
Heartbeat CPU 0 instructions: 5000001 cycles: 2036967 heartbeat IPC: 2.45361 cumulative IPC: 2.45463 (Simulation time: 0 hr 3 min 0 sec) 
Heartbeat CPU 0 instructions: 6000000 cycles: 2444291 heartbeat IPC: 2.45505 cumulative IPC: 2.4547 (Simulation time: 0 hr 3 min 35 sec) 
Heartbeat CPU 0 instructions: 7000000 cycles: 2851775 heartbeat IPC: 2.45408 cumulative IPC: 2.45461 (Simulation time: 0 hr 4 min 13 sec) 
Heartbeat CPU 0 instructions: 8000000 cycles: 3259377 heartbeat IPC: 2.45337 cumulative IPC: 2.45446 (Simulation time: 0 hr 4 min 51 sec) 
Heartbeat CPU 0 instructions: 9000003 cycles: 3666454 heartbeat IPC: 2.45655 cumulative IPC: 2.45469 (Simulation time: 0 hr 5 min 28 sec) 
Heartbeat CPU 0 instructions: 10000001 cycles: 4073958 heartbeat IPC: 2.45396 cumulative IPC: 2.45462 (Simulation time: 0 hr 6 min 7 sec) 

Warmup complete CPU 0 instructions: 10000001 cycles: 4073958 (Simulation time: 0 hr 6 min 7 sec) 

Heartbeat CPU 0 instructions: 11000000 cycles: 4748303 heartbeat IPC: 1.48292 cumulative IPC: 1.48292 (Simulation time: 0 hr 6 min 50 sec) 
Heartbeat CPU 0 instructions: 12000000 cycles: 5422168 heartbeat IPC: 1.48398 cumulative IPC: 1.48345 (Simulation time: 0 hr 7 min 30 sec) 
