
*** ChampSim Multicore Out-of-Order Simulator ***

Warmup Instructions: 10000000
Simulation Instructions: 100000000
Configuration: 2
Number of CPUs: 1
LLC sets: 2048
LLC ways: 16
Off-chip DRAM Channels: 1 Width: 64-bit Data Rate: 1600 MT/s

CPU 0 runs /datasets/cs240c-wi22-a00-public/data/Assignment2-gz/sphinx3_2520B.trace.gz
CPU 0 L1D next line prefetcher
CPU 0 L2C IP-based stride prefetcher
Initialize SRRIP state
Heartbeat CPU 0 instructions: 1000003 cycles: 338965 heartbeat IPC: 2.95017 cumulative IPC: 2.95017 (Simulation time: 0 hr 0 min 35 sec) 
Heartbeat CPU 0 instructions: 2000000 cycles: 737243 heartbeat IPC: 2.5108 cumulative IPC: 2.71281 (Simulation time: 0 hr 1 min 11 sec) 
Heartbeat CPU 0 instructions: 3000003 cycles: 1185241 heartbeat IPC: 2.23216 cumulative IPC: 2.53113 (Simulation time: 0 hr 1 min 45 sec) 
Heartbeat CPU 0 instructions: 4000000 cycles: 1524269 heartbeat IPC: 2.9496 cumulative IPC: 2.62421 (Simulation time: 0 hr 2 min 19 sec) 
Heartbeat CPU 0 instructions: 5000001 cycles: 1902416 heartbeat IPC: 2.64448 cumulative IPC: 2.62824 (Simulation time: 0 hr 2 min 56 sec) 
Heartbeat CPU 0 instructions: 6000001 cycles: 2367847 heartbeat IPC: 2.14855 cumulative IPC: 2.53395 (Simulation time: 0 hr 3 min 29 sec) 
Heartbeat CPU 0 instructions: 7000001 cycles: 2706788 heartbeat IPC: 2.95037 cumulative IPC: 2.58609 (Simulation time: 0 hr 4 min 0 sec) 
Heartbeat CPU 0 instructions: 8000000 cycles: 3055800 heartbeat IPC: 2.86523 cumulative IPC: 2.61797 (Simulation time: 0 hr 4 min 33 sec) 
Heartbeat CPU 0 instructions: 9000000 cycles: 3509225 heartbeat IPC: 2.20544 cumulative IPC: 2.56467 (Simulation time: 0 hr 5 min 4 sec) 
Heartbeat CPU 0 instructions: 10000000 cycles: 3859382 heartbeat IPC: 2.85586 cumulative IPC: 2.59109 (Simulation time: 0 hr 5 min 36 sec) 

Warmup complete CPU 0 instructions: 10000004 cycles: 3859383 (Simulation time: 0 hr 5 min 36 sec) 

Heartbeat CPU 0 instructions: 11000001 cycles: 4652380 heartbeat IPC: 1.26104 cumulative IPC: 1.26104 (Simulation time: 0 hr 6 min 14 sec) 
Heartbeat CPU 0 instructions: 12000000 cycles: 5520018 heartbeat IPC: 1.15255 cumulative IPC: 1.20436 (Simulation time: 0 hr 6 min 51 sec) 
Heartbeat CPU 0 instructions: 13000002 cycles: 6382763 heartbeat IPC: 1.15909 cumulative IPC: 1.18888 (Simulation time: 0 hr 7 min 30 sec) 
