
*** ChampSim Multicore Out-of-Order Simulator ***

Warmup Instructions: 10000000
Simulation Instructions: 100000000
Configuration: 2
Number of CPUs: 1
LLC sets: 2048
LLC ways: 16
Off-chip DRAM Channels: 1 Width: 64-bit Data Rate: 1600 MT/s

CPU 0 runs /datasets/cs240c-wi22-a00-public/data/Assignment2-gz/soplex_66B.trace.gz
CPU 0 L1D next line prefetcher
CPU 0 L2C IP-based stride prefetcher
Initialize SRRIP state
Heartbeat CPU 0 instructions: 1000003 cycles: 415046 heartbeat IPC: 2.40938 cumulative IPC: 2.40938 (Simulation time: 0 hr 0 min 36 sec) 
Heartbeat CPU 0 instructions: 2000003 cycles: 837424 heartbeat IPC: 2.36755 cumulative IPC: 2.38828 (Simulation time: 0 hr 1 min 11 sec) 
Heartbeat CPU 0 instructions: 3000003 cycles: 1242518 heartbeat IPC: 2.46856 cumulative IPC: 2.41445 (Simulation time: 0 hr 1 min 47 sec) 
Heartbeat CPU 0 instructions: 4000000 cycles: 1626630 heartbeat IPC: 2.6034 cumulative IPC: 2.45907 (Simulation time: 0 hr 2 min 18 sec) 
Heartbeat CPU 0 instructions: 5000000 cycles: 2041107 heartbeat IPC: 2.41268 cumulative IPC: 2.44965 (Simulation time: 0 hr 2 min 50 sec) 
Heartbeat CPU 0 instructions: 6000000 cycles: 2514954 heartbeat IPC: 2.11039 cumulative IPC: 2.38573 (Simulation time: 0 hr 3 min 26 sec) 
Heartbeat CPU 0 instructions: 7000002 cycles: 2887158 heartbeat IPC: 2.6867 cumulative IPC: 2.42453 (Simulation time: 0 hr 4 min 0 sec) 
Heartbeat CPU 0 instructions: 8000000 cycles: 3312790 heartbeat IPC: 2.34944 cumulative IPC: 2.41488 (Simulation time: 0 hr 4 min 39 sec) 
Heartbeat CPU 0 instructions: 9000001 cycles: 3751353 heartbeat IPC: 2.28018 cumulative IPC: 2.39913 (Simulation time: 0 hr 5 min 12 sec) 
Heartbeat CPU 0 instructions: 10000002 cycles: 4163457 heartbeat IPC: 2.42657 cumulative IPC: 2.40185 (Simulation time: 0 hr 5 min 51 sec) 

Warmup complete CPU 0 instructions: 10000002 cycles: 4163457 (Simulation time: 0 hr 5 min 51 sec) 

Heartbeat CPU 0 instructions: 11000001 cycles: 7205050 heartbeat IPC: 0.328775 cumulative IPC: 0.328775 (Simulation time: 0 hr 6 min 40 sec) 
Heartbeat CPU 0 instructions: 12000000 cycles: 8494137 heartbeat IPC: 0.775742 cumulative IPC: 0.461821 (Simulation time: 0 hr 7 min 11 sec) 
Heartbeat CPU 0 instructions: 13000001 cycles: 11043925 heartbeat IPC: 0.39219 cumulative IPC: 0.436017 (Simulation time: 0 hr 7 min 52 sec) 
