
*** ChampSim Multicore Out-of-Order Simulator ***

Warmup Instructions: 10000000
Simulation Instructions: 100000000
Configuration: 2
Number of CPUs: 1
LLC sets: 2048
LLC ways: 16
Off-chip DRAM Channels: 1 Width: 64-bit Data Rate: 1600 MT/s

CPU 0 runs /datasets/cs240c-wi22-a00-public/data/Assignment2-gz/astar_313B.trace.gz
CPU 0 L1D next line prefetcher
CPU 0 L2C IP-based stride prefetcher
Initialize SRRIP state
Heartbeat CPU 0 instructions: 1000001 cycles: 675696 heartbeat IPC: 1.47996 cumulative IPC: 1.47996 (Simulation time: 0 hr 1 min 0 sec) 
Heartbeat CPU 0 instructions: 2000003 cycles: 1263003 heartbeat IPC: 1.70269 cumulative IPC: 1.58353 (Simulation time: 0 hr 1 min 49 sec) 
Heartbeat CPU 0 instructions: 3000003 cycles: 1937090 heartbeat IPC: 1.48349 cumulative IPC: 1.54872 (Simulation time: 0 hr 2 min 45 sec) 
Heartbeat CPU 0 instructions: 4000000 cycles: 2610575 heartbeat IPC: 1.48481 cumulative IPC: 1.53223 (Simulation time: 0 hr 3 min 41 sec) 
Heartbeat CPU 0 instructions: 5000002 cycles: 3285147 heartbeat IPC: 1.48242 cumulative IPC: 1.522 (Simulation time: 0 hr 4 min 41 sec) 
Heartbeat CPU 0 instructions: 6000001 cycles: 3871163 heartbeat IPC: 1.70644 cumulative IPC: 1.54992 (Simulation time: 0 hr 5 min 42 sec) 
Heartbeat CPU 0 instructions: 7000001 cycles: 4439756 heartbeat IPC: 1.75873 cumulative IPC: 1.57666 (Simulation time: 0 hr 6 min 46 sec) 
Heartbeat CPU 0 instructions: 8000000 cycles: 4991358 heartbeat IPC: 1.8129 cumulative IPC: 1.60277 (Simulation time: 0 hr 7 min 42 sec) 
