
*** ChampSim Multicore Out-of-Order Simulator ***

Warmup Instructions: 10000000
Simulation Instructions: 100000000
Configuration: 2
Number of CPUs: 1
LLC sets: 2048
LLC ways: 16
Off-chip DRAM Channels: 1 Width: 64-bit Data Rate: 1600 MT/s

CPU 0 runs /datasets/cs240c-wi22-a00-public/data/Assignment2-gz/sphinx3_1339B.trace.gz
CPU 0 L1D next line prefetcher
CPU 0 L2C IP-based stride prefetcher
Initialize SRRIP state
Heartbeat CPU 0 instructions: 1000000 cycles: 339022 heartbeat IPC: 2.94966 cumulative IPC: 2.94966 (Simulation time: 0 hr 0 min 38 sec) 
Heartbeat CPU 0 instructions: 2000001 cycles: 693417 heartbeat IPC: 2.82171 cumulative IPC: 2.88427 (Simulation time: 0 hr 1 min 15 sec) 
Heartbeat CPU 0 instructions: 3000000 cycles: 1084463 heartbeat IPC: 2.55724 cumulative IPC: 2.76635 (Simulation time: 0 hr 1 min 54 sec) 
Heartbeat CPU 0 instructions: 4000000 cycles: 1529987 heartbeat IPC: 2.24455 cumulative IPC: 2.6144 (Simulation time: 0 hr 2 min 29 sec) 
Heartbeat CPU 0 instructions: 5000003 cycles: 1869000 heartbeat IPC: 2.94975 cumulative IPC: 2.67523 (Simulation time: 0 hr 3 min 4 sec) 
Heartbeat CPU 0 instructions: 6000002 cycles: 2253236 heartbeat IPC: 2.60256 cumulative IPC: 2.66284 (Simulation time: 0 hr 3 min 45 sec) 
Heartbeat CPU 0 instructions: 7000001 cycles: 2716985 heartbeat IPC: 2.15634 cumulative IPC: 2.57639 (Simulation time: 0 hr 4 min 22 sec) 
Heartbeat CPU 0 instructions: 8000000 cycles: 3055856 heartbeat IPC: 2.95097 cumulative IPC: 2.61792 (Simulation time: 0 hr 4 min 59 sec) 
Heartbeat CPU 0 instructions: 9000003 cycles: 3412445 heartbeat IPC: 2.80436 cumulative IPC: 2.63741 (Simulation time: 0 hr 5 min 36 sec) 
Heartbeat CPU 0 instructions: 10000001 cycles: 3799176 heartbeat IPC: 2.58577 cumulative IPC: 2.63215 (Simulation time: 0 hr 6 min 14 sec) 

Warmup complete CPU 0 instructions: 10000001 cycles: 3799176 (Simulation time: 0 hr 6 min 14 sec) 

Heartbeat CPU 0 instructions: 11000001 cycles: 4698316 heartbeat IPC: 1.11217 cumulative IPC: 1.11217 (Simulation time: 0 hr 6 min 56 sec) 
Heartbeat CPU 0 instructions: 12000000 cycles: 5518587 heartbeat IPC: 1.21911 cumulative IPC: 1.16319 (Simulation time: 0 hr 7 min 38 sec) 
