
*** ChampSim Multicore Out-of-Order Simulator ***

Warmup Instructions: 10000000
Simulation Instructions: 100000000
Configuration: 2
Number of CPUs: 1
LLC sets: 2048
LLC ways: 16
Off-chip DRAM Channels: 1 Width: 64-bit Data Rate: 1600 MT/s

CPU 0 runs /datasets/cs240c-wi22-a00-public/data/Assignment2-gz/perlbench_135B.trace.gz
CPU 0 L1D next line prefetcher
CPU 0 L2C IP-based stride prefetcher
Initialize SRRIP state
Heartbeat CPU 0 instructions: 1000000 cycles: 600033 heartbeat IPC: 1.66657 cumulative IPC: 1.66657 (Simulation time: 0 hr 0 min 49 sec) 
Heartbeat CPU 0 instructions: 2000000 cycles: 1209304 heartbeat IPC: 1.64131 cumulative IPC: 1.65384 (Simulation time: 0 hr 1 min 38 sec) 
Heartbeat CPU 0 instructions: 3000000 cycles: 1832837 heartbeat IPC: 1.60376 cumulative IPC: 1.63681 (Simulation time: 0 hr 2 min 30 sec) 
Heartbeat CPU 0 instructions: 4000000 cycles: 2492645 heartbeat IPC: 1.51559 cumulative IPC: 1.60472 (Simulation time: 0 hr 3 min 27 sec) 
Heartbeat CPU 0 instructions: 5000001 cycles: 3079308 heartbeat IPC: 1.70456 cumulative IPC: 1.62374 (Simulation time: 0 hr 4 min 19 sec) 
Heartbeat CPU 0 instructions: 6000002 cycles: 3681733 heartbeat IPC: 1.65996 cumulative IPC: 1.62967 (Simulation time: 0 hr 5 min 15 sec) 
Heartbeat CPU 0 instructions: 7000001 cycles: 4282494 heartbeat IPC: 1.66455 cumulative IPC: 1.63456 (Simulation time: 0 hr 6 min 11 sec) 
Heartbeat CPU 0 instructions: 8000000 cycles: 4892986 heartbeat IPC: 1.63802 cumulative IPC: 1.63499 (Simulation time: 0 hr 7 min 10 sec) 
