
*** ChampSim Multicore Out-of-Order Simulator ***

Warmup Instructions: 10000000
Simulation Instructions: 100000000
Configuration: 2
Number of CPUs: 1
LLC sets: 2048
LLC ways: 16
Off-chip DRAM Channels: 1 Width: 64-bit Data Rate: 1600 MT/s

CPU 0 runs /datasets/cs240c-wi22-a00-public/data/Assignment2-gz/GemsFDTD_109B.trace.gz
CPU 0 L1D next line prefetcher
CPU 0 L2C IP-based stride prefetcher
Initialize SRRIP state
Heartbeat CPU 0 instructions: 1000002 cycles: 579772 heartbeat IPC: 1.72482 cumulative IPC: 1.72482 (Simulation time: 0 hr 0 min 51 sec) 
Heartbeat CPU 0 instructions: 2000001 cycles: 1159543 heartbeat IPC: 1.72482 cumulative IPC: 1.72482 (Simulation time: 0 hr 1 min 44 sec) 
Heartbeat CPU 0 instructions: 3000000 cycles: 1738740 heartbeat IPC: 1.72653 cumulative IPC: 1.72539 (Simulation time: 0 hr 2 min 34 sec) 
Heartbeat CPU 0 instructions: 4000000 cycles: 2317734 heartbeat IPC: 1.72713 cumulative IPC: 1.72582 (Simulation time: 0 hr 3 min 25 sec) 
Heartbeat CPU 0 instructions: 5000000 cycles: 2897549 heartbeat IPC: 1.72469 cumulative IPC: 1.7256 (Simulation time: 0 hr 4 min 13 sec) 
Heartbeat CPU 0 instructions: 6000002 cycles: 3478272 heartbeat IPC: 1.72199 cumulative IPC: 1.725 (Simulation time: 0 hr 5 min 3 sec) 
Heartbeat CPU 0 instructions: 7000001 cycles: 4058945 heartbeat IPC: 1.72214 cumulative IPC: 1.72459 (Simulation time: 0 hr 5 min 52 sec) 
Heartbeat CPU 0 instructions: 8000000 cycles: 4639134 heartbeat IPC: 1.72357 cumulative IPC: 1.72446 (Simulation time: 0 hr 6 min 40 sec) 
Heartbeat CPU 0 instructions: 9000002 cycles: 5219299 heartbeat IPC: 1.72365 cumulative IPC: 1.72437 (Simulation time: 0 hr 7 min 29 sec) 
