
*** ChampSim Multicore Out-of-Order Simulator ***

Warmup Instructions: 10000000
Simulation Instructions: 100000000
Configuration: 2
Number of CPUs: 1
LLC sets: 2048
LLC ways: 16
Off-chip DRAM Channels: 1 Width: 64-bit Data Rate: 1600 MT/s

CPU 0 runs /datasets/cs240c-wi22-a00-public/data/Assignment2-gz/mcf_158B.trace.gz
CPU 0 L1D next line prefetcher
CPU 0 L2C IP-based stride prefetcher
Initialize SRRIP state
Heartbeat CPU 0 instructions: 1000002 cycles: 512187 heartbeat IPC: 1.95242 cumulative IPC: 1.95242 (Simulation time: 0 hr 0 min 54 sec) 
Heartbeat CPU 0 instructions: 2000002 cycles: 1023110 heartbeat IPC: 1.95724 cumulative IPC: 1.95483 (Simulation time: 0 hr 1 min 45 sec) 
Heartbeat CPU 0 instructions: 3000000 cycles: 1535272 heartbeat IPC: 1.9525 cumulative IPC: 1.95405 (Simulation time: 0 hr 2 min 37 sec) 
Heartbeat CPU 0 instructions: 4000000 cycles: 2046221 heartbeat IPC: 1.95714 cumulative IPC: 1.95482 (Simulation time: 0 hr 3 min 27 sec) 
Heartbeat CPU 0 instructions: 5000002 cycles: 2553802 heartbeat IPC: 1.97013 cumulative IPC: 1.95787 (Simulation time: 0 hr 4 min 17 sec) 
Heartbeat CPU 0 instructions: 6000001 cycles: 3066586 heartbeat IPC: 1.95014 cumulative IPC: 1.95657 (Simulation time: 0 hr 5 min 6 sec) 
Heartbeat CPU 0 instructions: 7000001 cycles: 3575474 heartbeat IPC: 1.96507 cumulative IPC: 1.95778 (Simulation time: 0 hr 5 min 55 sec) 
Heartbeat CPU 0 instructions: 8000000 cycles: 4086253 heartbeat IPC: 1.95779 cumulative IPC: 1.95778 (Simulation time: 0 hr 6 min 46 sec) 
Heartbeat CPU 0 instructions: 9000000 cycles: 4604219 heartbeat IPC: 1.93063 cumulative IPC: 1.95473 (Simulation time: 0 hr 7 min 36 sec) 
