
*** ChampSim Multicore Out-of-Order Simulator ***

Warmup Instructions: 10000000
Simulation Instructions: 100000000
Configuration: 2
Number of CPUs: 1
LLC sets: 2048
LLC ways: 16
Off-chip DRAM Channels: 1 Width: 64-bit Data Rate: 1600 MT/s

CPU 0 runs /datasets/cs240c-wi22-a00-public/data/Assignment2-gz/sphinx3_883B.trace.gz
CPU 0 L1D next line prefetcher
CPU 0 L2C IP-based stride prefetcher
Initialize SRRIP state
Heartbeat CPU 0 instructions: 1000003 cycles: 414388 heartbeat IPC: 2.4132 cumulative IPC: 2.4132 (Simulation time: 0 hr 0 min 39 sec) 
Heartbeat CPU 0 instructions: 2000000 cycles: 823942 heartbeat IPC: 2.44167 cumulative IPC: 2.42736 (Simulation time: 0 hr 1 min 20 sec) 
Heartbeat CPU 0 instructions: 3000003 cycles: 1298782 heartbeat IPC: 2.10598 cumulative IPC: 2.30986 (Simulation time: 0 hr 2 min 4 sec) 
Heartbeat CPU 0 instructions: 4000000 cycles: 1637672 heartbeat IPC: 2.9508 cumulative IPC: 2.44249 (Simulation time: 0 hr 2 min 45 sec) 
Heartbeat CPU 0 instructions: 5000000 cycles: 1992321 heartbeat IPC: 2.81969 cumulative IPC: 2.50964 (Simulation time: 0 hr 3 min 26 sec) 
Heartbeat CPU 0 instructions: 6000003 cycles: 2406755 heartbeat IPC: 2.41294 cumulative IPC: 2.49298 (Simulation time: 0 hr 4 min 9 sec) 
Heartbeat CPU 0 instructions: 7000002 cycles: 2815530 heartbeat IPC: 2.44633 cumulative IPC: 2.48621 (Simulation time: 0 hr 4 min 52 sec) 
Heartbeat CPU 0 instructions: 8000000 cycles: 3291734 heartbeat IPC: 2.09994 cumulative IPC: 2.43033 (Simulation time: 0 hr 5 min 32 sec) 
Heartbeat CPU 0 instructions: 9000001 cycles: 3630735 heartbeat IPC: 2.94985 cumulative IPC: 2.47884 (Simulation time: 0 hr 6 min 13 sec) 
Heartbeat CPU 0 instructions: 10000000 cycles: 3984804 heartbeat IPC: 2.82431 cumulative IPC: 2.50953 (Simulation time: 0 hr 6 min 52 sec) 

Warmup complete CPU 0 instructions: 10000004 cycles: 3984805 (Simulation time: 0 hr 6 min 52 sec) 

Heartbeat CPU 0 instructions: 11000002 cycles: 5683828 heartbeat IPC: 0.588574 cumulative IPC: 0.588572 (Simulation time: 0 hr 7 min 40 sec) 
