
*** ChampSim Multicore Out-of-Order Simulator ***

Warmup Instructions: 10000000
Simulation Instructions: 100000000
Configuration: 2
Number of CPUs: 1
LLC sets: 2048
LLC ways: 16
Off-chip DRAM Channels: 1 Width: 64-bit Data Rate: 1600 MT/s

CPU 0 runs /datasets/cs240c-wi22-a00-public/data/Assignment2-gz/astar_23B.trace.gz
CPU 0 L1D next line prefetcher
CPU 0 L2C IP-based stride prefetcher
Initialize SRRIP state
Heartbeat CPU 0 instructions: 1000000 cycles: 359874 heartbeat IPC: 2.77875 cumulative IPC: 2.77875 (Simulation time: 0 hr 0 min 40 sec) 
Heartbeat CPU 0 instructions: 2000001 cycles: 720506 heartbeat IPC: 2.77291 cumulative IPC: 2.77583 (Simulation time: 0 hr 1 min 18 sec) 
Heartbeat CPU 0 instructions: 3000000 cycles: 1079265 heartbeat IPC: 2.78738 cumulative IPC: 2.77967 (Simulation time: 0 hr 1 min 55 sec) 
Heartbeat CPU 0 instructions: 4000000 cycles: 1440521 heartbeat IPC: 2.76812 cumulative IPC: 2.77677 (Simulation time: 0 hr 2 min 32 sec) 
Heartbeat CPU 0 instructions: 5000000 cycles: 1802458 heartbeat IPC: 2.76291 cumulative IPC: 2.77399 (Simulation time: 0 hr 3 min 9 sec) 
Heartbeat CPU 0 instructions: 6000002 cycles: 2163938 heartbeat IPC: 2.76641 cumulative IPC: 2.77272 (Simulation time: 0 hr 3 min 48 sec) 
Heartbeat CPU 0 instructions: 7000002 cycles: 2525221 heartbeat IPC: 2.76791 cumulative IPC: 2.77204 (Simulation time: 0 hr 4 min 27 sec) 
Heartbeat CPU 0 instructions: 8000000 cycles: 2887917 heartbeat IPC: 2.75712 cumulative IPC: 2.77016 (Simulation time: 0 hr 5 min 6 sec) 
Heartbeat CPU 0 instructions: 9000000 cycles: 3250635 heartbeat IPC: 2.75696 cumulative IPC: 2.76869 (Simulation time: 0 hr 5 min 44 sec) 
Heartbeat CPU 0 instructions: 10000003 cycles: 3615263 heartbeat IPC: 2.74253 cumulative IPC: 2.76605 (Simulation time: 0 hr 6 min 20 sec) 

Warmup complete CPU 0 instructions: 10000003 cycles: 3615263 (Simulation time: 0 hr 6 min 20 sec) 

Heartbeat CPU 0 instructions: 11000000 cycles: 6648338 heartbeat IPC: 0.329697 cumulative IPC: 0.329697 (Simulation time: 0 hr 6 min 57 sec) 
Heartbeat CPU 0 instructions: 12000000 cycles: 9361164 heartbeat IPC: 0.368619 cumulative IPC: 0.348074 (Simulation time: 0 hr 7 min 33 sec) 
