
*** ChampSim Multicore Out-of-Order Simulator ***

Warmup Instructions: 10000000
Simulation Instructions: 100000000
Configuration: 2
Number of CPUs: 1
LLC sets: 2048
LLC ways: 16
Off-chip DRAM Channels: 1 Width: 64-bit Data Rate: 1600 MT/s

CPU 0 runs /datasets/cs240c-wi22-a00-public/data/Assignment2-gz/zeusmp_100B.trace.gz
CPU 0 L1D next line prefetcher
CPU 0 L2C IP-based stride prefetcher
Initialize SRRIP state
Heartbeat CPU 0 instructions: 1000002 cycles: 462677 heartbeat IPC: 2.16134 cumulative IPC: 2.16134 (Simulation time: 0 hr 0 min 38 sec) 
Heartbeat CPU 0 instructions: 2000001 cycles: 925467 heartbeat IPC: 2.16081 cumulative IPC: 2.16107 (Simulation time: 0 hr 1 min 14 sec) 
Heartbeat CPU 0 instructions: 3000003 cycles: 1388524 heartbeat IPC: 2.15957 cumulative IPC: 2.16057 (Simulation time: 0 hr 1 min 51 sec) 
Heartbeat CPU 0 instructions: 4000000 cycles: 1851251 heartbeat IPC: 2.16109 cumulative IPC: 2.1607 (Simulation time: 0 hr 2 min 28 sec) 
Heartbeat CPU 0 instructions: 5000003 cycles: 2314192 heartbeat IPC: 2.16011 cumulative IPC: 2.16058 (Simulation time: 0 hr 3 min 4 sec) 
Heartbeat CPU 0 instructions: 6000001 cycles: 2777070 heartbeat IPC: 2.16039 cumulative IPC: 2.16055 (Simulation time: 0 hr 3 min 41 sec) 
Heartbeat CPU 0 instructions: 7000001 cycles: 3239755 heartbeat IPC: 2.1613 cumulative IPC: 2.16066 (Simulation time: 0 hr 4 min 20 sec) 
Heartbeat CPU 0 instructions: 8000000 cycles: 3702615 heartbeat IPC: 2.16048 cumulative IPC: 2.16064 (Simulation time: 0 hr 4 min 59 sec) 
Heartbeat CPU 0 instructions: 9000003 cycles: 4165376 heartbeat IPC: 2.16095 cumulative IPC: 2.16067 (Simulation time: 0 hr 5 min 36 sec) 
Heartbeat CPU 0 instructions: 10000001 cycles: 4628694 heartbeat IPC: 2.15834 cumulative IPC: 2.16044 (Simulation time: 0 hr 6 min 15 sec) 

Warmup complete CPU 0 instructions: 10000001 cycles: 4628694 (Simulation time: 0 hr 6 min 15 sec) 

Heartbeat CPU 0 instructions: 11000000 cycles: 5311368 heartbeat IPC: 1.46483 cumulative IPC: 1.46483 (Simulation time: 0 hr 6 min 58 sec) 
Heartbeat CPU 0 instructions: 12000000 cycles: 5992841 heartbeat IPC: 1.46741 cumulative IPC: 1.46612 (Simulation time: 0 hr 7 min 41 sec) 
