
*** ChampSim Multicore Out-of-Order Simulator ***

Warmup Instructions: 10000000
Simulation Instructions: 100000000
Configuration: 2
Number of CPUs: 1
LLC sets: 2048
LLC ways: 16
Off-chip DRAM Channels: 1 Width: 64-bit Data Rate: 1600 MT/s

CPU 0 runs /datasets/cs240c-wi22-a00-public/data/Assignment2-gz/mcf_46B.trace.gz
CPU 0 L1D next line prefetcher
CPU 0 L2C IP-based stride prefetcher
Initialize SRRIP state
Heartbeat CPU 0 instructions: 1000002 cycles: 492191 heartbeat IPC: 2.03174 cumulative IPC: 2.03174 (Simulation time: 0 hr 0 min 51 sec) 
Heartbeat CPU 0 instructions: 2000002 cycles: 987200 heartbeat IPC: 2.02017 cumulative IPC: 2.02593 (Simulation time: 0 hr 1 min 40 sec) 
Heartbeat CPU 0 instructions: 3000003 cycles: 1513064 heartbeat IPC: 1.90163 cumulative IPC: 1.98273 (Simulation time: 0 hr 2 min 30 sec) 
Heartbeat CPU 0 instructions: 4000000 cycles: 2030926 heartbeat IPC: 1.93101 cumulative IPC: 1.96954 (Simulation time: 0 hr 3 min 18 sec) 
Heartbeat CPU 0 instructions: 5000000 cycles: 2523891 heartbeat IPC: 2.02854 cumulative IPC: 1.98107 (Simulation time: 0 hr 4 min 7 sec) 
Heartbeat CPU 0 instructions: 6000002 cycles: 3026624 heartbeat IPC: 1.98913 cumulative IPC: 1.98241 (Simulation time: 0 hr 4 min 56 sec) 
Heartbeat CPU 0 instructions: 7000001 cycles: 3575318 heartbeat IPC: 1.82251 cumulative IPC: 1.95787 (Simulation time: 0 hr 5 min 44 sec) 
Heartbeat CPU 0 instructions: 8000000 cycles: 4065411 heartbeat IPC: 2.04043 cumulative IPC: 1.96782 (Simulation time: 0 hr 6 min 31 sec) 
Heartbeat CPU 0 instructions: 9000001 cycles: 4548385 heartbeat IPC: 2.07051 cumulative IPC: 1.97872 (Simulation time: 0 hr 7 min 17 sec) 
