
*** ChampSim Multicore Out-of-Order Simulator ***

Warmup Instructions: 10000000
Simulation Instructions: 100000000
Configuration: 2
Number of CPUs: 1
LLC sets: 2048
LLC ways: 16
Off-chip DRAM Channels: 1 Width: 64-bit Data Rate: 1600 MT/s

CPU 0 runs /datasets/cs240c-wi22-a00-public/data/Assignment2-gz/lbm_94B.trace.gz
CPU 0 L1D next line prefetcher
CPU 0 L2C IP-based stride prefetcher
Initialize SRRIP state
Heartbeat CPU 0 instructions: 1000000 cycles: 422068 heartbeat IPC: 2.36929 cumulative IPC: 2.36929 (Simulation time: 0 hr 0 min 43 sec) 
Heartbeat CPU 0 instructions: 2000000 cycles: 812399 heartbeat IPC: 2.56193 cumulative IPC: 2.46184 (Simulation time: 0 hr 1 min 26 sec) 
Heartbeat CPU 0 instructions: 3000000 cycles: 1211539 heartbeat IPC: 2.50539 cumulative IPC: 2.47619 (Simulation time: 0 hr 2 min 6 sec) 
Heartbeat CPU 0 instructions: 4000000 cycles: 1631523 heartbeat IPC: 2.38104 cumulative IPC: 2.4517 (Simulation time: 0 hr 2 min 49 sec) 
Heartbeat CPU 0 instructions: 5000001 cycles: 2021762 heartbeat IPC: 2.56253 cumulative IPC: 2.47309 (Simulation time: 0 hr 3 min 29 sec) 
Heartbeat CPU 0 instructions: 6000000 cycles: 2422427 heartbeat IPC: 2.49585 cumulative IPC: 2.47685 (Simulation time: 0 hr 4 min 9 sec) 
Heartbeat CPU 0 instructions: 7000001 cycles: 2840569 heartbeat IPC: 2.39153 cumulative IPC: 2.4643 (Simulation time: 0 hr 4 min 50 sec) 
Heartbeat CPU 0 instructions: 8000000 cycles: 3230803 heartbeat IPC: 2.56256 cumulative IPC: 2.47616 (Simulation time: 0 hr 5 min 32 sec) 
Heartbeat CPU 0 instructions: 9000003 cycles: 3631831 heartbeat IPC: 2.4936 cumulative IPC: 2.47809 (Simulation time: 0 hr 6 min 10 sec) 
Heartbeat CPU 0 instructions: 10000000 cycles: 4048401 heartbeat IPC: 2.40055 cumulative IPC: 2.47011 (Simulation time: 0 hr 6 min 56 sec) 

Warmup complete CPU 0 instructions: 10000004 cycles: 4048402 (Simulation time: 0 hr 6 min 56 sec) 

Heartbeat CPU 0 instructions: 11000001 cycles: 5549035 heartbeat IPC: 0.666386 cumulative IPC: 0.666383 (Simulation time: 0 hr 7 min 46 sec) 
