
*** ChampSim Multicore Out-of-Order Simulator ***

Warmup Instructions: 10000000
Simulation Instructions: 100000000
Configuration: 2
Number of CPUs: 1
LLC sets: 2048
LLC ways: 16
Off-chip DRAM Channels: 1 Width: 64-bit Data Rate: 1600 MT/s

CPU 0 runs /datasets/cs240c-wi22-a00-public/data/Assignment2-gz/leslie3d_1186B.trace.gz
CPU 0 L1D next line prefetcher
CPU 0 L2C IP-based stride prefetcher
Initialize SRRIP state
Heartbeat CPU 0 instructions: 1000002 cycles: 564509 heartbeat IPC: 1.77145 cumulative IPC: 1.77145 (Simulation time: 0 hr 0 min 50 sec) 
Heartbeat CPU 0 instructions: 2000000 cycles: 1215802 heartbeat IPC: 1.5354 cumulative IPC: 1.645 (Simulation time: 0 hr 1 min 40 sec) 
Heartbeat CPU 0 instructions: 3000000 cycles: 1867511 heartbeat IPC: 1.53443 cumulative IPC: 1.60642 (Simulation time: 0 hr 2 min 31 sec) 
Heartbeat CPU 0 instructions: 4000000 cycles: 2473031 heartbeat IPC: 1.65147 cumulative IPC: 1.61745 (Simulation time: 0 hr 3 min 21 sec) 
Heartbeat CPU 0 instructions: 5000000 cycles: 3083336 heartbeat IPC: 1.63853 cumulative IPC: 1.62162 (Simulation time: 0 hr 4 min 10 sec) 
Heartbeat CPU 0 instructions: 6000000 cycles: 3735046 heartbeat IPC: 1.53442 cumulative IPC: 1.60641 (Simulation time: 0 hr 5 min 1 sec) 
Heartbeat CPU 0 instructions: 7000001 cycles: 4386263 heartbeat IPC: 1.53559 cumulative IPC: 1.59589 (Simulation time: 0 hr 5 min 49 sec) 
Heartbeat CPU 0 instructions: 8000000 cycles: 4950850 heartbeat IPC: 1.7712 cumulative IPC: 1.61588 (Simulation time: 0 hr 6 min 37 sec) 
Heartbeat CPU 0 instructions: 9000003 cycles: 5602161 heartbeat IPC: 1.53537 cumulative IPC: 1.60652 (Simulation time: 0 hr 7 min 27 sec) 
