
*** ChampSim Multicore Out-of-Order Simulator ***

Warmup Instructions: 10000000
Simulation Instructions: 100000000
Configuration: 2
Number of CPUs: 1
LLC sets: 2048
LLC ways: 16
Off-chip DRAM Channels: 1 Width: 64-bit Data Rate: 1600 MT/s

CPU 0 runs /datasets/cs240c-wi22-a00-public/data/Assignment2-gz/leslie3d_1116B.trace.gz
CPU 0 L1D next line prefetcher
CPU 0 L2C IP-based stride prefetcher
Initialize SRRIP state
Heartbeat CPU 0 instructions: 1000003 cycles: 535311 heartbeat IPC: 1.86808 cumulative IPC: 1.86808 (Simulation time: 0 hr 0 min 47 sec) 
Heartbeat CPU 0 instructions: 2000003 cycles: 1071193 heartbeat IPC: 1.86608 cumulative IPC: 1.86708 (Simulation time: 0 hr 1 min 34 sec) 
Heartbeat CPU 0 instructions: 3000003 cycles: 1607887 heartbeat IPC: 1.86326 cumulative IPC: 1.8658 (Simulation time: 0 hr 2 min 19 sec) 
Heartbeat CPU 0 instructions: 4000000 cycles: 2143305 heartbeat IPC: 1.86769 cumulative IPC: 1.86628 (Simulation time: 0 hr 3 min 6 sec) 
Heartbeat CPU 0 instructions: 5000001 cycles: 2678443 heartbeat IPC: 1.86868 cumulative IPC: 1.86676 (Simulation time: 0 hr 3 min 51 sec) 
Heartbeat CPU 0 instructions: 6000001 cycles: 3213900 heartbeat IPC: 1.86756 cumulative IPC: 1.86689 (Simulation time: 0 hr 4 min 39 sec) 
Heartbeat CPU 0 instructions: 7000001 cycles: 3749866 heartbeat IPC: 1.86579 cumulative IPC: 1.86673 (Simulation time: 0 hr 5 min 22 sec) 
Heartbeat CPU 0 instructions: 8000000 cycles: 4285882 heartbeat IPC: 1.86561 cumulative IPC: 1.86659 (Simulation time: 0 hr 6 min 7 sec) 
Heartbeat CPU 0 instructions: 9000003 cycles: 4821088 heartbeat IPC: 1.86845 cumulative IPC: 1.8668 (Simulation time: 0 hr 6 min 51 sec) 
Heartbeat CPU 0 instructions: 10000002 cycles: 5356251 heartbeat IPC: 1.86859 cumulative IPC: 1.86698 (Simulation time: 0 hr 7 min 37 sec) 

Warmup complete CPU 0 instructions: 10000002 cycles: 5356251 (Simulation time: 0 hr 7 min 37 sec) 

