
*** ChampSim Multicore Out-of-Order Simulator ***

Warmup Instructions: 10000000
Simulation Instructions: 100000000
Configuration: 2
Number of CPUs: 1
LLC sets: 2048
LLC ways: 16
Off-chip DRAM Channels: 1 Width: 64-bit Data Rate: 1600 MT/s

CPU 0 runs /datasets/cs240c-wi22-a00-public/data/Assignment2-gz/calculix_2655B.trace.gz
CPU 0 L1D next line prefetcher
CPU 0 L2C IP-based stride prefetcher
Initialize SRRIP state
Heartbeat CPU 0 instructions: 1000003 cycles: 392383 heartbeat IPC: 2.54854 cumulative IPC: 2.54854 (Simulation time: 0 hr 0 min 26 sec) 
Heartbeat CPU 0 instructions: 2000001 cycles: 785148 heartbeat IPC: 2.54605 cumulative IPC: 2.54729 (Simulation time: 0 hr 0 min 54 sec) 
Heartbeat CPU 0 instructions: 3000002 cycles: 1177684 heartbeat IPC: 2.54754 cumulative IPC: 2.54737 (Simulation time: 0 hr 1 min 19 sec) 
Heartbeat CPU 0 instructions: 4000000 cycles: 1569447 heartbeat IPC: 2.55256 cumulative IPC: 2.54867 (Simulation time: 0 hr 1 min 46 sec) 
Heartbeat CPU 0 instructions: 5000003 cycles: 1961684 heartbeat IPC: 2.54949 cumulative IPC: 2.54883 (Simulation time: 0 hr 2 min 13 sec) 
Heartbeat CPU 0 instructions: 6000003 cycles: 2353797 heartbeat IPC: 2.55029 cumulative IPC: 2.54907 (Simulation time: 0 hr 2 min 37 sec) 
Heartbeat CPU 0 instructions: 7000002 cycles: 2745952 heartbeat IPC: 2.55001 cumulative IPC: 2.54921 (Simulation time: 0 hr 3 min 2 sec) 
Heartbeat CPU 0 instructions: 8000000 cycles: 3137922 heartbeat IPC: 2.55121 cumulative IPC: 2.54946 (Simulation time: 0 hr 3 min 28 sec) 
Heartbeat CPU 0 instructions: 9000001 cycles: 3530092 heartbeat IPC: 2.54992 cumulative IPC: 2.54951 (Simulation time: 0 hr 3 min 52 sec) 
Heartbeat CPU 0 instructions: 10000000 cycles: 3921567 heartbeat IPC: 2.55444 cumulative IPC: 2.55 (Simulation time: 0 hr 4 min 18 sec) 

Warmup complete CPU 0 instructions: 10000004 cycles: 3921568 (Simulation time: 0 hr 4 min 18 sec) 

Heartbeat CPU 0 instructions: 11000001 cycles: 4351488 heartbeat IPC: 2.32601 cumulative IPC: 2.32601 (Simulation time: 0 hr 4 min 48 sec) 
Heartbeat CPU 0 instructions: 12000000 cycles: 4777415 heartbeat IPC: 2.34782 cumulative IPC: 2.33686 (Simulation time: 0 hr 5 min 19 sec) 
Heartbeat CPU 0 instructions: 13000000 cycles: 5204782 heartbeat IPC: 2.33991 cumulative IPC: 2.33788 (Simulation time: 0 hr 5 min 50 sec) 
Heartbeat CPU 0 instructions: 14000002 cycles: 5630616 heartbeat IPC: 2.34834 cumulative IPC: 2.34048 (Simulation time: 0 hr 6 min 21 sec) 
Heartbeat CPU 0 instructions: 15000001 cycles: 6054166 heartbeat IPC: 2.36099 cumulative IPC: 2.34456 (Simulation time: 0 hr 6 min 52 sec) 
Heartbeat CPU 0 instructions: 16000000 cycles: 6639153 heartbeat IPC: 1.70944 cumulative IPC: 2.20784 (Simulation time: 0 hr 7 min 24 sec) 
Heartbeat CPU 0 instructions: 17000000 cycles: 7070845 heartbeat IPC: 2.31647 cumulative IPC: 2.22273 (Simulation time: 0 hr 7 min 58 sec) 
