
*** ChampSim Multicore Out-of-Order Simulator ***

Warmup Instructions: 10000000
Simulation Instructions: 100000000
Configuration: 2
Number of CPUs: 1
LLC sets: 2048
LLC ways: 16
Off-chip DRAM Channels: 1 Width: 64-bit Data Rate: 1600 MT/s

CPU 0 runs /datasets/cs240c-wi22-a00-public/data/Assignment2-gz/perlbench_53B.trace.gz
CPU 0 L1D next line prefetcher
CPU 0 L2C IP-based stride prefetcher
Initialize SRRIP state
Heartbeat CPU 0 instructions: 1000000 cycles: 615802 heartbeat IPC: 1.6239 cumulative IPC: 1.6239 (Simulation time: 0 hr 0 min 50 sec) 
Heartbeat CPU 0 instructions: 2000001 cycles: 1252973 heartbeat IPC: 1.56944 cumulative IPC: 1.5962 (Simulation time: 0 hr 1 min 41 sec) 
Heartbeat CPU 0 instructions: 3000002 cycles: 1908459 heartbeat IPC: 1.52559 cumulative IPC: 1.57195 (Simulation time: 0 hr 2 min 33 sec) 
Heartbeat CPU 0 instructions: 4000000 cycles: 2523972 heartbeat IPC: 1.62466 cumulative IPC: 1.5848 (Simulation time: 0 hr 3 min 17 sec) 
Heartbeat CPU 0 instructions: 5000001 cycles: 3151982 heartbeat IPC: 1.59233 cumulative IPC: 1.5863 (Simulation time: 0 hr 4 min 3 sec) 
Heartbeat CPU 0 instructions: 6000001 cycles: 3767489 heartbeat IPC: 1.62468 cumulative IPC: 1.59257 (Simulation time: 0 hr 4 min 49 sec) 
Heartbeat CPU 0 instructions: 7000002 cycles: 4390289 heartbeat IPC: 1.60565 cumulative IPC: 1.59443 (Simulation time: 0 hr 5 min 37 sec) 
Heartbeat CPU 0 instructions: 8000000 cycles: 5000666 heartbeat IPC: 1.63833 cumulative IPC: 1.59979 (Simulation time: 0 hr 6 min 27 sec) 
Heartbeat CPU 0 instructions: 9000000 cycles: 5652370 heartbeat IPC: 1.53444 cumulative IPC: 1.59225 (Simulation time: 0 hr 7 min 16 sec) 
Heartbeat CPU 0 instructions: 10000001 cycles: 6287602 heartbeat IPC: 1.57423 cumulative IPC: 1.59043 (Simulation time: 0 hr 8 min 1 sec) 

Warmup complete CPU 0 instructions: 10000001 cycles: 6287602 (Simulation time: 0 hr 8 min 1 sec) 

Heartbeat CPU 0 instructions: 11000000 cycles: 9157174 heartbeat IPC: 0.348484 cumulative IPC: 0.348484 (Simulation time: 0 hr 8 min 56 sec) 
Heartbeat CPU 0 instructions: 12000000 cycles: 12019572 heartbeat IPC: 0.349357 cumulative IPC: 0.34892 (Simulation time: 0 hr 9 min 55 sec) 
Heartbeat CPU 0 instructions: 13000000 cycles: 14372710 heartbeat IPC: 0.424964 cumulative IPC: 0.371052 (Simulation time: 0 hr 10 min 49 sec) 
Heartbeat CPU 0 instructions: 14000000 cycles: 16883027 heartbeat IPC: 0.398356 cumulative IPC: 0.377521 (Simulation time: 0 hr 11 min 45 sec) 
Heartbeat CPU 0 instructions: 15000001 cycles: 19636919 heartbeat IPC: 0.363123 cumulative IPC: 0.374551 (Simulation time: 0 hr 12 min 40 sec) 
Heartbeat CPU 0 instructions: 16000000 cycles: 22300999 heartbeat IPC: 0.375364 cumulative IPC: 0.374686 (Simulation time: 0 hr 13 min 34 sec) 
Heartbeat CPU 0 instructions: 17000001 cycles: 24974921 heartbeat IPC: 0.373983 cumulative IPC: 0.374586 (Simulation time: 0 hr 14 min 27 sec) 
Heartbeat CPU 0 instructions: 18000002 cycles: 27829821 heartbeat IPC: 0.350275 cumulative IPC: 0.371364 (Simulation time: 0 hr 15 min 24 sec) 
Heartbeat CPU 0 instructions: 19000000 cycles: 30651904 heartbeat IPC: 0.354347 cumulative IPC: 0.369393 (Simulation time: 0 hr 16 min 17 sec) 
Heartbeat CPU 0 instructions: 20000000 cycles: 33506259 heartbeat IPC: 0.350342 cumulative IPC: 0.367395 (Simulation time: 0 hr 17 min 18 sec) 
Heartbeat CPU 0 instructions: 21000000 cycles: 35864976 heartbeat IPC: 0.423959 cumulative IPC: 0.371906 (Simulation time: 0 hr 18 min 17 sec) 
Heartbeat CPU 0 instructions: 22000000 cycles: 37942280 heartbeat IPC: 0.481393 cumulative IPC: 0.379091 (Simulation time: 0 hr 19 min 12 sec) 
Heartbeat CPU 0 instructions: 23000001 cycles: 39872195 heartbeat IPC: 0.518158 cumulative IPC: 0.387082 (Simulation time: 0 hr 20 min 3 sec) 
Heartbeat CPU 0 instructions: 24000000 cycles: 42270329 heartbeat IPC: 0.41699 cumulative IPC: 0.389076 (Simulation time: 0 hr 21 min 2 sec) 
Heartbeat CPU 0 instructions: 25000000 cycles: 44281743 heartbeat IPC: 0.497163 cumulative IPC: 0.394798 (Simulation time: 0 hr 21 min 49 sec) 
Heartbeat CPU 0 instructions: 26000001 cycles: 46266560 heartbeat IPC: 0.503825 cumulative IPC: 0.400211 (Simulation time: 0 hr 22 min 37 sec) 
Heartbeat CPU 0 instructions: 27000002 cycles: 48560633 heartbeat IPC: 0.435906 cumulative IPC: 0.402148 (Simulation time: 0 hr 23 min 30 sec) 
Heartbeat CPU 0 instructions: 28000000 cycles: 51132168 heartbeat IPC: 0.388872 cumulative IPC: 0.401386 (Simulation time: 0 hr 24 min 25 sec) 
Heartbeat CPU 0 instructions: 29000000 cycles: 53451675 heartbeat IPC: 0.431126 cumulative IPC: 0.402849 (Simulation time: 0 hr 25 min 24 sec) 
Heartbeat CPU 0 instructions: 30000000 cycles: 55494363 heartbeat IPC: 0.489551 cumulative IPC: 0.406448 (Simulation time: 0 hr 26 min 19 sec) 
Heartbeat CPU 0 instructions: 31000001 cycles: 57481417 heartbeat IPC: 0.503258 cumulative IPC: 0.410206 (Simulation time: 0 hr 27 min 4 sec) 
Heartbeat CPU 0 instructions: 32000000 cycles: 59478794 heartbeat IPC: 0.500656 cumulative IPC: 0.413602 (Simulation time: 0 hr 27 min 52 sec) 
Heartbeat CPU 0 instructions: 33000003 cycles: 61935988 heartbeat IPC: 0.406969 cumulative IPC: 0.413309 (Simulation time: 0 hr 28 min 43 sec) 
Heartbeat CPU 0 instructions: 34000000 cycles: 64634819 heartbeat IPC: 0.37053 cumulative IPC: 0.411331 (Simulation time: 0 hr 29 min 34 sec) 
Heartbeat CPU 0 instructions: 35000000 cycles: 67187077 heartbeat IPC: 0.39181 cumulative IPC: 0.410513 (Simulation time: 0 hr 30 min 28 sec) 
Heartbeat CPU 0 instructions: 36000000 cycles: 69977437 heartbeat IPC: 0.358377 cumulative IPC: 0.408228 (Simulation time: 0 hr 31 min 23 sec) 
Heartbeat CPU 0 instructions: 37000002 cycles: 72823693 heartbeat IPC: 0.351339 cumulative IPC: 0.405795 (Simulation time: 0 hr 32 min 20 sec) 
Heartbeat CPU 0 instructions: 38000000 cycles: 75692153 heartbeat IPC: 0.348618 cumulative IPC: 0.403432 (Simulation time: 0 hr 33 min 12 sec) 
Heartbeat CPU 0 instructions: 39000001 cycles: 78362586 heartbeat IPC: 0.374471 cumulative IPC: 0.402359 (Simulation time: 0 hr 34 min 8 sec) 
Heartbeat CPU 0 instructions: 40000000 cycles: 80966352 heartbeat IPC: 0.384059 cumulative IPC: 0.401721 (Simulation time: 0 hr 35 min 6 sec) 
Heartbeat CPU 0 instructions: 41000002 cycles: 83841449 heartbeat IPC: 0.347815 cumulative IPC: 0.399722 (Simulation time: 0 hr 36 min 0 sec) 
Heartbeat CPU 0 instructions: 42000000 cycles: 86444656 heartbeat IPC: 0.384141 cumulative IPC: 0.399216 (Simulation time: 0 hr 36 min 58 sec) 
Heartbeat CPU 0 instructions: 43000002 cycles: 89284996 heartbeat IPC: 0.352071 cumulative IPC: 0.397603 (Simulation time: 0 hr 37 min 52 sec) 
Heartbeat CPU 0 instructions: 44000000 cycles: 91949696 heartbeat IPC: 0.375276 cumulative IPC: 0.396908 (Simulation time: 0 hr 38 min 49 sec) 
Heartbeat CPU 0 instructions: 45000001 cycles: 93411031 heartbeat IPC: 0.684307 cumulative IPC: 0.401729 (Simulation time: 0 hr 39 min 31 sec) 
Heartbeat CPU 0 instructions: 46000000 cycles: 95436092 heartbeat IPC: 0.493812 cumulative IPC: 0.403821 (Simulation time: 0 hr 40 min 19 sec) 
Heartbeat CPU 0 instructions: 47000002 cycles: 97351495 heartbeat IPC: 0.522084 cumulative IPC: 0.406308 (Simulation time: 0 hr 41 min 6 sec) 
Heartbeat CPU 0 instructions: 48000000 cycles: 99271710 heartbeat IPC: 0.520774 cumulative IPC: 0.408672 (Simulation time: 0 hr 41 min 49 sec) 
Heartbeat CPU 0 instructions: 49000000 cycles: 101622063 heartbeat IPC: 0.425468 cumulative IPC: 0.409086 (Simulation time: 0 hr 42 min 43 sec) 
Heartbeat CPU 0 instructions: 50000002 cycles: 103486165 heartbeat IPC: 0.536452 cumulative IPC: 0.411529 (Simulation time: 0 hr 43 min 33 sec) 
Heartbeat CPU 0 instructions: 51000000 cycles: 105416892 heartbeat IPC: 0.517939 cumulative IPC: 0.413601 (Simulation time: 0 hr 44 min 22 sec) 
Heartbeat CPU 0 instructions: 52000000 cycles: 107331897 heartbeat IPC: 0.522192 cumulative IPC: 0.415659 (Simulation time: 0 hr 45 min 10 sec) 
Heartbeat CPU 0 instructions: 53000002 cycles: 109282699 heartbeat IPC: 0.512611 cumulative IPC: 0.417496 (Simulation time: 0 hr 45 min 56 sec) 
Heartbeat CPU 0 instructions: 54000000 cycles: 112173042 heartbeat IPC: 0.345979 cumulative IPC: 0.415543 (Simulation time: 0 hr 46 min 51 sec) 
Heartbeat CPU 0 instructions: 55000000 cycles: 114661237 heartbeat IPC: 0.401898 cumulative IPC: 0.41523 (Simulation time: 0 hr 47 min 42 sec) 
Heartbeat CPU 0 instructions: 56000000 cycles: 117462571 heartbeat IPC: 0.356973 cumulative IPC: 0.413762 (Simulation time: 0 hr 48 min 37 sec) 
Heartbeat CPU 0 instructions: 57000001 cycles: 120455501 heartbeat IPC: 0.334121 cumulative IPC: 0.411674 (Simulation time: 0 hr 49 min 33 sec) 
Heartbeat CPU 0 instructions: 58000003 cycles: 123424363 heartbeat IPC: 0.33683 cumulative IPC: 0.409777 (Simulation time: 0 hr 50 min 44 sec) 
Heartbeat CPU 0 instructions: 59000002 cycles: 126239916 heartbeat IPC: 0.35517 cumulative IPC: 0.408496 (Simulation time: 0 hr 51 min 39 sec) 
Heartbeat CPU 0 instructions: 60000000 cycles: 129003232 heartbeat IPC: 0.361883 cumulative IPC: 0.407446 (Simulation time: 0 hr 52 min 32 sec) 
Heartbeat CPU 0 instructions: 61000002 cycles: 131636001 heartbeat IPC: 0.379829 cumulative IPC: 0.406866 (Simulation time: 0 hr 53 min 26 sec) 
Heartbeat CPU 0 instructions: 62000002 cycles: 134320737 heartbeat IPC: 0.372476 cumulative IPC: 0.406145 (Simulation time: 0 hr 54 min 20 sec) 
Heartbeat CPU 0 instructions: 63000001 cycles: 136990790 heartbeat IPC: 0.374524 cumulative IPC: 0.405499 (Simulation time: 0 hr 55 min 14 sec) 
Heartbeat CPU 0 instructions: 64000000 cycles: 139649156 heartbeat IPC: 0.376171 cumulative IPC: 0.404914 (Simulation time: 0 hr 56 min 9 sec) 
Heartbeat CPU 0 instructions: 65000003 cycles: 142287460 heartbeat IPC: 0.379033 cumulative IPC: 0.404412 (Simulation time: 0 hr 57 min 5 sec) 
Heartbeat CPU 0 instructions: 66000001 cycles: 144916327 heartbeat IPC: 0.380391 cumulative IPC: 0.403957 (Simulation time: 0 hr 58 min 2 sec) 
Heartbeat CPU 0 instructions: 67000001 cycles: 147529747 heartbeat IPC: 0.38264 cumulative IPC: 0.403562 (Simulation time: 0 hr 58 min 57 sec) 
Heartbeat CPU 0 instructions: 68000000 cycles: 150199181 heartbeat IPC: 0.374611 cumulative IPC: 0.403025 (Simulation time: 0 hr 59 min 51 sec) 
Heartbeat CPU 0 instructions: 69000001 cycles: 152838931 heartbeat IPC: 0.378824 cumulative IPC: 0.402589 (Simulation time: 1 hr 0 min 50 sec) 
Heartbeat CPU 0 instructions: 70000001 cycles: 155450935 heartbeat IPC: 0.382848 cumulative IPC: 0.402244 (Simulation time: 1 hr 1 min 55 sec) 
Heartbeat CPU 0 instructions: 71000001 cycles: 158169124 heartbeat IPC: 0.367892 cumulative IPC: 0.401629 (Simulation time: 1 hr 3 min 6 sec) 
Heartbeat CPU 0 instructions: 72000000 cycles: 160774809 heartbeat IPC: 0.383776 cumulative IPC: 0.401328 (Simulation time: 1 hr 4 min 13 sec) 
Heartbeat CPU 0 instructions: 73000002 cycles: 163430554 heartbeat IPC: 0.376543 cumulative IPC: 0.400909 (Simulation time: 1 hr 5 min 20 sec) 
Heartbeat CPU 0 instructions: 74000001 cycles: 166111267 heartbeat IPC: 0.373035 cumulative IPC: 0.400441 (Simulation time: 1 hr 6 min 21 sec) 
Heartbeat CPU 0 instructions: 75000001 cycles: 168771959 heartbeat IPC: 0.375842 cumulative IPC: 0.400039 (Simulation time: 1 hr 7 min 21 sec) 
Heartbeat CPU 0 instructions: 76000000 cycles: 171413990 heartbeat IPC: 0.378496 cumulative IPC: 0.399694 (Simulation time: 1 hr 8 min 21 sec) 
Heartbeat CPU 0 instructions: 77000002 cycles: 174086981 heartbeat IPC: 0.374114 cumulative IPC: 0.399286 (Simulation time: 1 hr 9 min 20 sec) 
Heartbeat CPU 0 instructions: 78000000 cycles: 176740639 heartbeat IPC: 0.376838 cumulative IPC: 0.398937 (Simulation time: 1 hr 10 min 8 sec) 
Heartbeat CPU 0 instructions: 79000002 cycles: 179401749 heartbeat IPC: 0.375784 cumulative IPC: 0.398581 (Simulation time: 1 hr 10 min 56 sec) 
Heartbeat CPU 0 instructions: 80000000 cycles: 182036609 heartbeat IPC: 0.379526 cumulative IPC: 0.398295 (Simulation time: 1 hr 11 min 41 sec) 
Heartbeat CPU 0 instructions: 81000000 cycles: 184651065 heartbeat IPC: 0.382489 cumulative IPC: 0.398064 (Simulation time: 1 hr 12 min 26 sec) 
Heartbeat CPU 0 instructions: 82000002 cycles: 187328007 heartbeat IPC: 0.373561 cumulative IPC: 0.397701 (Simulation time: 1 hr 13 min 7 sec) 
Heartbeat CPU 0 instructions: 83000000 cycles: 189974213 heartbeat IPC: 0.377899 cumulative IPC: 0.397416 (Simulation time: 1 hr 13 min 46 sec) 
Heartbeat CPU 0 instructions: 84000000 cycles: 192630163 heartbeat IPC: 0.376513 cumulative IPC: 0.397118 (Simulation time: 1 hr 14 min 25 sec) 
Heartbeat CPU 0 instructions: 85000001 cycles: 195307319 heartbeat IPC: 0.373531 cumulative IPC: 0.396784 (Simulation time: 1 hr 15 min 6 sec) 
Heartbeat CPU 0 instructions: 86000000 cycles: 197803371 heartbeat IPC: 0.400632 cumulative IPC: 0.396834 (Simulation time: 1 hr 15 min 47 sec) 
Heartbeat CPU 0 instructions: 87000000 cycles: 199934593 heartbeat IPC: 0.469214 cumulative IPC: 0.397631 (Simulation time: 1 hr 16 min 20 sec) 
Heartbeat CPU 0 instructions: 88000000 cycles: 201931774 heartbeat IPC: 0.500706 cumulative IPC: 0.398683 (Simulation time: 1 hr 16 min 48 sec) 
Heartbeat CPU 0 instructions: 89000001 cycles: 204006907 heartbeat IPC: 0.481897 cumulative IPC: 0.399556 (Simulation time: 1 hr 17 min 17 sec) 
Heartbeat CPU 0 instructions: 90000000 cycles: 206672496 heartbeat IPC: 0.375151 cumulative IPC: 0.399232 (Simulation time: 1 hr 17 min 53 sec) 
Heartbeat CPU 0 instructions: 91000001 cycles: 209438978 heartbeat IPC: 0.36147 cumulative IPC: 0.398717 (Simulation time: 1 hr 18 min 28 sec) 
Heartbeat CPU 0 instructions: 92000000 cycles: 212122248 heartbeat IPC: 0.372679 cumulative IPC: 0.398378 (Simulation time: 1 hr 18 min 57 sec) 
Heartbeat CPU 0 instructions: 93000000 cycles: 214775298 heartbeat IPC: 0.376925 cumulative IPC: 0.398105 (Simulation time: 1 hr 19 min 27 sec) 
Heartbeat CPU 0 instructions: 94000002 cycles: 217423678 heartbeat IPC: 0.37759 cumulative IPC: 0.397848 (Simulation time: 1 hr 19 min 59 sec) 
Heartbeat CPU 0 instructions: 95000000 cycles: 220043094 heartbeat IPC: 0.381764 cumulative IPC: 0.397651 (Simulation time: 1 hr 20 min 27 sec) 
Heartbeat CPU 0 instructions: 96000000 cycles: 222707654 heartbeat IPC: 0.375296 cumulative IPC: 0.397375 (Simulation time: 1 hr 20 min 56 sec) 
Heartbeat CPU 0 instructions: 97000000 cycles: 225348263 heartbeat IPC: 0.378701 cumulative IPC: 0.39715 (Simulation time: 1 hr 21 min 22 sec) 
Heartbeat CPU 0 instructions: 98000000 cycles: 227970569 heartbeat IPC: 0.381344 cumulative IPC: 0.396963 (Simulation time: 1 hr 21 min 48 sec) 
Heartbeat CPU 0 instructions: 99000002 cycles: 230579892 heartbeat IPC: 0.383242 cumulative IPC: 0.396804 (Simulation time: 1 hr 22 min 11 sec) 
Heartbeat CPU 0 instructions: 100000000 cycles: 233206352 heartbeat IPC: 0.38074 cumulative IPC: 0.396618 (Simulation time: 1 hr 22 min 34 sec) 
Heartbeat CPU 0 instructions: 101000002 cycles: 235861440 heartbeat IPC: 0.376636 cumulative IPC: 0.396387 (Simulation time: 1 hr 22 min 55 sec) 
Heartbeat CPU 0 instructions: 102000000 cycles: 238492063 heartbeat IPC: 0.380137 cumulative IPC: 0.396203 (Simulation time: 1 hr 23 min 14 sec) 
Heartbeat CPU 0 instructions: 103000000 cycles: 241118162 heartbeat IPC: 0.380793 cumulative IPC: 0.39603 (Simulation time: 1 hr 23 min 32 sec) 
Heartbeat CPU 0 instructions: 104000000 cycles: 243780557 heartbeat IPC: 0.375602 cumulative IPC: 0.395801 (Simulation time: 1 hr 23 min 53 sec) 
Heartbeat CPU 0 instructions: 105000003 cycles: 245960381 heartbeat IPC: 0.458754 cumulative IPC: 0.396374 (Simulation time: 1 hr 24 min 8 sec) 
Heartbeat CPU 0 instructions: 106000000 cycles: 247937892 heartbeat IPC: 0.505685 cumulative IPC: 0.397268 (Simulation time: 1 hr 24 min 23 sec) 
Heartbeat CPU 0 instructions: 107000003 cycles: 249912967 heartbeat IPC: 0.506311 cumulative IPC: 0.398152 (Simulation time: 1 hr 24 min 36 sec) 
Heartbeat CPU 0 instructions: 108000000 cycles: 252664244 heartbeat IPC: 0.363467 cumulative IPC: 0.397765 (Simulation time: 1 hr 24 min 48 sec) 
Heartbeat CPU 0 instructions: 109000001 cycles: 255364133 heartbeat IPC: 0.370386 cumulative IPC: 0.397468 (Simulation time: 1 hr 25 min 0 sec) 
Heartbeat CPU 0 instructions: 110000000 cycles: 257881735 heartbeat IPC: 0.397203 cumulative IPC: 0.397466 (Simulation time: 1 hr 25 min 10 sec) 
Finished CPU 0 instructions: 100000000 cycles: 251594134 cummulative IPC: 0.397466 (Simulation time: 1 hr 25 min 10 sec) 

ChampSim completed all CPUs

Region of Interest Statistics

CPU 0 cummulative IPC: 0.397466 instructions: 100000000 cycles: 251594134
LLC TOTAL     ACCESS:     656691  HIT:     613672  MISS:      43019
LLC LOAD      ACCESS:     310896  HIT:     302610  MISS:       8286
LLC RFO       ACCESS:      30806  HIT:      26557  MISS:       4249
LLC PREFETCH  ACCESS:     212709  HIT:     182857  MISS:      29852
LLC WRITEBACK ACCESS:     102280  HIT:     101648  MISS:        632
Insertion Distribution: 
	LOAD 4732 0 16965 165 
	RFO 1381 0 4535 140 
	PREF 0 997 27882 13347 
	WRITEBACK 0 0 0 898 
Total Prefetch Downgrades: 3449
