
*** ChampSim Multicore Out-of-Order Simulator ***

Warmup Instructions: 10000000
Simulation Instructions: 100000000
Configuration: 2
Number of CPUs: 1
LLC sets: 2048
LLC ways: 16
Off-chip DRAM Channels: 1 Width: 64-bit Data Rate: 1600 MT/s

CPU 0 runs /datasets/cs240c-wi22-a00-public/data/Assignment2-gz/mcf_158B.trace.gz
CPU 0 L1D next line prefetcher
CPU 0 L2C IP-based stride prefetcher
Initialize SRRIP state
Heartbeat CPU 0 instructions: 1000002 cycles: 512127 heartbeat IPC: 1.95264 cumulative IPC: 1.95264 (Simulation time: 0 hr 0 min 57 sec) 
Heartbeat CPU 0 instructions: 2000002 cycles: 1023017 heartbeat IPC: 1.95737 cumulative IPC: 1.955 (Simulation time: 0 hr 1 min 51 sec) 
Heartbeat CPU 0 instructions: 3000000 cycles: 1535229 heartbeat IPC: 1.95231 cumulative IPC: 1.95411 (Simulation time: 0 hr 2 min 44 sec) 
Heartbeat CPU 0 instructions: 4000000 cycles: 2046367 heartbeat IPC: 1.95642 cumulative IPC: 1.95468 (Simulation time: 0 hr 3 min 36 sec) 
Heartbeat CPU 0 instructions: 5000002 cycles: 2553838 heartbeat IPC: 1.97056 cumulative IPC: 1.95784 (Simulation time: 0 hr 4 min 30 sec) 
Heartbeat CPU 0 instructions: 6000001 cycles: 3066459 heartbeat IPC: 1.95076 cumulative IPC: 1.95665 (Simulation time: 0 hr 5 min 25 sec) 
Heartbeat CPU 0 instructions: 7000001 cycles: 3575126 heartbeat IPC: 1.96592 cumulative IPC: 1.95797 (Simulation time: 0 hr 6 min 18 sec) 
Heartbeat CPU 0 instructions: 8000000 cycles: 4086007 heartbeat IPC: 1.9574 cumulative IPC: 1.9579 (Simulation time: 0 hr 7 min 16 sec) 
Heartbeat CPU 0 instructions: 9000000 cycles: 4604716 heartbeat IPC: 1.92786 cumulative IPC: 1.95452 (Simulation time: 0 hr 8 min 19 sec) 
Heartbeat CPU 0 instructions: 10000001 cycles: 5138660 heartbeat IPC: 1.87286 cumulative IPC: 1.94603 (Simulation time: 0 hr 9 min 19 sec) 

Warmup complete CPU 0 instructions: 10000001 cycles: 5138660 (Simulation time: 0 hr 9 min 19 sec) 

Heartbeat CPU 0 instructions: 11000001 cycles: 13723720 heartbeat IPC: 0.116481 cumulative IPC: 0.116481 (Simulation time: 0 hr 10 min 44 sec) 
Heartbeat CPU 0 instructions: 12000000 cycles: 21503448 heartbeat IPC: 0.128539 cumulative IPC: 0.122214 (Simulation time: 0 hr 12 min 6 sec) 
Heartbeat CPU 0 instructions: 13000001 cycles: 29519653 heartbeat IPC: 0.124747 cumulative IPC: 0.123047 (Simulation time: 0 hr 13 min 26 sec) 
Heartbeat CPU 0 instructions: 14000001 cycles: 36733817 heartbeat IPC: 0.138616 cumulative IPC: 0.126602 (Simulation time: 0 hr 14 min 50 sec) 
Heartbeat CPU 0 instructions: 15000000 cycles: 44788694 heartbeat IPC: 0.124148 cumulative IPC: 0.126103 (Simulation time: 0 hr 16 min 11 sec) 
Heartbeat CPU 0 instructions: 16000000 cycles: 60025444 heartbeat IPC: 0.0656308 cumulative IPC: 0.109316 (Simulation time: 0 hr 18 min 13 sec) 
Heartbeat CPU 0 instructions: 17000001 cycles: 70099708 heartbeat IPC: 0.0992629 cumulative IPC: 0.107757 (Simulation time: 0 hr 19 min 46 sec) 
Heartbeat CPU 0 instructions: 18000000 cycles: 78031043 heartbeat IPC: 0.126082 cumulative IPC: 0.109751 (Simulation time: 0 hr 21 min 0 sec) 
Heartbeat CPU 0 instructions: 19000001 cycles: 86527212 heartbeat IPC: 0.1177 cumulative IPC: 0.110581 (Simulation time: 0 hr 22 min 17 sec) 
Heartbeat CPU 0 instructions: 20000000 cycles: 94881862 heartbeat IPC: 0.119694 cumulative IPC: 0.111429 (Simulation time: 0 hr 23 min 39 sec) 
Heartbeat CPU 0 instructions: 21000000 cycles: 102764769 heartbeat IPC: 0.126857 cumulative IPC: 0.112675 (Simulation time: 0 hr 24 min 56 sec) 
Heartbeat CPU 0 instructions: 22000002 cycles: 111044135 heartbeat IPC: 0.120782 cumulative IPC: 0.113309 (Simulation time: 0 hr 26 min 16 sec) 
Heartbeat CPU 0 instructions: 23000002 cycles: 120961031 heartbeat IPC: 0.100838 cumulative IPC: 0.112241 (Simulation time: 0 hr 27 min 43 sec) 
Heartbeat CPU 0 instructions: 24000000 cycles: 136009937 heartbeat IPC: 0.0664499 cumulative IPC: 0.106975 (Simulation time: 0 hr 29 min 31 sec) 
Heartbeat CPU 0 instructions: 25000000 cycles: 143905861 heartbeat IPC: 0.126648 cumulative IPC: 0.108095 (Simulation time: 0 hr 30 min 54 sec) 
Heartbeat CPU 0 instructions: 26000000 cycles: 150492930 heartbeat IPC: 0.151813 cumulative IPC: 0.110076 (Simulation time: 0 hr 32 min 9 sec) 
Heartbeat CPU 0 instructions: 27000002 cycles: 157139877 heartbeat IPC: 0.150445 cumulative IPC: 0.111841 (Simulation time: 0 hr 33 min 24 sec) 
Heartbeat CPU 0 instructions: 28000000 cycles: 172028626 heartbeat IPC: 0.0671647 cumulative IPC: 0.107855 (Simulation time: 0 hr 35 min 5 sec) 
Heartbeat CPU 0 instructions: 29000003 cycles: 180608985 heartbeat IPC: 0.116546 cumulative IPC: 0.10828 (Simulation time: 0 hr 36 min 21 sec) 
Heartbeat CPU 0 instructions: 30000003 cycles: 186713029 heartbeat IPC: 0.163826 cumulative IPC: 0.110148 (Simulation time: 0 hr 37 min 24 sec) 
Heartbeat CPU 0 instructions: 31000003 cycles: 194324404 heartbeat IPC: 0.131382 cumulative IPC: 0.111002 (Simulation time: 0 hr 38 min 37 sec) 
Heartbeat CPU 0 instructions: 32000000 cycles: 209306002 heartbeat IPC: 0.0667484 cumulative IPC: 0.107755 (Simulation time: 0 hr 40 min 16 sec) 
Heartbeat CPU 0 instructions: 33000000 cycles: 216168096 heartbeat IPC: 0.145728 cumulative IPC: 0.10899 (Simulation time: 0 hr 41 min 23 sec) 
Heartbeat CPU 0 instructions: 34000000 cycles: 223296170 heartbeat IPC: 0.14029 cumulative IPC: 0.110012 (Simulation time: 0 hr 42 min 31 sec) 
Heartbeat CPU 0 instructions: 35000001 cycles: 230958898 heartbeat IPC: 0.130502 cumulative IPC: 0.110708 (Simulation time: 0 hr 43 min 40 sec) 
Heartbeat CPU 0 instructions: 36000000 cycles: 246881506 heartbeat IPC: 0.0628037 cumulative IPC: 0.107552 (Simulation time: 0 hr 45 min 20 sec) 
Heartbeat CPU 0 instructions: 37000001 cycles: 254653445 heartbeat IPC: 0.128668 cumulative IPC: 0.10821 (Simulation time: 0 hr 46 min 32 sec) 
Heartbeat CPU 0 instructions: 38000000 cycles: 261864775 heartbeat IPC: 0.138671 cumulative IPC: 0.109066 (Simulation time: 0 hr 47 min 40 sec) 
Heartbeat CPU 0 instructions: 39000000 cycles: 268124423 heartbeat IPC: 0.159753 cumulative IPC: 0.110272 (Simulation time: 0 hr 48 min 46 sec) 
Heartbeat CPU 0 instructions: 40000000 cycles: 282470421 heartbeat IPC: 0.0697059 cumulative IPC: 0.108174 (Simulation time: 0 hr 50 min 25 sec) 
Heartbeat CPU 0 instructions: 41000003 cycles: 291050558 heartbeat IPC: 0.116549 cumulative IPC: 0.108425 (Simulation time: 0 hr 51 min 40 sec) 
Heartbeat CPU 0 instructions: 42000000 cycles: 297356314 heartbeat IPC: 0.158585 cumulative IPC: 0.109507 (Simulation time: 0 hr 52 min 47 sec) 
Heartbeat CPU 0 instructions: 43000001 cycles: 307681436 heartbeat IPC: 0.0968513 cumulative IPC: 0.109075 (Simulation time: 0 hr 54 min 11 sec) 
Heartbeat CPU 0 instructions: 44000000 cycles: 319822524 heartbeat IPC: 0.0823649 cumulative IPC: 0.108045 (Simulation time: 0 hr 55 min 44 sec) 
Heartbeat CPU 0 instructions: 45000000 cycles: 325374837 heartbeat IPC: 0.180105 cumulative IPC: 0.109294 (Simulation time: 0 hr 56 min 50 sec) 
Heartbeat CPU 0 instructions: 46000002 cycles: 335220885 heartbeat IPC: 0.101564 cumulative IPC: 0.109064 (Simulation time: 0 hr 58 min 13 sec) 
Heartbeat CPU 0 instructions: 47000002 cycles: 347828992 heartbeat IPC: 0.079314 cumulative IPC: 0.107969 (Simulation time: 0 hr 59 min 54 sec) 
Heartbeat CPU 0 instructions: 48000000 cycles: 353624085 heartbeat IPC: 0.172559 cumulative IPC: 0.109043 (Simulation time: 1 hr 1 min 0 sec) 
Heartbeat CPU 0 instructions: 49000003 cycles: 363330868 heartbeat IPC: 0.103021 cumulative IPC: 0.10888 (Simulation time: 1 hr 2 min 23 sec) 
Heartbeat CPU 0 instructions: 50000000 cycles: 375945078 heartbeat IPC: 0.0792754 cumulative IPC: 0.107873 (Simulation time: 1 hr 4 min 2 sec) 
Heartbeat CPU 0 instructions: 51000000 cycles: 381533002 heartbeat IPC: 0.178957 cumulative IPC: 0.108928 (Simulation time: 1 hr 5 min 5 sec) 
Heartbeat CPU 0 instructions: 52000000 cycles: 390330660 heartbeat IPC: 0.113667 cumulative IPC: 0.109037 (Simulation time: 1 hr 6 min 20 sec) 
Heartbeat CPU 0 instructions: 53000000 cycles: 404011712 heartbeat IPC: 0.0730938 cumulative IPC: 0.107804 (Simulation time: 1 hr 7 min 56 sec) 
Heartbeat CPU 0 instructions: 54000000 cycles: 409814112 heartbeat IPC: 0.172342 cumulative IPC: 0.108729 (Simulation time: 1 hr 8 min 58 sec) 
Heartbeat CPU 0 instructions: 55000000 cycles: 417107527 heartbeat IPC: 0.13711 cumulative IPC: 0.109232 (Simulation time: 1 hr 10 min 5 sec) 
Heartbeat CPU 0 instructions: 56000000 cycles: 432002508 heartbeat IPC: 0.0671367 cumulative IPC: 0.107763 (Simulation time: 1 hr 11 min 36 sec) 
Heartbeat CPU 0 instructions: 57000001 cycles: 437776591 heartbeat IPC: 0.173188 cumulative IPC: 0.108636 (Simulation time: 1 hr 12 min 33 sec) 
Heartbeat CPU 0 instructions: 58000001 cycles: 443311802 heartbeat IPC: 0.180662 cumulative IPC: 0.109546 (Simulation time: 1 hr 13 min 25 sec) 
Heartbeat CPU 0 instructions: 59000000 cycles: 459216353 heartbeat IPC: 0.062875 cumulative IPC: 0.107911 (Simulation time: 1 hr 14 min 50 sec) 
Heartbeat CPU 0 instructions: 60000000 cycles: 465632125 heartbeat IPC: 0.155866 cumulative IPC: 0.108579 (Simulation time: 1 hr 15 min 42 sec) 
Heartbeat CPU 0 instructions: 61000000 cycles: 471894572 heartbeat IPC: 0.159682 cumulative IPC: 0.109265 (Simulation time: 1 hr 16 min 32 sec) 
Heartbeat CPU 0 instructions: 62000001 cycles: 484178293 heartbeat IPC: 0.0814086 cumulative IPC: 0.108551 (Simulation time: 1 hr 17 min 36 sec) 
Heartbeat CPU 0 instructions: 63000001 cycles: 494238455 heartbeat IPC: 0.099402 cumulative IPC: 0.108362 (Simulation time: 1 hr 18 min 32 sec) 
Heartbeat CPU 0 instructions: 64000000 cycles: 499803946 heartbeat IPC: 0.179678 cumulative IPC: 0.109165 (Simulation time: 1 hr 19 min 13 sec) 
Heartbeat CPU 0 instructions: 65000000 cycles: 506556963 heartbeat IPC: 0.148082 cumulative IPC: 0.109689 (Simulation time: 1 hr 19 min 57 sec) 
Heartbeat CPU 0 instructions: 66000000 cycles: 521605092 heartbeat IPC: 0.0664534 cumulative IPC: 0.108429 (Simulation time: 1 hr 20 min 59 sec) 
Heartbeat CPU 0 instructions: 67000002 cycles: 527307319 heartbeat IPC: 0.17537 cumulative IPC: 0.10916 (Simulation time: 1 hr 21 min 33 sec) 
Heartbeat CPU 0 instructions: 68000000 cycles: 532657396 heartbeat IPC: 0.186913 cumulative IPC: 0.109949 (Simulation time: 1 hr 22 min 6 sec) 
Heartbeat CPU 0 instructions: 69000000 cycles: 545934100 heartbeat IPC: 0.0753199 cumulative IPC: 0.109099 (Simulation time: 1 hr 22 min 49 sec) 
Heartbeat CPU 0 instructions: 70000000 cycles: 554972003 heartbeat IPC: 0.110645 cumulative IPC: 0.109124 (Simulation time: 1 hr 23 min 20 sec) 
Heartbeat CPU 0 instructions: 71000002 cycles: 560387904 heartbeat IPC: 0.184642 cumulative IPC: 0.109861 (Simulation time: 1 hr 23 min 43 sec) 
Heartbeat CPU 0 instructions: 72000000 cycles: 567748668 heartbeat IPC: 0.135855 cumulative IPC: 0.110201 (Simulation time: 1 hr 24 min 7 sec) 
Heartbeat CPU 0 instructions: 73000000 cycles: 582376151 heartbeat IPC: 0.0683645 cumulative IPC: 0.109141 (Simulation time: 1 hr 24 min 39 sec) 
Heartbeat CPU 0 instructions: 74000000 cycles: 588202646 heartbeat IPC: 0.17163 cumulative IPC: 0.109765 (Simulation time: 1 hr 24 min 56 sec) 
Heartbeat CPU 0 instructions: 75000002 cycles: 593916687 heartbeat IPC: 0.175008 cumulative IPC: 0.110398 (Simulation time: 1 hr 25 min 11 sec) 
Heartbeat CPU 0 instructions: 76000000 cycles: 605940910 heartbeat IPC: 0.0831653 cumulative IPC: 0.109853 (Simulation time: 1 hr 25 min 26 sec) 
Heartbeat CPU 0 instructions: 77000000 cycles: 616512827 heartbeat IPC: 0.0945902 cumulative IPC: 0.109589 (Simulation time: 1 hr 25 min 39 sec) 
Heartbeat CPU 0 instructions: 78000000 cycles: 622761945 heartbeat IPC: 0.160023 cumulative IPC: 0.110099 (Simulation time: 1 hr 25 min 48 sec) 
Heartbeat CPU 0 instructions: 79000001 cycles: 629470521 heartbeat IPC: 0.149063 cumulative IPC: 0.110518 (Simulation time: 1 hr 25 min 58 sec) 
Heartbeat CPU 0 instructions: 80000000 cycles: 645405353 heartbeat IPC: 0.0627555 cumulative IPC: 0.109329 (Simulation time: 1 hr 26 min 11 sec) 
Heartbeat CPU 0 instructions: 81000001 cycles: 652181230 heartbeat IPC: 0.147583 cumulative IPC: 0.10973 (Simulation time: 1 hr 26 min 19 sec) 
Heartbeat CPU 0 instructions: 82000001 cycles: 658380895 heartbeat IPC: 0.161299 cumulative IPC: 0.110219 (Simulation time: 1 hr 26 min 26 sec) 
Heartbeat CPU 0 instructions: 83000001 cycles: 670792276 heartbeat IPC: 0.0805712 cumulative IPC: 0.109667 (Simulation time: 1 hr 26 min 37 sec) 
Heartbeat CPU 0 instructions: 84000000 cycles: 681644555 heartbeat IPC: 0.0921464 cumulative IPC: 0.109386 (Simulation time: 1 hr 26 min 46 sec) 
Heartbeat CPU 0 instructions: 85000000 cycles: 687410620 heartbeat IPC: 0.173429 cumulative IPC: 0.109927 (Simulation time: 1 hr 26 min 54 sec) 
Heartbeat CPU 0 instructions: 86000002 cycles: 694604098 heartbeat IPC: 0.139015 cumulative IPC: 0.11023 (Simulation time: 1 hr 27 min 2 sec) 
Heartbeat CPU 0 instructions: 87000000 cycles: 709702454 heartbeat IPC: 0.0662322 cumulative IPC: 0.109287 (Simulation time: 1 hr 27 min 13 sec) 
Heartbeat CPU 0 instructions: 88000000 cycles: 716055139 heartbeat IPC: 0.157414 cumulative IPC: 0.109718 (Simulation time: 1 hr 27 min 21 sec) 
Heartbeat CPU 0 instructions: 89000000 cycles: 722603061 heartbeat IPC: 0.15272 cumulative IPC: 0.11011 (Simulation time: 1 hr 27 min 28 sec) 
Heartbeat CPU 0 instructions: 90000002 cycles: 736363964 heartbeat IPC: 0.0726698 cumulative IPC: 0.109405 (Simulation time: 1 hr 27 min 39 sec) 
Heartbeat CPU 0 instructions: 91000000 cycles: 745344844 heartbeat IPC: 0.111347 cumulative IPC: 0.109429 (Simulation time: 1 hr 27 min 48 sec) 
Heartbeat CPU 0 instructions: 92000000 cycles: 751305067 heartbeat IPC: 0.167779 cumulative IPC: 0.109895 (Simulation time: 1 hr 27 min 55 sec) 
Heartbeat CPU 0 instructions: 93000003 cycles: 762117518 heartbeat IPC: 0.0924862 cumulative IPC: 0.109646 (Simulation time: 1 hr 28 min 5 sec) 
Heartbeat CPU 0 instructions: 94000000 cycles: 774104089 heartbeat IPC: 0.0834264 cumulative IPC: 0.109238 (Simulation time: 1 hr 28 min 14 sec) 
Heartbeat CPU 0 instructions: 95000000 cycles: 780294304 heartbeat IPC: 0.161545 cumulative IPC: 0.109655 (Simulation time: 1 hr 28 min 22 sec) 
Heartbeat CPU 0 instructions: 96000000 cycles: 787370150 heartbeat IPC: 0.141326 cumulative IPC: 0.109942 (Simulation time: 1 hr 28 min 29 sec) 
Heartbeat CPU 0 instructions: 97000003 cycles: 803532354 heartbeat IPC: 0.0618729 cumulative IPC: 0.108969 (Simulation time: 1 hr 28 min 41 sec) 
Heartbeat CPU 0 instructions: 98000002 cycles: 810084115 heartbeat IPC: 0.152631 cumulative IPC: 0.109324 (Simulation time: 1 hr 28 min 49 sec) 
Heartbeat CPU 0 instructions: 99000000 cycles: 816357234 heartbeat IPC: 0.15941 cumulative IPC: 0.109711 (Simulation time: 1 hr 28 min 56 sec) 
Heartbeat CPU 0 instructions: 100000000 cycles: 829924919 heartbeat IPC: 0.0737045 cumulative IPC: 0.109119 (Simulation time: 1 hr 29 min 7 sec) 
Heartbeat CPU 0 instructions: 101000000 cycles: 839896892 heartbeat IPC: 0.100281 cumulative IPC: 0.109014 (Simulation time: 1 hr 29 min 16 sec) 
Heartbeat CPU 0 instructions: 102000000 cycles: 846491102 heartbeat IPC: 0.151648 cumulative IPC: 0.109348 (Simulation time: 1 hr 29 min 24 sec) 
Heartbeat CPU 0 instructions: 103000001 cycles: 852813138 heartbeat IPC: 0.158177 cumulative IPC: 0.109712 (Simulation time: 1 hr 29 min 31 sec) 
Heartbeat CPU 0 instructions: 104000000 cycles: 868953450 heartbeat IPC: 0.0619566 cumulative IPC: 0.10882 (Simulation time: 1 hr 29 min 43 sec) 
Heartbeat CPU 0 instructions: 105000000 cycles: 876478782 heartbeat IPC: 0.132885 cumulative IPC: 0.109027 (Simulation time: 1 hr 29 min 51 sec) 
Heartbeat CPU 0 instructions: 106000000 cycles: 883066977 heartbeat IPC: 0.151787 cumulative IPC: 0.109348 (Simulation time: 1 hr 29 min 59 sec) 
Heartbeat CPU 0 instructions: 107000000 cycles: 892609458 heartbeat IPC: 0.104795 cumulative IPC: 0.109299 (Simulation time: 1 hr 30 min 7 sec) 
Heartbeat CPU 0 instructions: 108000000 cycles: 906506356 heartbeat IPC: 0.0719585 cumulative IPC: 0.108724 (Simulation time: 1 hr 30 min 18 sec) 
Heartbeat CPU 0 instructions: 109000000 cycles: 913071998 heartbeat IPC: 0.152308 cumulative IPC: 0.109039 (Simulation time: 1 hr 30 min 26 sec) 
Heartbeat CPU 0 instructions: 110000000 cycles: 920183332 heartbeat IPC: 0.140621 cumulative IPC: 0.109284 (Simulation time: 1 hr 30 min 33 sec) 
Finished CPU 0 instructions: 100000002 cycles: 915044674 cummulative IPC: 0.109284 (Simulation time: 1 hr 30 min 33 sec) 

ChampSim completed all CPUs

Region of Interest Statistics

CPU 0 cummulative IPC: 0.109284 instructions: 100000002 cycles: 915044674
LLC TOTAL     ACCESS:   21078180  HIT:    9756576  MISS:   11321604
LLC LOAD      ACCESS:    9505406  HIT:    5892660  MISS:    3612746
LLC RFO       ACCESS:     164403  HIT:      54472  MISS:     109931
LLC PREFETCH  ACCESS:    9645433  HIT:    2319244  MISS:    7326189
LLC WRITEBACK ACCESS:    1762938  HIT:    1490200  MISS:     272738
Insertion Distribution: 
	LOAD 889848 0 640528 2325041 
	RFO 66976 0 32124 14749 
	PREF 0 1693765 1819648 4970733 
	WRITEBACK 0 0 0 290995 
Total Prefetch Downgrades: 1636170
