
*** ChampSim Multicore Out-of-Order Simulator ***

Warmup Instructions: 10000000
Simulation Instructions: 100000000
Configuration: 2
Number of CPUs: 1
LLC sets: 2048
LLC ways: 16
Off-chip DRAM Channels: 1 Width: 64-bit Data Rate: 1600 MT/s

CPU 0 runs /datasets/cs240c-wi22-a00-public/data/Assignment2-gz/sphinx3_2520B.trace.gz
CPU 0 L1D next line prefetcher
CPU 0 L2C IP-based stride prefetcher
Initialize SRRIP state
Heartbeat CPU 0 instructions: 1000003 cycles: 338965 heartbeat IPC: 2.95017 cumulative IPC: 2.95017 (Simulation time: 0 hr 0 min 34 sec) 
Heartbeat CPU 0 instructions: 2000000 cycles: 737243 heartbeat IPC: 2.5108 cumulative IPC: 2.71281 (Simulation time: 0 hr 1 min 12 sec) 
Heartbeat CPU 0 instructions: 3000003 cycles: 1185241 heartbeat IPC: 2.23216 cumulative IPC: 2.53113 (Simulation time: 0 hr 1 min 44 sec) 
Heartbeat CPU 0 instructions: 4000000 cycles: 1524269 heartbeat IPC: 2.9496 cumulative IPC: 2.62421 (Simulation time: 0 hr 2 min 17 sec) 
Heartbeat CPU 0 instructions: 5000001 cycles: 1902427 heartbeat IPC: 2.6444 cumulative IPC: 2.62822 (Simulation time: 0 hr 2 min 54 sec) 
Heartbeat CPU 0 instructions: 6000001 cycles: 2367871 heartbeat IPC: 2.14849 cumulative IPC: 2.53392 (Simulation time: 0 hr 3 min 30 sec) 
Heartbeat CPU 0 instructions: 7000001 cycles: 2706812 heartbeat IPC: 2.95037 cumulative IPC: 2.58607 (Simulation time: 0 hr 4 min 3 sec) 
Heartbeat CPU 0 instructions: 8000000 cycles: 3055840 heartbeat IPC: 2.8651 cumulative IPC: 2.61794 (Simulation time: 0 hr 4 min 37 sec) 
Heartbeat CPU 0 instructions: 9000000 cycles: 3509254 heartbeat IPC: 2.20549 cumulative IPC: 2.56465 (Simulation time: 0 hr 5 min 13 sec) 
Heartbeat CPU 0 instructions: 10000000 cycles: 3859411 heartbeat IPC: 2.85586 cumulative IPC: 2.59107 (Simulation time: 0 hr 5 min 45 sec) 

Warmup complete CPU 0 instructions: 10000004 cycles: 3859412 (Simulation time: 0 hr 5 min 45 sec) 

Heartbeat CPU 0 instructions: 11000001 cycles: 4643822 heartbeat IPC: 1.27484 cumulative IPC: 1.27484 (Simulation time: 0 hr 6 min 23 sec) 
Heartbeat CPU 0 instructions: 12000000 cycles: 5503323 heartbeat IPC: 1.16346 cumulative IPC: 1.21661 (Simulation time: 0 hr 7 min 3 sec) 
Heartbeat CPU 0 instructions: 13000002 cycles: 6364983 heartbeat IPC: 1.16055 cumulative IPC: 1.19733 (Simulation time: 0 hr 7 min 44 sec) 
Heartbeat CPU 0 instructions: 14000002 cycles: 7139035 heartbeat IPC: 1.2919 cumulative IPC: 1.21965 (Simulation time: 0 hr 8 min 25 sec) 
Heartbeat CPU 0 instructions: 15000003 cycles: 8014711 heartbeat IPC: 1.14198 cumulative IPC: 1.20328 (Simulation time: 0 hr 9 min 6 sec) 
Heartbeat CPU 0 instructions: 16000000 cycles: 8849515 heartbeat IPC: 1.19788 cumulative IPC: 1.20238 (Simulation time: 0 hr 9 min 49 sec) 
Heartbeat CPU 0 instructions: 17000000 cycles: 9609319 heartbeat IPC: 1.31613 cumulative IPC: 1.21741 (Simulation time: 0 hr 10 min 30 sec) 
Heartbeat CPU 0 instructions: 18000002 cycles: 10460674 heartbeat IPC: 1.1746 cumulative IPC: 1.21189 (Simulation time: 0 hr 11 min 12 sec) 
Heartbeat CPU 0 instructions: 19000001 cycles: 11281192 heartbeat IPC: 1.21874 cumulative IPC: 1.21265 (Simulation time: 0 hr 11 min 54 sec) 
Heartbeat CPU 0 instructions: 20000000 cycles: 12039428 heartbeat IPC: 1.31885 cumulative IPC: 1.22249 (Simulation time: 0 hr 12 min 37 sec) 
Heartbeat CPU 0 instructions: 21000001 cycles: 13206512 heartbeat IPC: 0.856837 cumulative IPC: 1.17684 (Simulation time: 0 hr 13 min 21 sec) 
Heartbeat CPU 0 instructions: 22000002 cycles: 14156273 heartbeat IPC: 1.0529 cumulative IPC: 1.1654 (Simulation time: 0 hr 14 min 2 sec) 
Heartbeat CPU 0 instructions: 23000001 cycles: 14969291 heartbeat IPC: 1.22998 cumulative IPC: 1.17013 (Simulation time: 0 hr 14 min 45 sec) 
Heartbeat CPU 0 instructions: 24000000 cycles: 15744756 heartbeat IPC: 1.28955 cumulative IPC: 1.17792 (Simulation time: 0 hr 15 min 29 sec) 
Heartbeat CPU 0 instructions: 25000003 cycles: 16554852 heartbeat IPC: 1.23443 cumulative IPC: 1.18153 (Simulation time: 0 hr 16 min 14 sec) 
Heartbeat CPU 0 instructions: 26000001 cycles: 17350797 heartbeat IPC: 1.25637 cumulative IPC: 1.18594 (Simulation time: 0 hr 17 min 1 sec) 
Heartbeat CPU 0 instructions: 27000000 cycles: 18120324 heartbeat IPC: 1.2995 cumulative IPC: 1.19207 (Simulation time: 0 hr 17 min 49 sec) 
Heartbeat CPU 0 instructions: 28000000 cycles: 18937667 heartbeat IPC: 1.22348 cumulative IPC: 1.19377 (Simulation time: 0 hr 18 min 40 sec) 
Heartbeat CPU 0 instructions: 29000003 cycles: 19740584 heartbeat IPC: 1.24546 cumulative IPC: 1.19639 (Simulation time: 0 hr 19 min 30 sec) 
Heartbeat CPU 0 instructions: 30000003 cycles: 20504503 heartbeat IPC: 1.30904 cumulative IPC: 1.20156 (Simulation time: 0 hr 20 min 20 sec) 
Heartbeat CPU 0 instructions: 31000001 cycles: 21310896 heartbeat IPC: 1.24009 cumulative IPC: 1.20334 (Simulation time: 0 hr 21 min 14 sec) 
Heartbeat CPU 0 instructions: 32000000 cycles: 22105444 heartbeat IPC: 1.25858 cumulative IPC: 1.20574 (Simulation time: 0 hr 22 min 9 sec) 
Heartbeat CPU 0 instructions: 33000000 cycles: 22872907 heartbeat IPC: 1.30299 cumulative IPC: 1.20967 (Simulation time: 0 hr 22 min 59 sec) 
Heartbeat CPU 0 instructions: 34000000 cycles: 23672452 heartbeat IPC: 1.25071 cumulative IPC: 1.21132 (Simulation time: 0 hr 23 min 47 sec) 
Heartbeat CPU 0 instructions: 35000002 cycles: 24471570 heartbeat IPC: 1.25138 cumulative IPC: 1.21288 (Simulation time: 0 hr 24 min 36 sec) 
Heartbeat CPU 0 instructions: 36000000 cycles: 25222431 heartbeat IPC: 1.3318 cumulative IPC: 1.21706 (Simulation time: 0 hr 25 min 28 sec) 
Heartbeat CPU 0 instructions: 37000000 cycles: 26039452 heartbeat IPC: 1.22396 cumulative IPC: 1.21731 (Simulation time: 0 hr 26 min 17 sec) 
Heartbeat CPU 0 instructions: 38000000 cycles: 26839706 heartbeat IPC: 1.2496 cumulative IPC: 1.21844 (Simulation time: 0 hr 27 min 6 sec) 
Heartbeat CPU 0 instructions: 39000000 cycles: 27626580 heartbeat IPC: 1.27085 cumulative IPC: 1.22017 (Simulation time: 0 hr 27 min 54 sec) 
Heartbeat CPU 0 instructions: 40000000 cycles: 28452049 heartbeat IPC: 1.21143 cumulative IPC: 1.21988 (Simulation time: 0 hr 28 min 46 sec) 
Heartbeat CPU 0 instructions: 41000001 cycles: 29239908 heartbeat IPC: 1.26926 cumulative IPC: 1.22141 (Simulation time: 0 hr 29 min 38 sec) 
Heartbeat CPU 0 instructions: 42000002 cycles: 30030430 heartbeat IPC: 1.26499 cumulative IPC: 1.22273 (Simulation time: 0 hr 30 min 27 sec) 
Heartbeat CPU 0 instructions: 43000001 cycles: 30821884 heartbeat IPC: 1.2635 cumulative IPC: 1.22392 (Simulation time: 0 hr 31 min 12 sec) 
Heartbeat CPU 0 instructions: 44000000 cycles: 31604989 heartbeat IPC: 1.27697 cumulative IPC: 1.22542 (Simulation time: 0 hr 31 min 56 sec) 
Heartbeat CPU 0 instructions: 45000001 cycles: 32393462 heartbeat IPC: 1.26828 cumulative IPC: 1.2266 (Simulation time: 0 hr 32 min 39 sec) 
Heartbeat CPU 0 instructions: 46000001 cycles: 33209317 heartbeat IPC: 1.22571 cumulative IPC: 1.22658 (Simulation time: 0 hr 33 min 19 sec) 
Heartbeat CPU 0 instructions: 47000003 cycles: 33988103 heartbeat IPC: 1.28405 cumulative IPC: 1.22807 (Simulation time: 0 hr 34 min 3 sec) 
Heartbeat CPU 0 instructions: 48000000 cycles: 34788762 heartbeat IPC: 1.24897 cumulative IPC: 1.22861 (Simulation time: 0 hr 34 min 45 sec) 
Heartbeat CPU 0 instructions: 49000002 cycles: 35566217 heartbeat IPC: 1.28625 cumulative IPC: 1.23002 (Simulation time: 0 hr 35 min 28 sec) 
Heartbeat CPU 0 instructions: 50000002 cycles: 36336272 heartbeat IPC: 1.29861 cumulative IPC: 1.23165 (Simulation time: 0 hr 36 min 13 sec) 
Heartbeat CPU 0 instructions: 51000001 cycles: 37137469 heartbeat IPC: 1.24813 cumulative IPC: 1.23204 (Simulation time: 0 hr 36 min 55 sec) 
Heartbeat CPU 0 instructions: 52000000 cycles: 37905338 heartbeat IPC: 1.3023 cumulative IPC: 1.23363 (Simulation time: 0 hr 37 min 32 sec) 
Heartbeat CPU 0 instructions: 53000001 cycles: 38682269 heartbeat IPC: 1.28712 cumulative IPC: 1.23482 (Simulation time: 0 hr 38 min 11 sec) 
Heartbeat CPU 0 instructions: 54000001 cycles: 39453224 heartbeat IPC: 1.29709 cumulative IPC: 1.23617 (Simulation time: 0 hr 38 min 53 sec) 
Heartbeat CPU 0 instructions: 55000002 cycles: 40205106 heartbeat IPC: 1.33 cumulative IPC: 1.23811 (Simulation time: 0 hr 39 min 32 sec) 
Heartbeat CPU 0 instructions: 56000000 cycles: 40973927 heartbeat IPC: 1.30069 cumulative IPC: 1.23941 (Simulation time: 0 hr 40 min 11 sec) 
Heartbeat CPU 0 instructions: 57000000 cycles: 41859567 heartbeat IPC: 1.12913 cumulative IPC: 1.23684 (Simulation time: 0 hr 40 min 52 sec) 
Heartbeat CPU 0 instructions: 58000002 cycles: 42988331 heartbeat IPC: 0.885927 cumulative IPC: 1.22671 (Simulation time: 0 hr 41 min 37 sec) 
Heartbeat CPU 0 instructions: 59000001 cycles: 43782563 heartbeat IPC: 1.25908 cumulative IPC: 1.22736 (Simulation time: 0 hr 42 min 15 sec) 
Heartbeat CPU 0 instructions: 60000000 cycles: 44558641 heartbeat IPC: 1.28853 cumulative IPC: 1.22852 (Simulation time: 0 hr 42 min 54 sec) 
Heartbeat CPU 0 instructions: 61000001 cycles: 45325771 heartbeat IPC: 1.30356 cumulative IPC: 1.22991 (Simulation time: 0 hr 43 min 37 sec) 
Heartbeat CPU 0 instructions: 62000000 cycles: 46095781 heartbeat IPC: 1.29868 cumulative IPC: 1.23117 (Simulation time: 0 hr 44 min 16 sec) 
Heartbeat CPU 0 instructions: 63000002 cycles: 46864213 heartbeat IPC: 1.30135 cumulative IPC: 1.23242 (Simulation time: 0 hr 44 min 57 sec) 
Heartbeat CPU 0 instructions: 64000000 cycles: 47644746 heartbeat IPC: 1.28117 cumulative IPC: 1.23329 (Simulation time: 0 hr 45 min 37 sec) 
Heartbeat CPU 0 instructions: 65000003 cycles: 48406796 heartbeat IPC: 1.31225 cumulative IPC: 1.23464 (Simulation time: 0 hr 46 min 17 sec) 
Heartbeat CPU 0 instructions: 66000003 cycles: 49178419 heartbeat IPC: 1.29597 cumulative IPC: 1.23568 (Simulation time: 0 hr 46 min 58 sec) 
Heartbeat CPU 0 instructions: 67000003 cycles: 49992744 heartbeat IPC: 1.22801 cumulative IPC: 1.23555 (Simulation time: 0 hr 47 min 37 sec) 
Heartbeat CPU 0 instructions: 68000000 cycles: 50760583 heartbeat IPC: 1.30235 cumulative IPC: 1.23664 (Simulation time: 0 hr 48 min 17 sec) 
Heartbeat CPU 0 instructions: 69000003 cycles: 51537028 heartbeat IPC: 1.28793 cumulative IPC: 1.23748 (Simulation time: 0 hr 48 min 59 sec) 
Heartbeat CPU 0 instructions: 70000000 cycles: 52333414 heartbeat IPC: 1.25567 cumulative IPC: 1.23778 (Simulation time: 0 hr 49 min 39 sec) 
Heartbeat CPU 0 instructions: 71000002 cycles: 53106812 heartbeat IPC: 1.293 cumulative IPC: 1.23864 (Simulation time: 0 hr 50 min 17 sec) 
Heartbeat CPU 0 instructions: 72000000 cycles: 53871813 heartbeat IPC: 1.30719 cumulative IPC: 1.23969 (Simulation time: 0 hr 50 min 55 sec) 
Heartbeat CPU 0 instructions: 73000003 cycles: 54658601 heartbeat IPC: 1.27099 cumulative IPC: 1.24018 (Simulation time: 0 hr 51 min 33 sec) 
Heartbeat CPU 0 instructions: 74000003 cycles: 55425666 heartbeat IPC: 1.30367 cumulative IPC: 1.24112 (Simulation time: 0 hr 52 min 11 sec) 
Heartbeat CPU 0 instructions: 75000002 cycles: 56196654 heartbeat IPC: 1.29704 cumulative IPC: 1.24195 (Simulation time: 0 hr 52 min 51 sec) 
Heartbeat CPU 0 instructions: 76000000 cycles: 56978004 heartbeat IPC: 1.27983 cumulative IPC: 1.2425 (Simulation time: 0 hr 53 min 31 sec) 
Heartbeat CPU 0 instructions: 77000003 cycles: 57762510 heartbeat IPC: 1.27469 cumulative IPC: 1.24297 (Simulation time: 0 hr 54 min 10 sec) 
Heartbeat CPU 0 instructions: 78000000 cycles: 58530074 heartbeat IPC: 1.30282 cumulative IPC: 1.24381 (Simulation time: 0 hr 54 min 51 sec) 
Heartbeat CPU 0 instructions: 79000003 cycles: 59318182 heartbeat IPC: 1.26887 cumulative IPC: 1.24417 (Simulation time: 0 hr 55 min 33 sec) 
Heartbeat CPU 0 instructions: 80000000 cycles: 60098517 heartbeat IPC: 1.2815 cumulative IPC: 1.24469 (Simulation time: 0 hr 56 min 16 sec) 
Heartbeat CPU 0 instructions: 81000001 cycles: 60863128 heartbeat IPC: 1.30786 cumulative IPC: 1.24553 (Simulation time: 0 hr 56 min 59 sec) 
Heartbeat CPU 0 instructions: 82000002 cycles: 61648058 heartbeat IPC: 1.274 cumulative IPC: 1.24592 (Simulation time: 0 hr 57 min 42 sec) 
Heartbeat CPU 0 instructions: 83000003 cycles: 62430722 heartbeat IPC: 1.27769 cumulative IPC: 1.24634 (Simulation time: 0 hr 58 min 24 sec) 
Heartbeat CPU 0 instructions: 84000000 cycles: 63196053 heartbeat IPC: 1.30662 cumulative IPC: 1.24712 (Simulation time: 0 hr 59 min 8 sec) 
Heartbeat CPU 0 instructions: 85000001 cycles: 63976643 heartbeat IPC: 1.28108 cumulative IPC: 1.24756 (Simulation time: 0 hr 59 min 51 sec) 
Heartbeat CPU 0 instructions: 86000000 cycles: 64732641 heartbeat IPC: 1.32275 cumulative IPC: 1.2485 (Simulation time: 1 hr 0 min 32 sec) 
Heartbeat CPU 0 instructions: 87000003 cycles: 65501058 heartbeat IPC: 1.30138 cumulative IPC: 1.24916 (Simulation time: 1 hr 1 min 12 sec) 
Heartbeat CPU 0 instructions: 88000000 cycles: 66284240 heartbeat IPC: 1.27684 cumulative IPC: 1.2495 (Simulation time: 1 hr 1 min 55 sec) 
Heartbeat CPU 0 instructions: 89000000 cycles: 67037933 heartbeat IPC: 1.3268 cumulative IPC: 1.25042 (Simulation time: 1 hr 2 min 37 sec) 
Heartbeat CPU 0 instructions: 90000001 cycles: 67787258 heartbeat IPC: 1.33454 cumulative IPC: 1.25141 (Simulation time: 1 hr 3 min 17 sec) 
Heartbeat CPU 0 instructions: 91000001 cycles: 68571423 heartbeat IPC: 1.27524 cumulative IPC: 1.2517 (Simulation time: 1 hr 3 min 57 sec) 
Heartbeat CPU 0 instructions: 92000000 cycles: 69329039 heartbeat IPC: 1.31993 cumulative IPC: 1.25249 (Simulation time: 1 hr 4 min 36 sec) 
Heartbeat CPU 0 instructions: 93000002 cycles: 70064852 heartbeat IPC: 1.35904 cumulative IPC: 1.25367 (Simulation time: 1 hr 5 min 16 sec) 
Heartbeat CPU 0 instructions: 94000000 cycles: 70867438 heartbeat IPC: 1.24597 cumulative IPC: 1.25358 (Simulation time: 1 hr 5 min 54 sec) 
Heartbeat CPU 0 instructions: 95000000 cycles: 71617969 heartbeat IPC: 1.33239 cumulative IPC: 1.25445 (Simulation time: 1 hr 6 min 33 sec) 
Heartbeat CPU 0 instructions: 96000000 cycles: 72379612 heartbeat IPC: 1.31295 cumulative IPC: 1.2551 (Simulation time: 1 hr 7 min 11 sec) 
Heartbeat CPU 0 instructions: 97000002 cycles: 73561261 heartbeat IPC: 0.846277 cumulative IPC: 1.24817 (Simulation time: 1 hr 7 min 53 sec) 
Heartbeat CPU 0 instructions: 98000003 cycles: 74487897 heartbeat IPC: 1.07917 cumulative IPC: 1.24596 (Simulation time: 1 hr 8 min 32 sec) 
Heartbeat CPU 0 instructions: 99000001 cycles: 75268043 heartbeat IPC: 1.28181 cumulative IPC: 1.24635 (Simulation time: 1 hr 9 min 9 sec) 
Heartbeat CPU 0 instructions: 100000000 cycles: 76034391 heartbeat IPC: 1.30489 cumulative IPC: 1.24697 (Simulation time: 1 hr 9 min 47 sec) 
Heartbeat CPU 0 instructions: 101000001 cycles: 77383395 heartbeat IPC: 0.741288 cumulative IPC: 1.23769 (Simulation time: 1 hr 10 min 24 sec) 
Heartbeat CPU 0 instructions: 102000001 cycles: 78201955 heartbeat IPC: 1.22166 cumulative IPC: 1.23751 (Simulation time: 1 hr 10 min 59 sec) 
Heartbeat CPU 0 instructions: 103000001 cycles: 79015928 heartbeat IPC: 1.22854 cumulative IPC: 1.23742 (Simulation time: 1 hr 11 min 34 sec) 
Heartbeat CPU 0 instructions: 104000000 cycles: 80275927 heartbeat IPC: 0.793651 cumulative IPC: 1.2301 (Simulation time: 1 hr 12 min 10 sec) 
Heartbeat CPU 0 instructions: 105000002 cycles: 81106246 heartbeat IPC: 1.20436 cumulative IPC: 1.22982 (Simulation time: 1 hr 12 min 40 sec) 
Heartbeat CPU 0 instructions: 106000000 cycles: 81857627 heartbeat IPC: 1.33088 cumulative IPC: 1.2308 (Simulation time: 1 hr 13 min 8 sec) 
Heartbeat CPU 0 instructions: 107000000 cycles: 82920940 heartbeat IPC: 0.940457 cumulative IPC: 1.22689 (Simulation time: 1 hr 13 min 39 sec) 
Heartbeat CPU 0 instructions: 108000000 cycles: 83909373 heartbeat IPC: 1.0117 cumulative IPC: 1.22424 (Simulation time: 1 hr 14 min 9 sec) 
Heartbeat CPU 0 instructions: 109000003 cycles: 84674604 heartbeat IPC: 1.3068 cumulative IPC: 1.22502 (Simulation time: 1 hr 14 min 38 sec) 
Heartbeat CPU 0 instructions: 110000000 cycles: 85504703 heartbeat IPC: 1.20467 cumulative IPC: 1.22481 (Simulation time: 1 hr 15 min 7 sec) 
Finished CPU 0 instructions: 100000003 cycles: 81645295 cummulative IPC: 1.22481 (Simulation time: 1 hr 15 min 7 sec) 

ChampSim completed all CPUs

Region of Interest Statistics

CPU 0 cummulative IPC: 1.22481 instructions: 100000003 cycles: 81645295
LLC TOTAL     ACCESS:    1445928  HIT:     853506  MISS:     592422
LLC LOAD      ACCESS:     118909  HIT:     100338  MISS:      18571
LLC RFO       ACCESS:     121987  HIT:     120502  MISS:       1485
LLC PREFETCH  ACCESS:    1076638  HIT:     504580  MISS:     572058
LLC WRITEBACK ACCESS:     128394  HIT:     128086  MISS:        308
Insertion Distribution: 
	LOAD 10325 0 14655 2417 
	RFO 1121 0 3539 0 
	PREF 0 9083 64680 579790 
	WRITEBACK 0 0 0 377 
Total Prefetch Downgrades: 5364
