
*** ChampSim Multicore Out-of-Order Simulator ***

Warmup Instructions: 10000000
Simulation Instructions: 100000000
Configuration: 2
Number of CPUs: 1
LLC sets: 2048
LLC ways: 16
Off-chip DRAM Channels: 1 Width: 64-bit Data Rate: 1600 MT/s

CPU 0 runs /datasets/cs240c-wi22-a00-public/data/Assignment2-gz/bzip2_259B.trace.gz
CPU 0 L1D next line prefetcher
CPU 0 L2C IP-based stride prefetcher
Initialize SRRIP state
Heartbeat CPU 0 instructions: 1000002 cycles: 428875 heartbeat IPC: 2.33169 cumulative IPC: 2.33169 (Simulation time: 0 hr 0 min 42 sec) 
Heartbeat CPU 0 instructions: 2000003 cycles: 861057 heartbeat IPC: 2.31384 cumulative IPC: 2.32273 (Simulation time: 0 hr 1 min 22 sec) 
Heartbeat CPU 0 instructions: 3000001 cycles: 1286790 heartbeat IPC: 2.34889 cumulative IPC: 2.33138 (Simulation time: 0 hr 2 min 1 sec) 
Heartbeat CPU 0 instructions: 4000000 cycles: 1685062 heartbeat IPC: 2.51084 cumulative IPC: 2.3738 (Simulation time: 0 hr 2 min 37 sec) 
Heartbeat CPU 0 instructions: 5000001 cycles: 2103495 heartbeat IPC: 2.38987 cumulative IPC: 2.377 (Simulation time: 0 hr 3 min 17 sec) 
Heartbeat CPU 0 instructions: 6000001 cycles: 2532858 heartbeat IPC: 2.32903 cumulative IPC: 2.36887 (Simulation time: 0 hr 3 min 53 sec) 
Heartbeat CPU 0 instructions: 7000003 cycles: 2961906 heartbeat IPC: 2.33075 cumulative IPC: 2.36334 (Simulation time: 0 hr 4 min 34 sec) 
Heartbeat CPU 0 instructions: 8000000 cycles: 3391719 heartbeat IPC: 2.32659 cumulative IPC: 2.35869 (Simulation time: 0 hr 5 min 12 sec) 
Heartbeat CPU 0 instructions: 9000000 cycles: 3819845 heartbeat IPC: 2.33576 cumulative IPC: 2.35612 (Simulation time: 0 hr 5 min 51 sec) 
Heartbeat CPU 0 instructions: 10000002 cycles: 4193917 heartbeat IPC: 2.67329 cumulative IPC: 2.38441 (Simulation time: 0 hr 6 min 22 sec) 

Warmup complete CPU 0 instructions: 10000002 cycles: 4193917 (Simulation time: 0 hr 6 min 22 sec) 

Heartbeat CPU 0 instructions: 11000002 cycles: 5034789 heartbeat IPC: 1.18924 cumulative IPC: 1.18924 (Simulation time: 0 hr 6 min 58 sec) 
Heartbeat CPU 0 instructions: 12000000 cycles: 6140435 heartbeat IPC: 0.904447 cumulative IPC: 1.02747 (Simulation time: 0 hr 7 min 40 sec) 
Heartbeat CPU 0 instructions: 13000002 cycles: 7084320 heartbeat IPC: 1.05945 cumulative IPC: 1.03792 (Simulation time: 0 hr 8 min 22 sec) 
Heartbeat CPU 0 instructions: 14000003 cycles: 7999645 heartbeat IPC: 1.09251 cumulative IPC: 1.05105 (Simulation time: 0 hr 9 min 3 sec) 
Heartbeat CPU 0 instructions: 15000002 cycles: 9024596 heartbeat IPC: 0.975655 cumulative IPC: 1.03505 (Simulation time: 0 hr 9 min 46 sec) 
Heartbeat CPU 0 instructions: 16000000 cycles: 10016983 heartbeat IPC: 1.00767 cumulative IPC: 1.03038 (Simulation time: 0 hr 10 min 29 sec) 
Heartbeat CPU 0 instructions: 17000002 cycles: 11139231 heartbeat IPC: 0.89107 cumulative IPC: 1.00787 (Simulation time: 0 hr 11 min 13 sec) 
Heartbeat CPU 0 instructions: 18000001 cycles: 12234561 heartbeat IPC: 0.912966 cumulative IPC: 0.994945 (Simulation time: 0 hr 11 min 54 sec) 
Heartbeat CPU 0 instructions: 19000003 cycles: 13204304 heartbeat IPC: 1.0312 cumulative IPC: 0.998847 (Simulation time: 0 hr 12 min 31 sec) 
Heartbeat CPU 0 instructions: 20000000 cycles: 14209698 heartbeat IPC: 0.994632 cumulative IPC: 0.998424 (Simulation time: 0 hr 13 min 6 sec) 
Heartbeat CPU 0 instructions: 21000001 cycles: 15116694 heartbeat IPC: 1.10254 cumulative IPC: 1.00707 (Simulation time: 0 hr 13 min 41 sec) 
Heartbeat CPU 0 instructions: 22000001 cycles: 16030126 heartbeat IPC: 1.09477 cumulative IPC: 1.01384 (Simulation time: 0 hr 14 min 17 sec) 
Heartbeat CPU 0 instructions: 23000002 cycles: 16935096 heartbeat IPC: 1.10501 cumulative IPC: 1.02031 (Simulation time: 0 hr 14 min 55 sec) 
Heartbeat CPU 0 instructions: 24000000 cycles: 17838597 heartbeat IPC: 1.1068 cumulative IPC: 1.02604 (Simulation time: 0 hr 15 min 33 sec) 
Heartbeat CPU 0 instructions: 25000000 cycles: 18741942 heartbeat IPC: 1.107 cumulative IPC: 1.03107 (Simulation time: 0 hr 16 min 9 sec) 
Heartbeat CPU 0 instructions: 26000000 cycles: 19667693 heartbeat IPC: 1.0802 cumulative IPC: 1.03401 (Simulation time: 0 hr 16 min 46 sec) 
Heartbeat CPU 0 instructions: 27000003 cycles: 20602577 heartbeat IPC: 1.06965 cumulative IPC: 1.03604 (Simulation time: 0 hr 17 min 25 sec) 
Heartbeat CPU 0 instructions: 28000000 cycles: 21516645 heartbeat IPC: 1.09401 cumulative IPC: 1.0391 (Simulation time: 0 hr 18 min 4 sec) 
Heartbeat CPU 0 instructions: 29000000 cycles: 22419982 heartbeat IPC: 1.10701 cumulative IPC: 1.04246 (Simulation time: 0 hr 18 min 39 sec) 
Heartbeat CPU 0 instructions: 30000001 cycles: 23388190 heartbeat IPC: 1.03284 cumulative IPC: 1.04198 (Simulation time: 0 hr 19 min 16 sec) 
Heartbeat CPU 0 instructions: 31000001 cycles: 24292849 heartbeat IPC: 1.10539 cumulative IPC: 1.04483 (Simulation time: 0 hr 19 min 52 sec) 
Heartbeat CPU 0 instructions: 32000000 cycles: 25185019 heartbeat IPC: 1.12086 cumulative IPC: 1.04806 (Simulation time: 0 hr 20 min 28 sec) 
Heartbeat CPU 0 instructions: 33000002 cycles: 26312656 heartbeat IPC: 0.886812 cumulative IPC: 1.03984 (Simulation time: 0 hr 21 min 8 sec) 
Heartbeat CPU 0 instructions: 34000003 cycles: 27524016 heartbeat IPC: 0.825519 cumulative IPC: 1.02871 (Simulation time: 0 hr 21 min 49 sec) 
Heartbeat CPU 0 instructions: 35000001 cycles: 28562927 heartbeat IPC: 0.962544 cumulative IPC: 1.02589 (Simulation time: 0 hr 22 min 28 sec) 
Heartbeat CPU 0 instructions: 36000000 cycles: 29735485 heartbeat IPC: 0.852835 cumulative IPC: 1.01795 (Simulation time: 0 hr 23 min 4 sec) 
Heartbeat CPU 0 instructions: 37000002 cycles: 30778495 heartbeat IPC: 0.958766 cumulative IPC: 1.01563 (Simulation time: 0 hr 23 min 38 sec) 
Heartbeat CPU 0 instructions: 38000003 cycles: 31893940 heartbeat IPC: 0.896504 cumulative IPC: 1.01083 (Simulation time: 0 hr 24 min 11 sec) 
Heartbeat CPU 0 instructions: 39000001 cycles: 33037913 heartbeat IPC: 0.874145 cumulative IPC: 1.00541 (Simulation time: 0 hr 24 min 47 sec) 
Heartbeat CPU 0 instructions: 40000000 cycles: 34107842 heartbeat IPC: 0.934641 cumulative IPC: 1.00288 (Simulation time: 0 hr 25 min 21 sec) 
Heartbeat CPU 0 instructions: 41000001 cycles: 35297340 heartbeat IPC: 0.840692 cumulative IPC: 0.996675 (Simulation time: 0 hr 25 min 55 sec) 
Heartbeat CPU 0 instructions: 42000000 cycles: 36507093 heartbeat IPC: 0.826614 cumulative IPC: 0.990308 (Simulation time: 0 hr 26 min 27 sec) 
Heartbeat CPU 0 instructions: 43000003 cycles: 37723603 heartbeat IPC: 0.822026 cumulative IPC: 0.984203 (Simulation time: 0 hr 27 min 2 sec) 
Heartbeat CPU 0 instructions: 44000000 cycles: 38937427 heartbeat IPC: 0.82384 cumulative IPC: 0.9786 (Simulation time: 0 hr 27 min 36 sec) 
Heartbeat CPU 0 instructions: 45000000 cycles: 40159165 heartbeat IPC: 0.818506 cumulative IPC: 0.973162 (Simulation time: 0 hr 28 min 11 sec) 
Heartbeat CPU 0 instructions: 46000002 cycles: 41397780 heartbeat IPC: 0.807355 cumulative IPC: 0.967641 (Simulation time: 0 hr 28 min 41 sec) 
Heartbeat CPU 0 instructions: 47000000 cycles: 42629236 heartbeat IPC: 0.812045 cumulative IPC: 0.962656 (Simulation time: 0 hr 29 min 12 sec) 
Heartbeat CPU 0 instructions: 48000000 cycles: 43867410 heartbeat IPC: 0.807641 cumulative IPC: 0.957818 (Simulation time: 0 hr 29 min 44 sec) 
Heartbeat CPU 0 instructions: 49000003 cycles: 45137275 heartbeat IPC: 0.787488 cumulative IPC: 0.952535 (Simulation time: 0 hr 30 min 17 sec) 
Heartbeat CPU 0 instructions: 50000001 cycles: 46176392 heartbeat IPC: 0.962354 cumulative IPC: 0.952778 (Simulation time: 0 hr 30 min 49 sec) 
Heartbeat CPU 0 instructions: 51000002 cycles: 47341340 heartbeat IPC: 0.858408 cumulative IPC: 0.950231 (Simulation time: 0 hr 31 min 20 sec) 
Heartbeat CPU 0 instructions: 52000000 cycles: 48459496 heartbeat IPC: 0.894328 cumulative IPC: 0.948818 (Simulation time: 0 hr 31 min 50 sec) 
Heartbeat CPU 0 instructions: 53000001 cycles: 49655596 heartbeat IPC: 0.836051 cumulative IPC: 0.945852 (Simulation time: 0 hr 32 min 23 sec) 
Heartbeat CPU 0 instructions: 54000000 cycles: 50881437 heartbeat IPC: 0.815766 cumulative IPC: 0.942436 (Simulation time: 0 hr 32 min 59 sec) 
Heartbeat CPU 0 instructions: 55000000 cycles: 52033038 heartbeat IPC: 0.868356 cumulative IPC: 0.940653 (Simulation time: 0 hr 33 min 32 sec) 
Heartbeat CPU 0 instructions: 56000000 cycles: 53257385 heartbeat IPC: 0.816762 cumulative IPC: 0.937561 (Simulation time: 0 hr 34 min 4 sec) 
Heartbeat CPU 0 instructions: 57000000 cycles: 54478437 heartbeat IPC: 0.818966 cumulative IPC: 0.934681 (Simulation time: 0 hr 34 min 33 sec) 
Heartbeat CPU 0 instructions: 58000002 cycles: 55511009 heartbeat IPC: 0.968457 cumulative IPC: 0.935361 (Simulation time: 0 hr 35 min 4 sec) 
Heartbeat CPU 0 instructions: 59000000 cycles: 56612118 heartbeat IPC: 0.908174 cumulative IPC: 0.93479 (Simulation time: 0 hr 35 min 35 sec) 
Heartbeat CPU 0 instructions: 60000000 cycles: 57792228 heartbeat IPC: 0.847379 cumulative IPC: 0.932865 (Simulation time: 0 hr 36 min 5 sec) 
Heartbeat CPU 0 instructions: 61000000 cycles: 58936551 heartbeat IPC: 0.873879 cumulative IPC: 0.931632 (Simulation time: 0 hr 36 min 38 sec) 
Heartbeat CPU 0 instructions: 62000002 cycles: 59781293 heartbeat IPC: 1.1838 cumulative IPC: 0.935464 (Simulation time: 0 hr 37 min 7 sec) 
Heartbeat CPU 0 instructions: 63000003 cycles: 60704100 heartbeat IPC: 1.08365 cumulative IPC: 0.937884 (Simulation time: 0 hr 37 min 41 sec) 
Heartbeat CPU 0 instructions: 64000000 cycles: 61781976 heartbeat IPC: 0.927748 cumulative IPC: 0.937694 (Simulation time: 0 hr 38 min 17 sec) 
Heartbeat CPU 0 instructions: 65000003 cycles: 62780170 heartbeat IPC: 1.00181 cumulative IPC: 0.938787 (Simulation time: 0 hr 38 min 57 sec) 
Heartbeat CPU 0 instructions: 66000003 cycles: 63727598 heartbeat IPC: 1.05549 cumulative IPC: 0.940644 (Simulation time: 0 hr 39 min 37 sec) 
Heartbeat CPU 0 instructions: 67000003 cycles: 64773929 heartbeat IPC: 0.95572 cumulative IPC: 0.940904 (Simulation time: 0 hr 40 min 18 sec) 
Heartbeat CPU 0 instructions: 68000000 cycles: 65847874 heartbeat IPC: 0.931144 cumulative IPC: 0.940734 (Simulation time: 0 hr 40 min 55 sec) 
Heartbeat CPU 0 instructions: 69000003 cycles: 66965384 heartbeat IPC: 0.894849 cumulative IPC: 0.939918 (Simulation time: 0 hr 41 min 33 sec) 
Heartbeat CPU 0 instructions: 70000003 cycles: 68214409 heartbeat IPC: 0.800624 cumulative IPC: 0.9372 (Simulation time: 0 hr 42 min 13 sec) 
Heartbeat CPU 0 instructions: 71000000 cycles: 69495827 heartbeat IPC: 0.780383 cumulative IPC: 0.934123 (Simulation time: 0 hr 42 min 51 sec) 
Heartbeat CPU 0 instructions: 72000000 cycles: 70655966 heartbeat IPC: 0.861966 cumulative IPC: 0.932863 (Simulation time: 0 hr 43 min 28 sec) 
Heartbeat CPU 0 instructions: 73000003 cycles: 71953017 heartbeat IPC: 0.770982 cumulative IPC: 0.929764 (Simulation time: 0 hr 44 min 4 sec) 
Heartbeat CPU 0 instructions: 74000001 cycles: 73178014 heartbeat IPC: 0.816327 cumulative IPC: 0.92775 (Simulation time: 0 hr 44 min 40 sec) 
Heartbeat CPU 0 instructions: 75000000 cycles: 74333653 heartbeat IPC: 0.865321 cumulative IPC: 0.926721 (Simulation time: 0 hr 45 min 20 sec) 
Heartbeat CPU 0 instructions: 76000000 cycles: 75404209 heartbeat IPC: 0.934094 cumulative IPC: 0.926832 (Simulation time: 0 hr 45 min 56 sec) 
Heartbeat CPU 0 instructions: 77000003 cycles: 76365619 heartbeat IPC: 1.04014 cumulative IPC: 0.928342 (Simulation time: 0 hr 46 min 30 sec) 
Heartbeat CPU 0 instructions: 78000000 cycles: 77322552 heartbeat IPC: 1.045 cumulative IPC: 0.929868 (Simulation time: 0 hr 47 min 1 sec) 
Heartbeat CPU 0 instructions: 79000003 cycles: 78396575 heartbeat IPC: 0.931082 cumulative IPC: 0.929886 (Simulation time: 0 hr 47 min 37 sec) 
Heartbeat CPU 0 instructions: 80000000 cycles: 79619233 heartbeat IPC: 0.817888 cumulative IPC: 0.92807 (Simulation time: 0 hr 48 min 17 sec) 
Heartbeat CPU 0 instructions: 81000001 cycles: 80774708 heartbeat IPC: 0.865446 cumulative IPC: 0.927125 (Simulation time: 0 hr 48 min 53 sec) 
Heartbeat CPU 0 instructions: 82000003 cycles: 81897486 heartbeat IPC: 0.89065 cumulative IPC: 0.926598 (Simulation time: 0 hr 49 min 27 sec) 
Heartbeat CPU 0 instructions: 83000002 cycles: 82953545 heartbeat IPC: 0.946916 cumulative IPC: 0.926871 (Simulation time: 0 hr 50 min 4 sec) 
Heartbeat CPU 0 instructions: 84000000 cycles: 83900755 heartbeat IPC: 1.05573 cumulative IPC: 0.928402 (Simulation time: 0 hr 50 min 37 sec) 
Heartbeat CPU 0 instructions: 85000003 cycles: 84845445 heartbeat IPC: 1.05855 cumulative IPC: 0.929927 (Simulation time: 0 hr 51 min 11 sec) 
Heartbeat CPU 0 instructions: 86000003 cycles: 85886593 heartbeat IPC: 0.960478 cumulative IPC: 0.930316 (Simulation time: 0 hr 51 min 46 sec) 
Heartbeat CPU 0 instructions: 87000002 cycles: 86950360 heartbeat IPC: 0.940055 cumulative IPC: 0.930441 (Simulation time: 0 hr 52 min 20 sec) 
Heartbeat CPU 0 instructions: 88000000 cycles: 88053699 heartbeat IPC: 0.906338 cumulative IPC: 0.930124 (Simulation time: 0 hr 52 min 52 sec) 
Heartbeat CPU 0 instructions: 89000002 cycles: 89060071 heartbeat IPC: 0.99367 cumulative IPC: 0.930878 (Simulation time: 0 hr 53 min 24 sec) 
Heartbeat CPU 0 instructions: 90000001 cycles: 90183230 heartbeat IPC: 0.890345 cumulative IPC: 0.930348 (Simulation time: 0 hr 53 min 55 sec) 
Heartbeat CPU 0 instructions: 91000002 cycles: 91297158 heartbeat IPC: 0.897725 cumulative IPC: 0.929931 (Simulation time: 0 hr 54 min 25 sec) 
Heartbeat CPU 0 instructions: 92000000 cycles: 92335576 heartbeat IPC: 0.963001 cumulative IPC: 0.930321 (Simulation time: 0 hr 54 min 55 sec) 
Heartbeat CPU 0 instructions: 93000000 cycles: 93523629 heartbeat IPC: 0.841713 cumulative IPC: 0.929142 (Simulation time: 0 hr 55 min 26 sec) 
Heartbeat CPU 0 instructions: 94000003 cycles: 94699823 heartbeat IPC: 0.850202 cumulative IPC: 0.928116 (Simulation time: 0 hr 56 min 3 sec) 
Heartbeat CPU 0 instructions: 95000002 cycles: 95884316 heartbeat IPC: 0.844242 cumulative IPC: 0.927033 (Simulation time: 0 hr 56 min 41 sec) 
Heartbeat CPU 0 instructions: 96000000 cycles: 97053987 heartbeat IPC: 0.85494 cumulative IPC: 0.926125 (Simulation time: 0 hr 57 min 19 sec) 
Heartbeat CPU 0 instructions: 97000002 cycles: 98270906 heartbeat IPC: 0.821749 cumulative IPC: 0.924774 (Simulation time: 0 hr 58 min 0 sec) 
Heartbeat CPU 0 instructions: 98000000 cycles: 99504512 heartbeat IPC: 0.81063 cumulative IPC: 0.923297 (Simulation time: 0 hr 58 min 41 sec) 
Heartbeat CPU 0 instructions: 99000000 cycles: 100744341 heartbeat IPC: 0.806563 cumulative IPC: 0.921798 (Simulation time: 0 hr 59 min 23 sec) 
Heartbeat CPU 0 instructions: 100000000 cycles: 101986401 heartbeat IPC: 0.805114 cumulative IPC: 0.920316 (Simulation time: 1 hr 0 min 8 sec) 
Heartbeat CPU 0 instructions: 101000003 cycles: 103133555 heartbeat IPC: 0.871725 cumulative IPC: 0.919753 (Simulation time: 1 hr 0 min 47 sec) 
Heartbeat CPU 0 instructions: 102000000 cycles: 104252517 heartbeat IPC: 0.893683 cumulative IPC: 0.919461 (Simulation time: 1 hr 1 min 29 sec) 
Heartbeat CPU 0 instructions: 103000000 cycles: 105353878 heartbeat IPC: 0.907968 cumulative IPC: 0.919336 (Simulation time: 1 hr 2 min 12 sec) 
Heartbeat CPU 0 instructions: 104000000 cycles: 106506941 heartbeat IPC: 0.867255 cumulative IPC: 0.918749 (Simulation time: 1 hr 2 min 55 sec) 
Heartbeat CPU 0 instructions: 105000002 cycles: 107718035 heartbeat IPC: 0.825701 cumulative IPC: 0.917661 (Simulation time: 1 hr 3 min 36 sec) 
Heartbeat CPU 0 instructions: 106000001 cycles: 108851595 heartbeat IPC: 0.882176 cumulative IPC: 0.917276 (Simulation time: 1 hr 4 min 16 sec) 
Heartbeat CPU 0 instructions: 107000000 cycles: 110054836 heartbeat IPC: 0.831088 cumulative IPC: 0.916297 (Simulation time: 1 hr 4 min 55 sec) 
Heartbeat CPU 0 instructions: 108000000 cycles: 111253176 heartbeat IPC: 0.834488 cumulative IPC: 0.915381 (Simulation time: 1 hr 5 min 31 sec) 
Heartbeat CPU 0 instructions: 109000000 cycles: 112265672 heartbeat IPC: 0.987658 cumulative IPC: 0.916058 (Simulation time: 1 hr 6 min 10 sec) 
Heartbeat CPU 0 instructions: 110000000 cycles: 113427136 heartbeat IPC: 0.860982 cumulative IPC: 0.915472 (Simulation time: 1 hr 6 min 50 sec) 
Finished CPU 0 instructions: 100000002 cycles: 109233221 cummulative IPC: 0.915472 (Simulation time: 1 hr 6 min 50 sec) 

ChampSim completed all CPUs

Region of Interest Statistics

CPU 0 cummulative IPC: 0.915472 instructions: 100000002 cycles: 109233221
LLC TOTAL     ACCESS:    1373529  HIT:    1060119  MISS:     313410
LLC LOAD      ACCESS:     396211  HIT:     349859  MISS:      46352
LLC RFO       ACCESS:     104382  HIT:      40186  MISS:      64196
LLC PREFETCH  ACCESS:     675955  HIT:     510780  MISS:     165175
LLC WRITEBACK ACCESS:     196981  HIT:     159294  MISS:      37687
Insertion Distribution: 
	LOAD 39023 0 7336 139 
	RFO 16554 0 31622 31974 
	PREF 0 18955 55043 91657 
	WRITEBACK 0 0 0 37691 
Total Prefetch Downgrades: 29335
