
*** ChampSim Multicore Out-of-Order Simulator ***

Warmup Instructions: 10000000
Simulation Instructions: 100000000
Configuration: 2
Number of CPUs: 1
LLC sets: 2048
LLC ways: 16
Off-chip DRAM Channels: 1 Width: 64-bit Data Rate: 1600 MT/s

CPU 0 runs /datasets/cs240c-wi22-a00-public/data/Assignment2-gz/perlbench_135B.trace.gz
CPU 0 L1D next line prefetcher
CPU 0 L2C IP-based stride prefetcher
Initialize SRRIP state
Heartbeat CPU 0 instructions: 1000000 cycles: 600033 heartbeat IPC: 1.66657 cumulative IPC: 1.66657 (Simulation time: 0 hr 0 min 48 sec) 
Heartbeat CPU 0 instructions: 2000000 cycles: 1209304 heartbeat IPC: 1.64131 cumulative IPC: 1.65384 (Simulation time: 0 hr 1 min 42 sec) 
Heartbeat CPU 0 instructions: 3000000 cycles: 1832837 heartbeat IPC: 1.60376 cumulative IPC: 1.63681 (Simulation time: 0 hr 2 min 31 sec) 
Heartbeat CPU 0 instructions: 4000000 cycles: 2492645 heartbeat IPC: 1.51559 cumulative IPC: 1.60472 (Simulation time: 0 hr 3 min 24 sec) 
Heartbeat CPU 0 instructions: 5000001 cycles: 3079308 heartbeat IPC: 1.70456 cumulative IPC: 1.62374 (Simulation time: 0 hr 4 min 8 sec) 
Heartbeat CPU 0 instructions: 6000002 cycles: 3681733 heartbeat IPC: 1.65996 cumulative IPC: 1.62967 (Simulation time: 0 hr 4 min 58 sec) 
Heartbeat CPU 0 instructions: 7000001 cycles: 4282494 heartbeat IPC: 1.66455 cumulative IPC: 1.63456 (Simulation time: 0 hr 5 min 48 sec) 
Heartbeat CPU 0 instructions: 8000000 cycles: 4892986 heartbeat IPC: 1.63802 cumulative IPC: 1.63499 (Simulation time: 0 hr 6 min 39 sec) 
Heartbeat CPU 0 instructions: 9000001 cycles: 5534101 heartbeat IPC: 1.55978 cumulative IPC: 1.62628 (Simulation time: 0 hr 7 min 28 sec) 
Heartbeat CPU 0 instructions: 10000000 cycles: 6192790 heartbeat IPC: 1.51817 cumulative IPC: 1.61478 (Simulation time: 0 hr 8 min 18 sec) 

Warmup complete CPU 0 instructions: 10000004 cycles: 6192791 (Simulation time: 0 hr 8 min 18 sec) 

Heartbeat CPU 0 instructions: 11000003 cycles: 8935360 heartbeat IPC: 0.364623 cumulative IPC: 0.364621 (Simulation time: 0 hr 9 min 28 sec) 
Heartbeat CPU 0 instructions: 12000000 cycles: 11272747 heartbeat IPC: 0.427827 cumulative IPC: 0.393703 (Simulation time: 0 hr 10 min 34 sec) 
Heartbeat CPU 0 instructions: 13000000 cycles: 13823977 heartbeat IPC: 0.391968 cumulative IPC: 0.393123 (Simulation time: 0 hr 11 min 41 sec) 
Heartbeat CPU 0 instructions: 14000000 cycles: 16830217 heartbeat IPC: 0.332641 cumulative IPC: 0.37603 (Simulation time: 0 hr 12 min 44 sec) 
Heartbeat CPU 0 instructions: 15000003 cycles: 19507990 heartbeat IPC: 0.373446 cumulative IPC: 0.375511 (Simulation time: 0 hr 13 min 50 sec) 
Heartbeat CPU 0 instructions: 16000000 cycles: 22141666 heartbeat IPC: 0.379696 cumulative IPC: 0.376202 (Simulation time: 0 hr 14 min 56 sec) 
Heartbeat CPU 0 instructions: 17000000 cycles: 24843154 heartbeat IPC: 0.370166 cumulative IPC: 0.375328 (Simulation time: 0 hr 16 min 2 sec) 
Heartbeat CPU 0 instructions: 18000000 cycles: 27525705 heartbeat IPC: 0.372779 cumulative IPC: 0.375007 (Simulation time: 0 hr 17 min 7 sec) 
Heartbeat CPU 0 instructions: 19000003 cycles: 30156426 heartbeat IPC: 0.380125 cumulative IPC: 0.375569 (Simulation time: 0 hr 18 min 16 sec) 
Heartbeat CPU 0 instructions: 20000000 cycles: 32793967 heartbeat IPC: 0.37914 cumulative IPC: 0.375923 (Simulation time: 0 hr 19 min 27 sec) 
Heartbeat CPU 0 instructions: 21000000 cycles: 35419223 heartbeat IPC: 0.380915 cumulative IPC: 0.376372 (Simulation time: 0 hr 20 min 40 sec) 
Heartbeat CPU 0 instructions: 22000002 cycles: 38046406 heartbeat IPC: 0.380637 cumulative IPC: 0.376723 (Simulation time: 0 hr 21 min 50 sec) 
Heartbeat CPU 0 instructions: 23000003 cycles: 40704676 heartbeat IPC: 0.376185 cumulative IPC: 0.376682 (Simulation time: 0 hr 23 min 10 sec) 
Heartbeat CPU 0 instructions: 24000000 cycles: 42802576 heartbeat IPC: 0.476666 cumulative IPC: 0.382411 (Simulation time: 0 hr 24 min 14 sec) 
Heartbeat CPU 0 instructions: 25000000 cycles: 45408577 heartbeat IPC: 0.38373 cumulative IPC: 0.382499 (Simulation time: 0 hr 25 min 32 sec) 
Heartbeat CPU 0 instructions: 26000001 cycles: 47963163 heartbeat IPC: 0.391453 cumulative IPC: 0.383047 (Simulation time: 0 hr 26 min 32 sec) 
Heartbeat CPU 0 instructions: 27000000 cycles: 50627519 heartbeat IPC: 0.375325 cumulative IPC: 0.382584 (Simulation time: 0 hr 27 min 32 sec) 
Heartbeat CPU 0 instructions: 28000000 cycles: 53267336 heartbeat IPC: 0.378814 cumulative IPC: 0.382372 (Simulation time: 0 hr 28 min 31 sec) 
Heartbeat CPU 0 instructions: 29000000 cycles: 55893728 heartbeat IPC: 0.38075 cumulative IPC: 0.382286 (Simulation time: 0 hr 29 min 28 sec) 
Heartbeat CPU 0 instructions: 30000000 cycles: 58609093 heartbeat IPC: 0.368275 cumulative IPC: 0.381561 (Simulation time: 0 hr 30 min 27 sec) 
Heartbeat CPU 0 instructions: 31000001 cycles: 61246247 heartbeat IPC: 0.379197 cumulative IPC: 0.381447 (Simulation time: 0 hr 31 min 24 sec) 
Heartbeat CPU 0 instructions: 32000000 cycles: 63897328 heartbeat IPC: 0.377204 cumulative IPC: 0.381252 (Simulation time: 0 hr 32 min 21 sec) 
Heartbeat CPU 0 instructions: 33000000 cycles: 66524128 heartbeat IPC: 0.380691 cumulative IPC: 0.381228 (Simulation time: 0 hr 33 min 19 sec) 
Heartbeat CPU 0 instructions: 34000001 cycles: 69133719 heartbeat IPC: 0.383202 cumulative IPC: 0.38131 (Simulation time: 0 hr 34 min 15 sec) 
Heartbeat CPU 0 instructions: 35000003 cycles: 71784321 heartbeat IPC: 0.377274 cumulative IPC: 0.381147 (Simulation time: 0 hr 35 min 13 sec) 
Heartbeat CPU 0 instructions: 36000000 cycles: 74088225 heartbeat IPC: 0.434045 cumulative IPC: 0.382942 (Simulation time: 0 hr 36 min 9 sec) 
Heartbeat CPU 0 instructions: 37000000 cycles: 76376625 heartbeat IPC: 0.436987 cumulative IPC: 0.384704 (Simulation time: 0 hr 37 min 9 sec) 
Heartbeat CPU 0 instructions: 38000000 cycles: 78464901 heartbeat IPC: 0.478864 cumulative IPC: 0.387425 (Simulation time: 0 hr 38 min 3 sec) 
Heartbeat CPU 0 instructions: 39000000 cycles: 80759984 heartbeat IPC: 0.435714 cumulative IPC: 0.388911 (Simulation time: 0 hr 38 min 58 sec) 
Heartbeat CPU 0 instructions: 40000000 cycles: 82713367 heartbeat IPC: 0.511932 cumulative IPC: 0.392051 (Simulation time: 0 hr 39 min 49 sec) 
Heartbeat CPU 0 instructions: 41000001 cycles: 84794843 heartbeat IPC: 0.480429 cumulative IPC: 0.394392 (Simulation time: 0 hr 40 min 39 sec) 
Heartbeat CPU 0 instructions: 42000003 cycles: 87413981 heartbeat IPC: 0.381806 cumulative IPC: 0.393986 (Simulation time: 0 hr 41 min 33 sec) 
Heartbeat CPU 0 instructions: 43000001 cycles: 89976569 heartbeat IPC: 0.39023 cumulative IPC: 0.393871 (Simulation time: 0 hr 42 min 36 sec) 
Heartbeat CPU 0 instructions: 44000000 cycles: 92270565 heartbeat IPC: 0.43592 cumulative IPC: 0.394992 (Simulation time: 0 hr 43 min 35 sec) 
Heartbeat CPU 0 instructions: 45000003 cycles: 94900636 heartbeat IPC: 0.380219 cumulative IPC: 0.394554 (Simulation time: 0 hr 44 min 35 sec) 
Heartbeat CPU 0 instructions: 46000003 cycles: 97572934 heartbeat IPC: 0.37421 cumulative IPC: 0.393959 (Simulation time: 0 hr 45 min 26 sec) 
Heartbeat CPU 0 instructions: 47000000 cycles: 100199943 heartbeat IPC: 0.38066 cumulative IPC: 0.393587 (Simulation time: 0 hr 46 min 24 sec) 
Heartbeat CPU 0 instructions: 48000000 cycles: 102813059 heartbeat IPC: 0.382685 cumulative IPC: 0.393292 (Simulation time: 0 hr 47 min 19 sec) 
Heartbeat CPU 0 instructions: 49000000 cycles: 105481241 heartbeat IPC: 0.374787 cumulative IPC: 0.392795 (Simulation time: 0 hr 48 min 15 sec) 
Heartbeat CPU 0 instructions: 50000001 cycles: 108106515 heartbeat IPC: 0.380913 cumulative IPC: 0.392489 (Simulation time: 0 hr 49 min 18 sec) 
Heartbeat CPU 0 instructions: 51000000 cycles: 110724975 heartbeat IPC: 0.381903 cumulative IPC: 0.392224 (Simulation time: 0 hr 50 min 22 sec) 
Heartbeat CPU 0 instructions: 52000000 cycles: 113335667 heartbeat IPC: 0.38304 cumulative IPC: 0.392 (Simulation time: 0 hr 51 min 18 sec) 
Heartbeat CPU 0 instructions: 53000000 cycles: 115919917 heartbeat IPC: 0.386959 cumulative IPC: 0.391881 (Simulation time: 0 hr 52 min 13 sec) 
Heartbeat CPU 0 instructions: 54000001 cycles: 118559231 heartbeat IPC: 0.378887 cumulative IPC: 0.391576 (Simulation time: 0 hr 53 min 10 sec) 
Heartbeat CPU 0 instructions: 55000001 cycles: 121006077 heartbeat IPC: 0.408689 cumulative IPC: 0.391941 (Simulation time: 0 hr 54 min 12 sec) 
Heartbeat CPU 0 instructions: 56000000 cycles: 123129641 heartbeat IPC: 0.470906 cumulative IPC: 0.393375 (Simulation time: 0 hr 55 min 8 sec) 
Heartbeat CPU 0 instructions: 57000000 cycles: 125330775 heartbeat IPC: 0.454311 cumulative IPC: 0.394501 (Simulation time: 0 hr 56 min 2 sec) 
Heartbeat CPU 0 instructions: 58000002 cycles: 127278564 heartbeat IPC: 0.513404 cumulative IPC: 0.396413 (Simulation time: 0 hr 56 min 50 sec) 
Heartbeat CPU 0 instructions: 59000003 cycles: 129397279 heartbeat IPC: 0.471985 cumulative IPC: 0.397713 (Simulation time: 0 hr 57 min 41 sec) 
Heartbeat CPU 0 instructions: 60000000 cycles: 132350566 heartbeat IPC: 0.338605 cumulative IPC: 0.396329 (Simulation time: 0 hr 58 min 35 sec) 
Heartbeat CPU 0 instructions: 61000000 cycles: 134764764 heartbeat IPC: 0.414216 cumulative IPC: 0.396665 (Simulation time: 0 hr 59 min 31 sec) 
Heartbeat CPU 0 instructions: 62000001 cycles: 137548370 heartbeat IPC: 0.359247 cumulative IPC: 0.395872 (Simulation time: 1 hr 0 min 25 sec) 
Heartbeat CPU 0 instructions: 63000000 cycles: 140484154 heartbeat IPC: 0.340624 cumulative IPC: 0.394664 (Simulation time: 1 hr 1 min 20 sec) 
Heartbeat CPU 0 instructions: 64000000 cycles: 143397267 heartbeat IPC: 0.343275 cumulative IPC: 0.393573 (Simulation time: 1 hr 2 min 13 sec) 
Heartbeat CPU 0 instructions: 65000001 cycles: 146284430 heartbeat IPC: 0.346361 cumulative IPC: 0.3926 (Simulation time: 1 hr 3 min 9 sec) 
Heartbeat CPU 0 instructions: 66000001 cycles: 149145051 heartbeat IPC: 0.349574 cumulative IPC: 0.391739 (Simulation time: 1 hr 4 min 1 sec) 
Heartbeat CPU 0 instructions: 67000001 cycles: 151868803 heartbeat IPC: 0.367141 cumulative IPC: 0.391279 (Simulation time: 1 hr 4 min 53 sec) 
Heartbeat CPU 0 instructions: 68000000 cycles: 154598014 heartbeat IPC: 0.366406 cumulative IPC: 0.390822 (Simulation time: 1 hr 5 min 47 sec) 
Heartbeat CPU 0 instructions: 69000002 cycles: 157544349 heartbeat IPC: 0.339405 cumulative IPC: 0.389821 (Simulation time: 1 hr 6 min 43 sec) 
Heartbeat CPU 0 instructions: 70000003 cycles: 159346388 heartbeat IPC: 0.554928 cumulative IPC: 0.391764 (Simulation time: 1 hr 7 min 23 sec) 
Heartbeat CPU 0 instructions: 71000000 cycles: 161266133 heartbeat IPC: 0.520901 cumulative IPC: 0.393362 (Simulation time: 1 hr 8 min 5 sec) 
Heartbeat CPU 0 instructions: 72000000 cycles: 163252814 heartbeat IPC: 0.503352 cumulative IPC: 0.394754 (Simulation time: 1 hr 8 min 46 sec) 
Heartbeat CPU 0 instructions: 73000000 cycles: 165522271 heartbeat IPC: 0.440634 cumulative IPC: 0.395407 (Simulation time: 1 hr 9 min 31 sec) 
Heartbeat CPU 0 instructions: 74000000 cycles: 167440817 heartbeat IPC: 0.521228 cumulative IPC: 0.396904 (Simulation time: 1 hr 10 min 11 sec) 
Heartbeat CPU 0 instructions: 75000003 cycles: 169674041 heartbeat IPC: 0.447784 cumulative IPC: 0.397599 (Simulation time: 1 hr 10 min 50 sec) 
Heartbeat CPU 0 instructions: 76000000 cycles: 172411607 heartbeat IPC: 0.365287 cumulative IPC: 0.397067 (Simulation time: 1 hr 11 min 33 sec) 
Heartbeat CPU 0 instructions: 77000000 cycles: 175100853 heartbeat IPC: 0.371851 cumulative IPC: 0.396665 (Simulation time: 1 hr 12 min 16 sec) 
Heartbeat CPU 0 instructions: 78000000 cycles: 178045673 heartbeat IPC: 0.339579 cumulative IPC: 0.395687 (Simulation time: 1 hr 13 min 0 sec) 
Heartbeat CPU 0 instructions: 79000000 cycles: 179901134 heartbeat IPC: 0.53895 cumulative IPC: 0.397218 (Simulation time: 1 hr 13 min 37 sec) 
Heartbeat CPU 0 instructions: 80000000 cycles: 181684677 heartbeat IPC: 0.560682 cumulative IPC: 0.398879 (Simulation time: 1 hr 14 min 10 sec) 
Heartbeat CPU 0 instructions: 81000000 cycles: 183606073 heartbeat IPC: 0.520455 cumulative IPC: 0.400195 (Simulation time: 1 hr 14 min 43 sec) 
Heartbeat CPU 0 instructions: 82000000 cycles: 185523612 heartbeat IPC: 0.521502 cumulative IPC: 0.401493 (Simulation time: 1 hr 15 min 15 sec) 
Heartbeat CPU 0 instructions: 83000000 cycles: 187847785 heartbeat IPC: 0.430261 cumulative IPC: 0.401861 (Simulation time: 1 hr 15 min 51 sec) 
Heartbeat CPU 0 instructions: 84000000 cycles: 189799769 heartbeat IPC: 0.512299 cumulative IPC: 0.403035 (Simulation time: 1 hr 16 min 23 sec) 
Heartbeat CPU 0 instructions: 85000000 cycles: 191720893 heartbeat IPC: 0.520529 cumulative IPC: 0.404251 (Simulation time: 1 hr 16 min 51 sec) 
Heartbeat CPU 0 instructions: 86000002 cycles: 193639422 heartbeat IPC: 0.521234 cumulative IPC: 0.405449 (Simulation time: 1 hr 17 min 19 sec) 
Heartbeat CPU 0 instructions: 87000003 cycles: 195804633 heartbeat IPC: 0.461849 cumulative IPC: 0.406093 (Simulation time: 1 hr 17 min 47 sec) 
Heartbeat CPU 0 instructions: 88000000 cycles: 198574491 heartbeat IPC: 0.361028 cumulative IPC: 0.405444 (Simulation time: 1 hr 18 min 18 sec) 
Heartbeat CPU 0 instructions: 89000003 cycles: 201137588 heartbeat IPC: 0.390154 cumulative IPC: 0.405243 (Simulation time: 1 hr 18 min 50 sec) 
Heartbeat CPU 0 instructions: 90000001 cycles: 204008809 heartbeat IPC: 0.348283 cumulative IPC: 0.404416 (Simulation time: 1 hr 19 min 23 sec) 
Heartbeat CPU 0 instructions: 91000000 cycles: 206484523 heartbeat IPC: 0.403923 cumulative IPC: 0.40441 (Simulation time: 1 hr 19 min 53 sec) 
Heartbeat CPU 0 instructions: 92000000 cycles: 208935714 heartbeat IPC: 0.407965 cumulative IPC: 0.404453 (Simulation time: 1 hr 20 min 22 sec) 
Heartbeat CPU 0 instructions: 93000000 cycles: 211629998 heartbeat IPC: 0.371156 cumulative IPC: 0.404016 (Simulation time: 1 hr 20 min 49 sec) 
Heartbeat CPU 0 instructions: 94000001 cycles: 214290211 heartbeat IPC: 0.37591 cumulative IPC: 0.403657 (Simulation time: 1 hr 21 min 15 sec) 
Heartbeat CPU 0 instructions: 95000000 cycles: 217136440 heartbeat IPC: 0.351342 cumulative IPC: 0.402951 (Simulation time: 1 hr 21 min 40 sec) 
Heartbeat CPU 0 instructions: 96000000 cycles: 220175494 heartbeat IPC: 0.32905 cumulative IPC: 0.401902 (Simulation time: 1 hr 22 min 5 sec) 
Heartbeat CPU 0 instructions: 97000001 cycles: 223105084 heartbeat IPC: 0.341345 cumulative IPC: 0.401084 (Simulation time: 1 hr 22 min 28 sec) 
Heartbeat CPU 0 instructions: 98000000 cycles: 225761217 heartbeat IPC: 0.376487 cumulative IPC: 0.400786 (Simulation time: 1 hr 22 min 50 sec) 
Heartbeat CPU 0 instructions: 99000000 cycles: 228358624 heartbeat IPC: 0.384999 cumulative IPC: 0.400602 (Simulation time: 1 hr 23 min 11 sec) 
Heartbeat CPU 0 instructions: 100000000 cycles: 230980874 heartbeat IPC: 0.381352 cumulative IPC: 0.400377 (Simulation time: 1 hr 23 min 30 sec) 
Heartbeat CPU 0 instructions: 101000001 cycles: 233581312 heartbeat IPC: 0.384551 cumulative IPC: 0.400196 (Simulation time: 1 hr 23 min 48 sec) 
Heartbeat CPU 0 instructions: 102000000 cycles: 236207807 heartbeat IPC: 0.380735 cumulative IPC: 0.399974 (Simulation time: 1 hr 24 min 4 sec) 
Heartbeat CPU 0 instructions: 103000000 cycles: 238854515 heartbeat IPC: 0.377828 cumulative IPC: 0.399722 (Simulation time: 1 hr 24 min 22 sec) 
Heartbeat CPU 0 instructions: 104000000 cycles: 241581024 heartbeat IPC: 0.366769 cumulative IPC: 0.39934 (Simulation time: 1 hr 24 min 37 sec) 
Heartbeat CPU 0 instructions: 105000001 cycles: 244185065 heartbeat IPC: 0.384019 cumulative IPC: 0.399173 (Simulation time: 1 hr 24 min 50 sec) 
Heartbeat CPU 0 instructions: 106000001 cycles: 246802959 heartbeat IPC: 0.381986 cumulative IPC: 0.398986 (Simulation time: 1 hr 25 min 2 sec) 
Heartbeat CPU 0 instructions: 107000000 cycles: 249417352 heartbeat IPC: 0.382498 cumulative IPC: 0.398808 (Simulation time: 1 hr 25 min 13 sec) 
Heartbeat CPU 0 instructions: 108000000 cycles: 252028272 heartbeat IPC: 0.383007 cumulative IPC: 0.398641 (Simulation time: 1 hr 25 min 22 sec) 
Heartbeat CPU 0 instructions: 109000001 cycles: 254602172 heartbeat IPC: 0.388516 cumulative IPC: 0.398536 (Simulation time: 1 hr 25 min 32 sec) 
Heartbeat CPU 0 instructions: 110000003 cycles: 256755014 heartbeat IPC: 0.464503 cumulative IPC: 0.399102 (Simulation time: 1 hr 25 min 39 sec) 
Finished CPU 0 instructions: 100000003 cycles: 250562224 cummulative IPC: 0.399102 (Simulation time: 1 hr 25 min 39 sec) 

ChampSim completed all CPUs

Region of Interest Statistics

CPU 0 cummulative IPC: 0.399102 instructions: 100000003 cycles: 250562224
LLC TOTAL     ACCESS:     635546  HIT:     578412  MISS:      57134
LLC LOAD      ACCESS:     295081  HIT:     285445  MISS:       9636
LLC RFO       ACCESS:      30363  HIT:      25509  MISS:       4854
LLC PREFETCH  ACCESS:     206820  HIT:     165848  MISS:      40972
LLC WRITEBACK ACCESS:     103282  HIT:     101610  MISS:       1672
Insertion Distribution: 
	LOAD 4909 0 18307 597 
	RFO 225 0 4583 1810 
	PREF 0 2778 24309 26711 
	WRITEBACK 0 0 0 1979 
Total Prefetch Downgrades: 3384
