
*** ChampSim Multicore Out-of-Order Simulator ***

Warmup Instructions: 10000000
Simulation Instructions: 100000000
Configuration: 2
Number of CPUs: 1
LLC sets: 2048
LLC ways: 16
Off-chip DRAM Channels: 1 Width: 64-bit Data Rate: 1600 MT/s

CPU 0 runs /datasets/cs240c-wi22-a00-public/data/Assignment2-gz/libquantum_964B.trace.gz
CPU 0 L1D next line prefetcher
CPU 0 L2C IP-based stride prefetcher
Initialize SRRIP state
Heartbeat CPU 0 instructions: 1000002 cycles: 333341 heartbeat IPC: 2.99994 cumulative IPC: 2.99994 (Simulation time: 0 hr 0 min 25 sec) 
Heartbeat CPU 0 instructions: 2000001 cycles: 666674 heartbeat IPC: 3 cumulative IPC: 2.99997 (Simulation time: 0 hr 0 min 49 sec) 
Heartbeat CPU 0 instructions: 3000000 cycles: 1000007 heartbeat IPC: 3 cumulative IPC: 2.99998 (Simulation time: 0 hr 1 min 13 sec) 
Heartbeat CPU 0 instructions: 4000000 cycles: 1333341 heartbeat IPC: 2.99999 cumulative IPC: 2.99998 (Simulation time: 0 hr 1 min 37 sec) 
Heartbeat CPU 0 instructions: 5000000 cycles: 1666674 heartbeat IPC: 3 cumulative IPC: 2.99999 (Simulation time: 0 hr 2 min 2 sec) 
Heartbeat CPU 0 instructions: 6000002 cycles: 2000008 heartbeat IPC: 3 cumulative IPC: 2.99999 (Simulation time: 0 hr 2 min 30 sec) 
Heartbeat CPU 0 instructions: 7000001 cycles: 2331518 heartbeat IPC: 3.0165 cumulative IPC: 3.00234 (Simulation time: 0 hr 2 min 53 sec) 
Heartbeat CPU 0 instructions: 8000000 cycles: 2662240 heartbeat IPC: 3.02368 cumulative IPC: 3.00499 (Simulation time: 0 hr 3 min 19 sec) 
Heartbeat CPU 0 instructions: 9000001 cycles: 2992962 heartbeat IPC: 3.02369 cumulative IPC: 3.00705 (Simulation time: 0 hr 3 min 45 sec) 
Heartbeat CPU 0 instructions: 10000001 cycles: 3323684 heartbeat IPC: 3.02369 cumulative IPC: 3.00871 (Simulation time: 0 hr 4 min 11 sec) 

Warmup complete CPU 0 instructions: 10000001 cycles: 3323684 (Simulation time: 0 hr 4 min 11 sec) 

Heartbeat CPU 0 instructions: 11000000 cycles: 5060059 heartbeat IPC: 0.575912 cumulative IPC: 0.575912 (Simulation time: 0 hr 4 min 53 sec) 
Heartbeat CPU 0 instructions: 12000000 cycles: 6808477 heartbeat IPC: 0.571946 cumulative IPC: 0.573922 (Simulation time: 0 hr 5 min 36 sec) 
Heartbeat CPU 0 instructions: 13000001 cycles: 8552271 heartbeat IPC: 0.573463 cumulative IPC: 0.573769 (Simulation time: 0 hr 6 min 16 sec) 
Heartbeat CPU 0 instructions: 14000000 cycles: 10294197 heartbeat IPC: 0.574077 cumulative IPC: 0.573846 (Simulation time: 0 hr 6 min 57 sec) 
Heartbeat CPU 0 instructions: 15000003 cycles: 12041297 heartbeat IPC: 0.572379 cumulative IPC: 0.573552 (Simulation time: 0 hr 7 min 34 sec) 
Heartbeat CPU 0 instructions: 16000000 cycles: 13781303 heartbeat IPC: 0.574709 cumulative IPC: 0.573744 (Simulation time: 0 hr 8 min 14 sec) 
Heartbeat CPU 0 instructions: 17000000 cycles: 15531627 heartbeat IPC: 0.571323 cumulative IPC: 0.573397 (Simulation time: 0 hr 8 min 57 sec) 
Heartbeat CPU 0 instructions: 18000003 cycles: 17268988 heartbeat IPC: 0.575587 cumulative IPC: 0.57367 (Simulation time: 0 hr 9 min 37 sec) 
Heartbeat CPU 0 instructions: 19000002 cycles: 19001322 heartbeat IPC: 0.577255 cumulative IPC: 0.574066 (Simulation time: 0 hr 10 min 18 sec) 
Heartbeat CPU 0 instructions: 20000000 cycles: 20192266 heartbeat IPC: 0.839668 cumulative IPC: 0.592818 (Simulation time: 0 hr 10 min 54 sec) 
Heartbeat CPU 0 instructions: 21000003 cycles: 21922665 heartbeat IPC: 0.577903 cumulative IPC: 0.59143 (Simulation time: 0 hr 11 min 36 sec) 
Heartbeat CPU 0 instructions: 22000002 cycles: 23668305 heartbeat IPC: 0.572855 cumulative IPC: 0.589837 (Simulation time: 0 hr 12 min 16 sec) 
Heartbeat CPU 0 instructions: 23000000 cycles: 25409828 heartbeat IPC: 0.574209 cumulative IPC: 0.588604 (Simulation time: 0 hr 12 min 58 sec) 
Heartbeat CPU 0 instructions: 24000000 cycles: 27163131 heartbeat IPC: 0.570352 cumulative IPC: 0.587262 (Simulation time: 0 hr 13 min 40 sec) 
Heartbeat CPU 0 instructions: 25000000 cycles: 28904523 heartbeat IPC: 0.574253 cumulative IPC: 0.586376 (Simulation time: 0 hr 14 min 19 sec) 
Heartbeat CPU 0 instructions: 26000002 cycles: 30881441 heartbeat IPC: 0.505839 cumulative IPC: 0.580599 (Simulation time: 0 hr 15 min 8 sec) 
Heartbeat CPU 0 instructions: 27000002 cycles: 33243213 heartbeat IPC: 0.423411 cumulative IPC: 0.568191 (Simulation time: 0 hr 16 min 3 sec) 
Heartbeat CPU 0 instructions: 28000000 cycles: 35599570 heartbeat IPC: 0.424383 cumulative IPC: 0.557692 (Simulation time: 0 hr 16 min 58 sec) 
Heartbeat CPU 0 instructions: 29000002 cycles: 37966604 heartbeat IPC: 0.42247 cumulative IPC: 0.548453 (Simulation time: 0 hr 17 min 52 sec) 
Heartbeat CPU 0 instructions: 30000002 cycles: 40332416 heartbeat IPC: 0.422688 cumulative IPC: 0.540413 (Simulation time: 0 hr 18 min 43 sec) 
Heartbeat CPU 0 instructions: 31000002 cycles: 42695887 heartbeat IPC: 0.423107 cumulative IPC: 0.533371 (Simulation time: 0 hr 19 min 36 sec) 
Heartbeat CPU 0 instructions: 32000000 cycles: 45049117 heartbeat IPC: 0.424947 cumulative IPC: 0.527256 (Simulation time: 0 hr 20 min 32 sec) 
Heartbeat CPU 0 instructions: 33000002 cycles: 47013927 heartbeat IPC: 0.508956 cumulative IPC: 0.526433 (Simulation time: 0 hr 21 min 19 sec) 
Heartbeat CPU 0 instructions: 34000002 cycles: 49367080 heartbeat IPC: 0.424962 cumulative IPC: 0.521247 (Simulation time: 0 hr 22 min 13 sec) 
Heartbeat CPU 0 instructions: 35000002 cycles: 51727102 heartbeat IPC: 0.423725 cumulative IPC: 0.516492 (Simulation time: 0 hr 23 min 5 sec) 
Heartbeat CPU 0 instructions: 36000000 cycles: 53845095 heartbeat IPC: 0.472144 cumulative IPC: 0.514633 (Simulation time: 0 hr 23 min 57 sec) 
Heartbeat CPU 0 instructions: 37000001 cycles: 55605839 heartbeat IPC: 0.567942 cumulative IPC: 0.516429 (Simulation time: 0 hr 24 min 42 sec) 
Heartbeat CPU 0 instructions: 38000000 cycles: 57105160 heartbeat IPC: 0.666968 cumulative IPC: 0.520625 (Simulation time: 0 hr 25 min 22 sec) 
Heartbeat CPU 0 instructions: 39000003 cycles: 58571326 heartbeat IPC: 0.682053 cumulative IPC: 0.524909 (Simulation time: 0 hr 26 min 6 sec) 
Heartbeat CPU 0 instructions: 40000000 cycles: 60037408 heartbeat IPC: 0.682088 cumulative IPC: 0.528972 (Simulation time: 0 hr 26 min 48 sec) 
Heartbeat CPU 0 instructions: 41000001 cycles: 61503628 heartbeat IPC: 0.682027 cumulative IPC: 0.53283 (Simulation time: 0 hr 27 min 30 sec) 
Heartbeat CPU 0 instructions: 42000000 cycles: 62969718 heartbeat IPC: 0.682086 cumulative IPC: 0.536498 (Simulation time: 0 hr 28 min 15 sec) 
Heartbeat CPU 0 instructions: 43000001 cycles: 64435881 heartbeat IPC: 0.682053 cumulative IPC: 0.53999 (Simulation time: 0 hr 28 min 59 sec) 
Heartbeat CPU 0 instructions: 44000000 cycles: 65901964 heartbeat IPC: 0.682089 cumulative IPC: 0.543319 (Simulation time: 0 hr 29 min 42 sec) 
Heartbeat CPU 0 instructions: 45000002 cycles: 67368071 heartbeat IPC: 0.68208 cumulative IPC: 0.546496 (Simulation time: 0 hr 30 min 25 sec) 
Heartbeat CPU 0 instructions: 46000001 cycles: 68834252 heartbeat IPC: 0.682043 cumulative IPC: 0.54953 (Simulation time: 0 hr 31 min 8 sec) 
Heartbeat CPU 0 instructions: 47000000 cycles: 70300342 heartbeat IPC: 0.682086 cumulative IPC: 0.552431 (Simulation time: 0 hr 31 min 49 sec) 
Heartbeat CPU 0 instructions: 48000000 cycles: 71766506 heartbeat IPC: 0.682052 cumulative IPC: 0.555208 (Simulation time: 0 hr 32 min 31 sec) 
Heartbeat CPU 0 instructions: 49000002 cycles: 73233623 heartbeat IPC: 0.68161 cumulative IPC: 0.557861 (Simulation time: 0 hr 33 min 13 sec) 
Heartbeat CPU 0 instructions: 50000001 cycles: 74687243 heartbeat IPC: 0.687937 cumulative IPC: 0.56051 (Simulation time: 0 hr 33 min 56 sec) 
Heartbeat CPU 0 instructions: 51000000 cycles: 76153333 heartbeat IPC: 0.682086 cumulative IPC: 0.562958 (Simulation time: 0 hr 34 min 39 sec) 
Heartbeat CPU 0 instructions: 52000000 cycles: 77619598 heartbeat IPC: 0.682005 cumulative IPC: 0.565307 (Simulation time: 0 hr 35 min 20 sec) 
Heartbeat CPU 0 instructions: 53000000 cycles: 79085804 heartbeat IPC: 0.682032 cumulative IPC: 0.567566 (Simulation time: 0 hr 36 min 2 sec) 
Heartbeat CPU 0 instructions: 54000002 cycles: 80551890 heartbeat IPC: 0.68209 cumulative IPC: 0.56974 (Simulation time: 0 hr 36 min 44 sec) 
Heartbeat CPU 0 instructions: 55000002 cycles: 81999488 heartbeat IPC: 0.6908 cumulative IPC: 0.571967 (Simulation time: 0 hr 37 min 24 sec) 
Heartbeat CPU 0 instructions: 56000000 cycles: 83507744 heartbeat IPC: 0.663016 cumulative IPC: 0.57368 (Simulation time: 0 hr 38 min 1 sec) 
Heartbeat CPU 0 instructions: 57000001 cycles: 85266748 heartbeat IPC: 0.568504 cumulative IPC: 0.573569 (Simulation time: 0 hr 38 min 42 sec) 
Heartbeat CPU 0 instructions: 58000000 cycles: 87013640 heartbeat IPC: 0.572445 cumulative IPC: 0.573546 (Simulation time: 0 hr 39 min 20 sec) 
Heartbeat CPU 0 instructions: 59000003 cycles: 88766119 heartbeat IPC: 0.570622 cumulative IPC: 0.573486 (Simulation time: 0 hr 40 min 2 sec) 
Heartbeat CPU 0 instructions: 60000000 cycles: 90514849 heartbeat IPC: 0.571842 cumulative IPC: 0.573453 (Simulation time: 0 hr 40 min 41 sec) 
Heartbeat CPU 0 instructions: 61000002 cycles: 92261510 heartbeat IPC: 0.572522 cumulative IPC: 0.573434 (Simulation time: 0 hr 41 min 20 sec) 
Heartbeat CPU 0 instructions: 62000001 cycles: 94011500 heartbeat IPC: 0.571431 cumulative IPC: 0.573396 (Simulation time: 0 hr 41 min 59 sec) 
Heartbeat CPU 0 instructions: 63000001 cycles: 95755702 heartbeat IPC: 0.573328 cumulative IPC: 0.573394 (Simulation time: 0 hr 42 min 38 sec) 
Heartbeat CPU 0 instructions: 64000000 cycles: 97509603 heartbeat IPC: 0.570157 cumulative IPC: 0.573334 (Simulation time: 0 hr 43 min 18 sec) 
Heartbeat CPU 0 instructions: 65000002 cycles: 99258901 heartbeat IPC: 0.571659 cumulative IPC: 0.573304 (Simulation time: 0 hr 43 min 56 sec) 
Heartbeat CPU 0 instructions: 66000002 cycles: 101006609 heartbeat IPC: 0.572178 cumulative IPC: 0.573283 (Simulation time: 0 hr 44 min 37 sec) 
Heartbeat CPU 0 instructions: 67000000 cycles: 102756590 heartbeat IPC: 0.571434 cumulative IPC: 0.573251 (Simulation time: 0 hr 45 min 18 sec) 
Heartbeat CPU 0 instructions: 68000000 cycles: 104505148 heartbeat IPC: 0.5719 cumulative IPC: 0.573228 (Simulation time: 0 hr 45 min 59 sec) 
Heartbeat CPU 0 instructions: 69000000 cycles: 106233032 heartbeat IPC: 0.578743 cumulative IPC: 0.57332 (Simulation time: 0 hr 46 min 41 sec) 
Heartbeat CPU 0 instructions: 70000002 cycles: 107980656 heartbeat IPC: 0.572207 cumulative IPC: 0.573301 (Simulation time: 0 hr 47 min 24 sec) 
Heartbeat CPU 0 instructions: 71000001 cycles: 109732813 heartbeat IPC: 0.570725 cumulative IPC: 0.573259 (Simulation time: 0 hr 48 min 7 sec) 
Heartbeat CPU 0 instructions: 72000000 cycles: 111483732 heartbeat IPC: 0.571128 cumulative IPC: 0.573225 (Simulation time: 0 hr 48 min 47 sec) 
Heartbeat CPU 0 instructions: 73000000 cycles: 113231295 heartbeat IPC: 0.572225 cumulative IPC: 0.573209 (Simulation time: 0 hr 49 min 28 sec) 
Heartbeat CPU 0 instructions: 74000000 cycles: 115010519 heartbeat IPC: 0.562043 cumulative IPC: 0.573031 (Simulation time: 0 hr 50 min 9 sec) 
Heartbeat CPU 0 instructions: 75000000 cycles: 117126396 heartbeat IPC: 0.472617 cumulative IPC: 0.571164 (Simulation time: 0 hr 51 min 0 sec) 
Heartbeat CPU 0 instructions: 76000000 cycles: 119467376 heartbeat IPC: 0.427172 cumulative IPC: 0.568262 (Simulation time: 0 hr 51 min 58 sec) 
Heartbeat CPU 0 instructions: 77000000 cycles: 121804037 heartbeat IPC: 0.427961 cumulative IPC: 0.565495 (Simulation time: 0 hr 52 min 58 sec) 
Heartbeat CPU 0 instructions: 78000000 cycles: 124166835 heartbeat IPC: 0.423227 cumulative IPC: 0.562713 (Simulation time: 0 hr 53 min 52 sec) 
Heartbeat CPU 0 instructions: 79000000 cycles: 126497411 heartbeat IPC: 0.429078 cumulative IPC: 0.560184 (Simulation time: 0 hr 54 min 45 sec) 
Heartbeat CPU 0 instructions: 80000000 cycles: 128845257 heartbeat IPC: 0.425922 cumulative IPC: 0.557673 (Simulation time: 0 hr 55 min 38 sec) 
Heartbeat CPU 0 instructions: 81000000 cycles: 131176451 heartbeat IPC: 0.428965 cumulative IPC: 0.555326 (Simulation time: 0 hr 56 min 28 sec) 
Heartbeat CPU 0 instructions: 82000000 cycles: 133486165 heartbeat IPC: 0.432954 cumulative IPC: 0.553155 (Simulation time: 0 hr 57 min 22 sec) 
Heartbeat CPU 0 instructions: 83000000 cycles: 135832736 heartbeat IPC: 0.426154 cumulative IPC: 0.550906 (Simulation time: 0 hr 58 min 15 sec) 
Heartbeat CPU 0 instructions: 84000000 cycles: 138184155 heartbeat IPC: 0.425275 cumulative IPC: 0.548715 (Simulation time: 0 hr 59 min 9 sec) 
Heartbeat CPU 0 instructions: 85000001 cycles: 139712816 heartbeat IPC: 0.654168 cumulative IPC: 0.549897 (Simulation time: 0 hr 59 min 54 sec) 
Heartbeat CPU 0 instructions: 86000000 cycles: 141260098 heartbeat IPC: 0.646294 cumulative IPC: 0.550978 (Simulation time: 1 hr 0 min 37 sec) 
Heartbeat CPU 0 instructions: 87000003 cycles: 142770623 heartbeat IPC: 0.662023 cumulative IPC: 0.552181 (Simulation time: 1 hr 1 min 21 sec) 
Heartbeat CPU 0 instructions: 88000000 cycles: 144280615 heartbeat IPC: 0.662253 cumulative IPC: 0.553361 (Simulation time: 1 hr 2 min 4 sec) 
Heartbeat CPU 0 instructions: 89000001 cycles: 145790662 heartbeat IPC: 0.662232 cumulative IPC: 0.554514 (Simulation time: 1 hr 2 min 48 sec) 
Heartbeat CPU 0 instructions: 90000000 cycles: 147300782 heartbeat IPC: 0.662198 cumulative IPC: 0.555644 (Simulation time: 1 hr 3 min 31 sec) 
Heartbeat CPU 0 instructions: 91000001 cycles: 148810705 heartbeat IPC: 0.662286 cumulative IPC: 0.556751 (Simulation time: 1 hr 4 min 17 sec) 
Heartbeat CPU 0 instructions: 92000000 cycles: 150320813 heartbeat IPC: 0.662204 cumulative IPC: 0.557834 (Simulation time: 1 hr 4 min 58 sec) 
Heartbeat CPU 0 instructions: 93000002 cycles: 151830967 heartbeat IPC: 0.662185 cumulative IPC: 0.558895 (Simulation time: 1 hr 5 min 40 sec) 
Heartbeat CPU 0 instructions: 94000001 cycles: 153340887 heartbeat IPC: 0.662286 cumulative IPC: 0.559936 (Simulation time: 1 hr 6 min 21 sec) 
Heartbeat CPU 0 instructions: 95000000 cycles: 154850811 heartbeat IPC: 0.662284 cumulative IPC: 0.560956 (Simulation time: 1 hr 7 min 2 sec) 
Heartbeat CPU 0 instructions: 96000000 cycles: 156360805 heartbeat IPC: 0.662254 cumulative IPC: 0.561955 (Simulation time: 1 hr 7 min 42 sec) 
Heartbeat CPU 0 instructions: 97000002 cycles: 157870735 heartbeat IPC: 0.662284 cumulative IPC: 0.562935 (Simulation time: 1 hr 8 min 21 sec) 
Heartbeat CPU 0 instructions: 98000001 cycles: 159362572 heartbeat IPC: 0.670314 cumulative IPC: 0.563962 (Simulation time: 1 hr 8 min 59 sec) 
Heartbeat CPU 0 instructions: 99000000 cycles: 160873073 heartbeat IPC: 0.662031 cumulative IPC: 0.564902 (Simulation time: 1 hr 9 min 38 sec) 
Heartbeat CPU 0 instructions: 100000000 cycles: 162382994 heartbeat IPC: 0.662286 cumulative IPC: 0.565827 (Simulation time: 1 hr 10 min 15 sec) 
Heartbeat CPU 0 instructions: 101000000 cycles: 163893039 heartbeat IPC: 0.662232 cumulative IPC: 0.566733 (Simulation time: 1 hr 10 min 51 sec) 
Heartbeat CPU 0 instructions: 102000002 cycles: 165402962 heartbeat IPC: 0.662287 cumulative IPC: 0.567623 (Simulation time: 1 hr 11 min 25 sec) 
Heartbeat CPU 0 instructions: 103000001 cycles: 166912696 heartbeat IPC: 0.662368 cumulative IPC: 0.568498 (Simulation time: 1 hr 12 min 1 sec) 
Heartbeat CPU 0 instructions: 104000000 cycles: 168686053 heartbeat IPC: 0.563902 cumulative IPC: 0.568449 (Simulation time: 1 hr 12 min 37 sec) 
Heartbeat CPU 0 instructions: 105000000 cycles: 171026065 heartbeat IPC: 0.427348 cumulative IPC: 0.56648 (Simulation time: 1 hr 13 min 16 sec) 
Heartbeat CPU 0 instructions: 106000000 cycles: 173378761 heartbeat IPC: 0.425044 cumulative IPC: 0.564523 (Simulation time: 1 hr 13 min 53 sec) 
Heartbeat CPU 0 instructions: 107000000 cycles: 175735734 heartbeat IPC: 0.424273 cumulative IPC: 0.562606 (Simulation time: 1 hr 14 min 31 sec) 
Heartbeat CPU 0 instructions: 108000000 cycles: 178095609 heartbeat IPC: 0.423751 cumulative IPC: 0.560731 (Simulation time: 1 hr 15 min 9 sec) 
Heartbeat CPU 0 instructions: 109000000 cycles: 180443840 heartbeat IPC: 0.425852 cumulative IPC: 0.558943 (Simulation time: 1 hr 15 min 45 sec) 
Heartbeat CPU 0 instructions: 110000000 cycles: 182779714 heartbeat IPC: 0.428105 cumulative IPC: 0.55724 (Simulation time: 1 hr 16 min 20 sec) 
Finished CPU 0 instructions: 100000003 cycles: 179456031 cummulative IPC: 0.55724 (Simulation time: 1 hr 16 min 20 sec) 

ChampSim completed all CPUs

Region of Interest Statistics

CPU 0 cummulative IPC: 0.55724 instructions: 100000003 cycles: 179456031
LLC TOTAL     ACCESS:    4917133  HIT:     273881  MISS:    4643252
LLC LOAD      ACCESS:    1163718  HIT:      56806  MISS:    1106912
LLC RFO       ACCESS:         24  HIT:         24  MISS:          0
LLC PREFETCH  ACCESS:    2226693  HIT:      93523  MISS:    2133170
LLC WRITEBACK ACCESS:    1526698  HIT:     123528  MISS:    1403170
Insertion Distribution: 
	LOAD 13251 0 12961 1085048 
	RFO 0 0 4 0 
	PREF 0 13292 58541 2333987 
	WRITEBACK 0 0 0 1416233 
Total Prefetch Downgrades: 31887
