
*** ChampSim Multicore Out-of-Order Simulator ***

Warmup Instructions: 10000000
Simulation Instructions: 100000000
Configuration: 2
Number of CPUs: 1
LLC sets: 2048
LLC ways: 16
Off-chip DRAM Channels: 1 Width: 64-bit Data Rate: 1600 MT/s

CPU 0 runs /datasets/cs240c-wi22-a00-public/data/Assignment2-gz/wrf_1650B.trace.gz
CPU 0 L1D next line prefetcher
CPU 0 L2C IP-based stride prefetcher
Initialize SRRIP state
Heartbeat CPU 0 instructions: 1000000 cycles: 514299 heartbeat IPC: 1.94439 cumulative IPC: 1.94439 (Simulation time: 0 hr 0 min 39 sec) 
Heartbeat CPU 0 instructions: 2000000 cycles: 1028473 heartbeat IPC: 1.94487 cumulative IPC: 1.94463 (Simulation time: 0 hr 1 min 18 sec) 
Heartbeat CPU 0 instructions: 3000001 cycles: 1546184 heartbeat IPC: 1.93158 cumulative IPC: 1.94026 (Simulation time: 0 hr 1 min 59 sec) 
Heartbeat CPU 0 instructions: 4000000 cycles: 2063940 heartbeat IPC: 1.93141 cumulative IPC: 1.93804 (Simulation time: 0 hr 2 min 39 sec) 
Heartbeat CPU 0 instructions: 5000001 cycles: 2581687 heartbeat IPC: 1.93145 cumulative IPC: 1.93672 (Simulation time: 0 hr 3 min 19 sec) 
Heartbeat CPU 0 instructions: 6000003 cycles: 3099505 heartbeat IPC: 1.93118 cumulative IPC: 1.93579 (Simulation time: 0 hr 3 min 57 sec) 
Heartbeat CPU 0 instructions: 7000000 cycles: 3617214 heartbeat IPC: 1.93158 cumulative IPC: 1.93519 (Simulation time: 0 hr 4 min 38 sec) 
Heartbeat CPU 0 instructions: 8000000 cycles: 4135023 heartbeat IPC: 1.93121 cumulative IPC: 1.93469 (Simulation time: 0 hr 5 min 19 sec) 
Heartbeat CPU 0 instructions: 9000001 cycles: 4649336 heartbeat IPC: 1.94434 cumulative IPC: 1.93576 (Simulation time: 0 hr 6 min 1 sec) 
Heartbeat CPU 0 instructions: 10000001 cycles: 5163453 heartbeat IPC: 1.94508 cumulative IPC: 1.93669 (Simulation time: 0 hr 6 min 43 sec) 

Warmup complete CPU 0 instructions: 10000001 cycles: 5163453 (Simulation time: 0 hr 6 min 43 sec) 

Heartbeat CPU 0 instructions: 11000000 cycles: 6646675 heartbeat IPC: 0.674207 cumulative IPC: 0.674207 (Simulation time: 0 hr 7 min 33 sec) 
Heartbeat CPU 0 instructions: 12000000 cycles: 8135729 heartbeat IPC: 0.671567 cumulative IPC: 0.672885 (Simulation time: 0 hr 8 min 26 sec) 
Heartbeat CPU 0 instructions: 13000002 cycles: 9629724 heartbeat IPC: 0.669348 cumulative IPC: 0.671701 (Simulation time: 0 hr 9 min 19 sec) 
Heartbeat CPU 0 instructions: 14000002 cycles: 11124015 heartbeat IPC: 0.669214 cumulative IPC: 0.671078 (Simulation time: 0 hr 10 min 12 sec) 
Heartbeat CPU 0 instructions: 15000001 cycles: 12618833 heartbeat IPC: 0.668977 cumulative IPC: 0.670657 (Simulation time: 0 hr 11 min 6 sec) 
Heartbeat CPU 0 instructions: 16000000 cycles: 14113265 heartbeat IPC: 0.66915 cumulative IPC: 0.670405 (Simulation time: 0 hr 12 min 4 sec) 
Heartbeat CPU 0 instructions: 17000000 cycles: 15607540 heartbeat IPC: 0.669221 cumulative IPC: 0.670236 (Simulation time: 0 hr 12 min 59 sec) 
Heartbeat CPU 0 instructions: 18000001 cycles: 17095469 heartbeat IPC: 0.672076 cumulative IPC: 0.670465 (Simulation time: 0 hr 13 min 51 sec) 
Heartbeat CPU 0 instructions: 19000003 cycles: 18577611 heartbeat IPC: 0.674701 cumulative IPC: 0.670933 (Simulation time: 0 hr 14 min 41 sec) 
Heartbeat CPU 0 instructions: 20000000 cycles: 20060902 heartbeat IPC: 0.674175 cumulative IPC: 0.671256 (Simulation time: 0 hr 15 min 32 sec) 
Heartbeat CPU 0 instructions: 21000000 cycles: 21544828 heartbeat IPC: 0.673888 cumulative IPC: 0.671494 (Simulation time: 0 hr 16 min 21 sec) 
Heartbeat CPU 0 instructions: 22000000 cycles: 23038725 heartbeat IPC: 0.66939 cumulative IPC: 0.671318 (Simulation time: 0 hr 17 min 10 sec) 
Heartbeat CPU 0 instructions: 23000003 cycles: 24534147 heartbeat IPC: 0.66871 cumulative IPC: 0.671117 (Simulation time: 0 hr 18 min 3 sec) 
Heartbeat CPU 0 instructions: 24000000 cycles: 26027753 heartbeat IPC: 0.669519 cumulative IPC: 0.671003 (Simulation time: 0 hr 18 min 54 sec) 
Heartbeat CPU 0 instructions: 25000000 cycles: 27522674 heartbeat IPC: 0.668932 cumulative IPC: 0.670864 (Simulation time: 0 hr 19 min 46 sec) 
Heartbeat CPU 0 instructions: 26000001 cycles: 29017430 heartbeat IPC: 0.669006 cumulative IPC: 0.670748 (Simulation time: 0 hr 20 min 36 sec) 
Heartbeat CPU 0 instructions: 27000003 cycles: 30510699 heartbeat IPC: 0.669673 cumulative IPC: 0.670684 (Simulation time: 0 hr 21 min 28 sec) 
Heartbeat CPU 0 instructions: 28000000 cycles: 31993185 heartbeat IPC: 0.674541 cumulative IPC: 0.670897 (Simulation time: 0 hr 22 min 18 sec) 
Heartbeat CPU 0 instructions: 29000001 cycles: 33476106 heartbeat IPC: 0.674345 cumulative IPC: 0.671078 (Simulation time: 0 hr 23 min 6 sec) 
Heartbeat CPU 0 instructions: 30000001 cycles: 34959461 heartbeat IPC: 0.674147 cumulative IPC: 0.671231 (Simulation time: 0 hr 23 min 54 sec) 
Heartbeat CPU 0 instructions: 31000000 cycles: 36450338 heartbeat IPC: 0.670745 cumulative IPC: 0.671208 (Simulation time: 0 hr 24 min 43 sec) 
Heartbeat CPU 0 instructions: 32000000 cycles: 37944204 heartbeat IPC: 0.669404 cumulative IPC: 0.671126 (Simulation time: 0 hr 25 min 30 sec) 
Heartbeat CPU 0 instructions: 33000001 cycles: 39438164 heartbeat IPC: 0.669363 cumulative IPC: 0.671049 (Simulation time: 0 hr 26 min 19 sec) 
Heartbeat CPU 0 instructions: 34000002 cycles: 40932446 heartbeat IPC: 0.669218 cumulative IPC: 0.670972 (Simulation time: 0 hr 27 min 7 sec) 
Heartbeat CPU 0 instructions: 35000001 cycles: 42427790 heartbeat IPC: 0.668742 cumulative IPC: 0.670883 (Simulation time: 0 hr 27 min 57 sec) 
Heartbeat CPU 0 instructions: 36000000 cycles: 43922707 heartbeat IPC: 0.668933 cumulative IPC: 0.670808 (Simulation time: 0 hr 28 min 45 sec) 
Heartbeat CPU 0 instructions: 37000003 cycles: 45408867 heartbeat IPC: 0.672877 cumulative IPC: 0.670884 (Simulation time: 0 hr 29 min 32 sec) 
Heartbeat CPU 0 instructions: 38000000 cycles: 46891583 heartbeat IPC: 0.674436 cumulative IPC: 0.67101 (Simulation time: 0 hr 30 min 21 sec) 
Heartbeat CPU 0 instructions: 39000001 cycles: 48375462 heartbeat IPC: 0.67391 cumulative IPC: 0.67111 (Simulation time: 0 hr 31 min 11 sec) 
Heartbeat CPU 0 instructions: 40000000 cycles: 49861318 heartbeat IPC: 0.673012 cumulative IPC: 0.671173 (Simulation time: 0 hr 32 min 0 sec) 
Heartbeat CPU 0 instructions: 41000000 cycles: 51355407 heartbeat IPC: 0.669304 cumulative IPC: 0.671113 (Simulation time: 0 hr 32 min 50 sec) 
Heartbeat CPU 0 instructions: 42000001 cycles: 52851226 heartbeat IPC: 0.668531 cumulative IPC: 0.671032 (Simulation time: 0 hr 33 min 42 sec) 
Heartbeat CPU 0 instructions: 43000001 cycles: 54345351 heartbeat IPC: 0.669288 cumulative IPC: 0.670979 (Simulation time: 0 hr 34 min 32 sec) 
Heartbeat CPU 0 instructions: 44000000 cycles: 55840490 heartbeat IPC: 0.668833 cumulative IPC: 0.670915 (Simulation time: 0 hr 35 min 25 sec) 
Heartbeat CPU 0 instructions: 45000000 cycles: 57334881 heartbeat IPC: 0.669169 cumulative IPC: 0.670865 (Simulation time: 0 hr 36 min 16 sec) 
Heartbeat CPU 0 instructions: 46000002 cycles: 59611179 heartbeat IPC: 0.439311 cumulative IPC: 0.661185 (Simulation time: 0 hr 37 min 13 sec) 
Heartbeat CPU 0 instructions: 47000002 cycles: 61150103 heartbeat IPC: 0.649805 cumulative IPC: 0.660872 (Simulation time: 0 hr 38 min 1 sec) 
Heartbeat CPU 0 instructions: 48000000 cycles: 62814974 heartbeat IPC: 0.600646 cumulative IPC: 0.659133 (Simulation time: 0 hr 38 min 49 sec) 
Heartbeat CPU 0 instructions: 49000001 cycles: 64487420 heartbeat IPC: 0.597927 cumulative IPC: 0.657407 (Simulation time: 0 hr 39 min 35 sec) 
Heartbeat CPU 0 instructions: 50000000 cycles: 66155371 heartbeat IPC: 0.599537 cumulative IPC: 0.655825 (Simulation time: 0 hr 40 min 25 sec) 
Heartbeat CPU 0 instructions: 51000000 cycles: 67950389 heartbeat IPC: 0.557097 cumulative IPC: 0.653002 (Simulation time: 0 hr 41 min 12 sec) 
Heartbeat CPU 0 instructions: 52000000 cycles: 69694948 heartbeat IPC: 0.573211 cumulative IPC: 0.650845 (Simulation time: 0 hr 42 min 2 sec) 
Heartbeat CPU 0 instructions: 53000002 cycles: 70736492 heartbeat IPC: 0.960115 cumulative IPC: 0.655757 (Simulation time: 0 hr 42 min 47 sec) 
Heartbeat CPU 0 instructions: 54000001 cycles: 71659862 heartbeat IPC: 1.08299 cumulative IPC: 0.66169 (Simulation time: 0 hr 43 min 30 sec) 
Heartbeat CPU 0 instructions: 55000000 cycles: 72572350 heartbeat IPC: 1.0959 cumulative IPC: 0.667568 (Simulation time: 0 hr 44 min 17 sec) 
Heartbeat CPU 0 instructions: 56000000 cycles: 73454840 heartbeat IPC: 1.13316 cumulative IPC: 0.673584 (Simulation time: 0 hr 44 min 58 sec) 
Heartbeat CPU 0 instructions: 57000001 cycles: 74341752 heartbeat IPC: 1.12751 cumulative IPC: 0.679404 (Simulation time: 0 hr 45 min 42 sec) 
Heartbeat CPU 0 instructions: 58000002 cycles: 75223016 heartbeat IPC: 1.13473 cumulative IPC: 0.685131 (Simulation time: 0 hr 46 min 23 sec) 
Heartbeat CPU 0 instructions: 59000003 cycles: 76108310 heartbeat IPC: 1.12957 cumulative IPC: 0.690677 (Simulation time: 0 hr 47 min 3 sec) 
Heartbeat CPU 0 instructions: 60000000 cycles: 76996314 heartbeat IPC: 1.12612 cumulative IPC: 0.69606 (Simulation time: 0 hr 47 min 45 sec) 
Heartbeat CPU 0 instructions: 61000003 cycles: 78288421 heartbeat IPC: 0.773932 cumulative IPC: 0.697436 (Simulation time: 0 hr 48 min 28 sec) 
Heartbeat CPU 0 instructions: 62000002 cycles: 79776294 heartbeat IPC: 0.6721 cumulative IPC: 0.696931 (Simulation time: 0 hr 49 min 13 sec) 
Heartbeat CPU 0 instructions: 63000002 cycles: 81262487 heartbeat IPC: 0.67286 cumulative IPC: 0.696461 (Simulation time: 0 hr 49 min 59 sec) 
Heartbeat CPU 0 instructions: 64000000 cycles: 82748883 heartbeat IPC: 0.672767 cumulative IPC: 0.696007 (Simulation time: 0 hr 50 min 46 sec) 
Heartbeat CPU 0 instructions: 65000001 cycles: 84237101 heartbeat IPC: 0.671945 cumulative IPC: 0.695554 (Simulation time: 0 hr 51 min 30 sec) 
Heartbeat CPU 0 instructions: 66000000 cycles: 85722932 heartbeat IPC: 0.673023 cumulative IPC: 0.695139 (Simulation time: 0 hr 52 min 13 sec) 
Heartbeat CPU 0 instructions: 67000001 cycles: 87211610 heartbeat IPC: 0.671738 cumulative IPC: 0.694714 (Simulation time: 0 hr 52 min 57 sec) 
Heartbeat CPU 0 instructions: 68000000 cycles: 88697431 heartbeat IPC: 0.673028 cumulative IPC: 0.694328 (Simulation time: 0 hr 53 min 40 sec) 
Heartbeat CPU 0 instructions: 69000002 cycles: 90183105 heartbeat IPC: 0.673097 cumulative IPC: 0.693957 (Simulation time: 0 hr 54 min 23 sec) 
Heartbeat CPU 0 instructions: 70000000 cycles: 91669605 heartbeat IPC: 0.67272 cumulative IPC: 0.693592 (Simulation time: 0 hr 55 min 6 sec) 
Heartbeat CPU 0 instructions: 71000001 cycles: 93156703 heartbeat IPC: 0.672451 cumulative IPC: 0.693235 (Simulation time: 0 hr 55 min 51 sec) 
Heartbeat CPU 0 instructions: 72000000 cycles: 94644369 heartbeat IPC: 0.672193 cumulative IPC: 0.692885 (Simulation time: 0 hr 56 min 36 sec) 
Heartbeat CPU 0 instructions: 73000000 cycles: 96130531 heartbeat IPC: 0.672874 cumulative IPC: 0.692558 (Simulation time: 0 hr 57 min 20 sec) 
Heartbeat CPU 0 instructions: 74000003 cycles: 97616230 heartbeat IPC: 0.673086 cumulative IPC: 0.692245 (Simulation time: 0 hr 58 min 6 sec) 
Heartbeat CPU 0 instructions: 75000003 cycles: 99102730 heartbeat IPC: 0.672721 cumulative IPC: 0.691936 (Simulation time: 0 hr 58 min 48 sec) 
Heartbeat CPU 0 instructions: 76000000 cycles: 100588958 heartbeat IPC: 0.672842 cumulative IPC: 0.691639 (Simulation time: 0 hr 59 min 31 sec) 
Heartbeat CPU 0 instructions: 77000002 cycles: 102077368 heartbeat IPC: 0.671859 cumulative IPC: 0.691335 (Simulation time: 1 hr 0 min 14 sec) 
Heartbeat CPU 0 instructions: 78000001 cycles: 103564722 heartbeat IPC: 0.672334 cumulative IPC: 0.691048 (Simulation time: 1 hr 1 min 0 sec) 
Heartbeat CPU 0 instructions: 79000001 cycles: 105052717 heartbeat IPC: 0.672045 cumulative IPC: 0.690765 (Simulation time: 1 hr 1 min 42 sec) 
Heartbeat CPU 0 instructions: 80000000 cycles: 106538272 heartbeat IPC: 0.673148 cumulative IPC: 0.690507 (Simulation time: 1 hr 2 min 26 sec) 
Heartbeat CPU 0 instructions: 81000000 cycles: 108026019 heartbeat IPC: 0.672157 cumulative IPC: 0.690241 (Simulation time: 1 hr 3 min 9 sec) 
Heartbeat CPU 0 instructions: 82000003 cycles: 109511405 heartbeat IPC: 0.673228 cumulative IPC: 0.689999 (Simulation time: 1 hr 3 min 50 sec) 
Heartbeat CPU 0 instructions: 83000003 cycles: 111001028 heartbeat IPC: 0.671311 cumulative IPC: 0.689736 (Simulation time: 1 hr 4 min 33 sec) 
Heartbeat CPU 0 instructions: 84000000 cycles: 112486928 heartbeat IPC: 0.672991 cumulative IPC: 0.689504 (Simulation time: 1 hr 5 min 16 sec) 
Heartbeat CPU 0 instructions: 85000002 cycles: 113973181 heartbeat IPC: 0.672834 cumulative IPC: 0.689277 (Simulation time: 1 hr 5 min 57 sec) 
Heartbeat CPU 0 instructions: 86000001 cycles: 115458974 heartbeat IPC: 0.673041 cumulative IPC: 0.689058 (Simulation time: 1 hr 6 min 38 sec) 
Heartbeat CPU 0 instructions: 87000001 cycles: 116944983 heartbeat IPC: 0.672943 cumulative IPC: 0.688844 (Simulation time: 1 hr 7 min 19 sec) 
Heartbeat CPU 0 instructions: 88000000 cycles: 118444675 heartbeat IPC: 0.666803 cumulative IPC: 0.688552 (Simulation time: 1 hr 8 min 0 sec) 
Heartbeat CPU 0 instructions: 89000003 cycles: 119933782 heartbeat IPC: 0.671545 cumulative IPC: 0.688331 (Simulation time: 1 hr 8 min 42 sec) 
Heartbeat CPU 0 instructions: 90000003 cycles: 121433758 heartbeat IPC: 0.666677 cumulative IPC: 0.688052 (Simulation time: 1 hr 9 min 23 sec) 
Heartbeat CPU 0 instructions: 91000001 cycles: 122948850 heartbeat IPC: 0.660025 cumulative IPC: 0.687691 (Simulation time: 1 hr 10 min 5 sec) 
Heartbeat CPU 0 instructions: 92000000 cycles: 124462385 heartbeat IPC: 0.660704 cumulative IPC: 0.687349 (Simulation time: 1 hr 10 min 43 sec) 
Heartbeat CPU 0 instructions: 93000001 cycles: 125979546 heartbeat IPC: 0.659126 cumulative IPC: 0.686995 (Simulation time: 1 hr 11 min 24 sec) 
Heartbeat CPU 0 instructions: 94000001 cycles: 127491749 heartbeat IPC: 0.661287 cumulative IPC: 0.686677 (Simulation time: 1 hr 12 min 2 sec) 
Heartbeat CPU 0 instructions: 95000001 cycles: 129002278 heartbeat IPC: 0.66202 cumulative IPC: 0.686376 (Simulation time: 1 hr 12 min 40 sec) 
Heartbeat CPU 0 instructions: 96000000 cycles: 130516755 heartbeat IPC: 0.660293 cumulative IPC: 0.686061 (Simulation time: 1 hr 13 min 16 sec) 
Heartbeat CPU 0 instructions: 97000000 cycles: 132032550 heartbeat IPC: 0.65972 cumulative IPC: 0.685746 (Simulation time: 1 hr 13 min 51 sec) 
Heartbeat CPU 0 instructions: 98000000 cycles: 133545858 heartbeat IPC: 0.660804 cumulative IPC: 0.685452 (Simulation time: 1 hr 14 min 24 sec) 
Heartbeat CPU 0 instructions: 99000000 cycles: 135057757 heartbeat IPC: 0.66142 cumulative IPC: 0.685172 (Simulation time: 1 hr 14 min 56 sec) 
Heartbeat CPU 0 instructions: 100000000 cycles: 136572560 heartbeat IPC: 0.660152 cumulative IPC: 0.684884 (Simulation time: 1 hr 15 min 27 sec) 
Heartbeat CPU 0 instructions: 101000002 cycles: 138089702 heartbeat IPC: 0.659135 cumulative IPC: 0.68459 (Simulation time: 1 hr 15 min 58 sec) 
Heartbeat CPU 0 instructions: 102000002 cycles: 139603157 heartbeat IPC: 0.66074 cumulative IPC: 0.684322 (Simulation time: 1 hr 16 min 28 sec) 
Heartbeat CPU 0 instructions: 103000002 cycles: 141117004 heartbeat IPC: 0.660569 cumulative IPC: 0.684057 (Simulation time: 1 hr 16 min 55 sec) 
Heartbeat CPU 0 instructions: 104000000 cycles: 142633548 heartbeat IPC: 0.659393 cumulative IPC: 0.683785 (Simulation time: 1 hr 17 min 22 sec) 
Heartbeat CPU 0 instructions: 105000001 cycles: 144148101 heartbeat IPC: 0.660261 cumulative IPC: 0.683529 (Simulation time: 1 hr 17 min 49 sec) 
Heartbeat CPU 0 instructions: 106000001 cycles: 145664262 heartbeat IPC: 0.659561 cumulative IPC: 0.68327 (Simulation time: 1 hr 18 min 15 sec) 
Heartbeat CPU 0 instructions: 107000000 cycles: 147175879 heartbeat IPC: 0.661543 cumulative IPC: 0.683039 (Simulation time: 1 hr 18 min 41 sec) 
Heartbeat CPU 0 instructions: 108000000 cycles: 148687710 heartbeat IPC: 0.66145 cumulative IPC: 0.682811 (Simulation time: 1 hr 19 min 8 sec) 
Heartbeat CPU 0 instructions: 109000000 cycles: 150195013 heartbeat IPC: 0.663437 cumulative IPC: 0.68261 (Simulation time: 1 hr 19 min 35 sec) 
Heartbeat CPU 0 instructions: 110000001 cycles: 151686769 heartbeat IPC: 0.670352 cumulative IPC: 0.682485 (Simulation time: 1 hr 20 min 0 sec) 
Finished CPU 0 instructions: 100000000 cycles: 146523316 cummulative IPC: 0.682485 (Simulation time: 1 hr 20 min 0 sec) 

ChampSim completed all CPUs

Region of Interest Statistics

CPU 0 cummulative IPC: 0.682485 instructions: 100000000 cycles: 146523316
LLC TOTAL     ACCESS:    1089017  HIT:     141274  MISS:     947743
LLC LOAD      ACCESS:      57744  HIT:       8986  MISS:      48758
LLC RFO       ACCESS:     201528  HIT:       1445  MISS:     200083
LLC PREFETCH  ACCESS:     601237  HIT:      49546  MISS:     551691
LLC WRITEBACK ACCESS:     228508  HIT:      81297  MISS:     147211
Insertion Distribution: 
	LOAD 7717 0 19902 21425 
	RFO 0 0 46330 157929 
	PREF 0 512 94736 466987 
	WRITEBACK 0 0 0 147211 
Total Prefetch Downgrades: 535
