
*** ChampSim Multicore Out-of-Order Simulator ***

Warmup Instructions: 50000000
Simulation Instructions: 100000000
Configuration: 2
Number of CPUs: 1
LLC sets: 2048
LLC ways: 16
Off-chip DRAM Channels: 1 Width: 64-bit Data Rate: 1600 MT/s

CPU 0 runs /datasets/cs240c-wi22-a00-public/data/Assignment2-gz/gcc_56B.trace.gz
CPU 0 L1D next line prefetcher
CPU 0 L2C IP-based stride prefetcher
Initialize Hawkeye state
Heartbeat CPU 0 instructions: 1000003 cycles: 954151 heartbeat IPC: 1.04806 cumulative IPC: 1.04806 (Simulation time: 0 hr 0 min 48 sec) 
Heartbeat CPU 0 instructions: 2000001 cycles: 1898349 heartbeat IPC: 1.0591 cumulative IPC: 1.05355 (Simulation time: 0 hr 1 min 28 sec) 
Heartbeat CPU 0 instructions: 3000001 cycles: 2885593 heartbeat IPC: 1.01292 cumulative IPC: 1.03965 (Simulation time: 0 hr 2 min 12 sec) 
Heartbeat CPU 0 instructions: 4000000 cycles: 3848221 heartbeat IPC: 1.03882 cumulative IPC: 1.03944 (Simulation time: 0 hr 2 min 48 sec) 
Heartbeat CPU 0 instructions: 5000002 cycles: 4737701 heartbeat IPC: 1.12425 cumulative IPC: 1.05536 (Simulation time: 0 hr 3 min 23 sec) 
Heartbeat CPU 0 instructions: 6000000 cycles: 5685656 heartbeat IPC: 1.0549 cumulative IPC: 1.05529 (Simulation time: 0 hr 4 min 4 sec) 
Heartbeat CPU 0 instructions: 7000000 cycles: 6649891 heartbeat IPC: 1.03709 cumulative IPC: 1.05265 (Simulation time: 0 hr 4 min 50 sec) 
Heartbeat CPU 0 instructions: 8000000 cycles: 7611114 heartbeat IPC: 1.04034 cumulative IPC: 1.05109 (Simulation time: 0 hr 5 min 32 sec) 
Heartbeat CPU 0 instructions: 9000000 cycles: 8622586 heartbeat IPC: 0.988658 cumulative IPC: 1.04377 (Simulation time: 0 hr 6 min 15 sec) 
Heartbeat CPU 0 instructions: 10000002 cycles: 9583097 heartbeat IPC: 1.04111 cumulative IPC: 1.0435 (Simulation time: 0 hr 6 min 56 sec) 
Heartbeat CPU 0 instructions: 11000002 cycles: 10472393 heartbeat IPC: 1.12449 cumulative IPC: 1.05038 (Simulation time: 0 hr 7 min 33 sec) 
Heartbeat CPU 0 instructions: 12000000 cycles: 11357924 heartbeat IPC: 1.12926 cumulative IPC: 1.05653 (Simulation time: 0 hr 8 min 6 sec) 
Heartbeat CPU 0 instructions: 13000001 cycles: 12297171 heartbeat IPC: 1.06468 cumulative IPC: 1.05715 (Simulation time: 0 hr 8 min 39 sec) 
Heartbeat CPU 0 instructions: 14000000 cycles: 13290642 heartbeat IPC: 1.00657 cumulative IPC: 1.05337 (Simulation time: 0 hr 9 min 14 sec) 
Heartbeat CPU 0 instructions: 15000003 cycles: 14246130 heartbeat IPC: 1.04659 cumulative IPC: 1.05292 (Simulation time: 0 hr 9 min 52 sec) 
Heartbeat CPU 0 instructions: 16000000 cycles: 15246175 heartbeat IPC: 0.999952 cumulative IPC: 1.04944 (Simulation time: 0 hr 10 min 36 sec) 
Heartbeat CPU 0 instructions: 17000001 cycles: 16221160 heartbeat IPC: 1.02566 cumulative IPC: 1.04801 (Simulation time: 0 hr 11 min 18 sec) 
Heartbeat CPU 0 instructions: 18000000 cycles: 17121989 heartbeat IPC: 1.11009 cumulative IPC: 1.05128 (Simulation time: 0 hr 12 min 1 sec) 
Heartbeat CPU 0 instructions: 19000000 cycles: 18045883 heartbeat IPC: 1.08238 cumulative IPC: 1.05287 (Simulation time: 0 hr 12 min 38 sec) 
Heartbeat CPU 0 instructions: 20000000 cycles: 18990391 heartbeat IPC: 1.05875 cumulative IPC: 1.05316 (Simulation time: 0 hr 13 min 18 sec) 
Heartbeat CPU 0 instructions: 21000000 cycles: 19947022 heartbeat IPC: 1.04534 cumulative IPC: 1.05279 (Simulation time: 0 hr 14 min 0 sec) 
Heartbeat CPU 0 instructions: 22000000 cycles: 20939406 heartbeat IPC: 1.00767 cumulative IPC: 1.05065 (Simulation time: 0 hr 14 min 50 sec) 
Heartbeat CPU 0 instructions: 23000000 cycles: 21860056 heartbeat IPC: 1.08619 cumulative IPC: 1.05215 (Simulation time: 0 hr 15 min 29 sec) 
Heartbeat CPU 0 instructions: 24000000 cycles: 22777467 heartbeat IPC: 1.09002 cumulative IPC: 1.05367 (Simulation time: 0 hr 16 min 7 sec) 
Heartbeat CPU 0 instructions: 25000000 cycles: 23713199 heartbeat IPC: 1.06868 cumulative IPC: 1.05427 (Simulation time: 0 hr 16 min 50 sec) 
Heartbeat CPU 0 instructions: 26000002 cycles: 24633685 heartbeat IPC: 1.08638 cumulative IPC: 1.05547 (Simulation time: 0 hr 17 min 25 sec) 
Heartbeat CPU 0 instructions: 27000000 cycles: 25585997 heartbeat IPC: 1.05007 cumulative IPC: 1.05526 (Simulation time: 0 hr 18 min 5 sec) 
Heartbeat CPU 0 instructions: 28000000 cycles: 26583769 heartbeat IPC: 1.00223 cumulative IPC: 1.05327 (Simulation time: 0 hr 18 min 48 sec) 
Heartbeat CPU 0 instructions: 29000000 cycles: 27583174 heartbeat IPC: 1.0006 cumulative IPC: 1.05137 (Simulation time: 0 hr 19 min 30 sec) 
Heartbeat CPU 0 instructions: 30000000 cycles: 28562058 heartbeat IPC: 1.02157 cumulative IPC: 1.05034 (Simulation time: 0 hr 20 min 6 sec) 
Heartbeat CPU 0 instructions: 31000000 cycles: 29476452 heartbeat IPC: 1.09362 cumulative IPC: 1.05169 (Simulation time: 0 hr 20 min 46 sec) 
Heartbeat CPU 0 instructions: 32000000 cycles: 30387154 heartbeat IPC: 1.09805 cumulative IPC: 1.05308 (Simulation time: 0 hr 21 min 26 sec) 
Heartbeat CPU 0 instructions: 33000002 cycles: 31312871 heartbeat IPC: 1.08025 cumulative IPC: 1.05388 (Simulation time: 0 hr 22 min 5 sec) 
Heartbeat CPU 0 instructions: 34000002 cycles: 32279383 heartbeat IPC: 1.03465 cumulative IPC: 1.0533 (Simulation time: 0 hr 22 min 47 sec) 
Heartbeat CPU 0 instructions: 35000002 cycles: 33244048 heartbeat IPC: 1.03663 cumulative IPC: 1.05282 (Simulation time: 0 hr 23 min 27 sec) 
Heartbeat CPU 0 instructions: 36000000 cycles: 34239321 heartbeat IPC: 1.00475 cumulative IPC: 1.05142 (Simulation time: 0 hr 24 min 3 sec) 
Heartbeat CPU 0 instructions: 37000000 cycles: 35205865 heartbeat IPC: 1.03461 cumulative IPC: 1.05096 (Simulation time: 0 hr 24 min 38 sec) 
Heartbeat CPU 0 instructions: 38000002 cycles: 36155157 heartbeat IPC: 1.05342 cumulative IPC: 1.05103 (Simulation time: 0 hr 25 min 18 sec) 
Heartbeat CPU 0 instructions: 39000000 cycles: 37066136 heartbeat IPC: 1.09772 cumulative IPC: 1.05217 (Simulation time: 0 hr 26 min 1 sec) 
Heartbeat CPU 0 instructions: 40000000 cycles: 38010458 heartbeat IPC: 1.05896 cumulative IPC: 1.05234 (Simulation time: 0 hr 26 min 43 sec) 
Heartbeat CPU 0 instructions: 41000001 cycles: 38985290 heartbeat IPC: 1.02582 cumulative IPC: 1.05168 (Simulation time: 0 hr 27 min 28 sec) 
Heartbeat CPU 0 instructions: 42000003 cycles: 39974544 heartbeat IPC: 1.01086 cumulative IPC: 1.05067 (Simulation time: 0 hr 28 min 13 sec) 
Heartbeat CPU 0 instructions: 43000001 cycles: 40938704 heartbeat IPC: 1.03717 cumulative IPC: 1.05035 (Simulation time: 0 hr 28 min 56 sec) 
Heartbeat CPU 0 instructions: 44000000 cycles: 41869468 heartbeat IPC: 1.07439 cumulative IPC: 1.05089 (Simulation time: 0 hr 29 min 42 sec) 
Heartbeat CPU 0 instructions: 45000000 cycles: 42778769 heartbeat IPC: 1.09975 cumulative IPC: 1.05192 (Simulation time: 0 hr 30 min 27 sec) 
Heartbeat CPU 0 instructions: 46000001 cycles: 43731189 heartbeat IPC: 1.04996 cumulative IPC: 1.05188 (Simulation time: 0 hr 31 min 13 sec) 
Heartbeat CPU 0 instructions: 47000001 cycles: 44686071 heartbeat IPC: 1.04725 cumulative IPC: 1.05178 (Simulation time: 0 hr 31 min 57 sec) 
Heartbeat CPU 0 instructions: 48000000 cycles: 45666152 heartbeat IPC: 1.02032 cumulative IPC: 1.05111 (Simulation time: 0 hr 32 min 43 sec) 
Heartbeat CPU 0 instructions: 49000002 cycles: 46667613 heartbeat IPC: 0.998543 cumulative IPC: 1.04998 (Simulation time: 0 hr 33 min 27 sec) 
Heartbeat CPU 0 instructions: 50000000 cycles: 47652578 heartbeat IPC: 1.01526 cumulative IPC: 1.04926 (Simulation time: 0 hr 34 min 8 sec) 

Warmup complete CPU 0 instructions: 50000001 cycles: 47652580 (Simulation time: 0 hr 34 min 8 sec) 

Heartbeat CPU 0 instructions: 51000000 cycles: 49005396 heartbeat IPC: 0.739198 cumulative IPC: 0.739198 (Simulation time: 0 hr 34 min 50 sec) 
Heartbeat CPU 0 instructions: 52000000 cycles: 50396370 heartbeat IPC: 0.718921 cumulative IPC: 0.728918 (Simulation time: 0 hr 35 min 33 sec) 
Heartbeat CPU 0 instructions: 53000001 cycles: 51732769 heartbeat IPC: 0.74828 cumulative IPC: 0.73526 (Simulation time: 0 hr 36 min 14 sec) 
Heartbeat CPU 0 instructions: 54000000 cycles: 53047199 heartbeat IPC: 0.760785 cumulative IPC: 0.741479 (Simulation time: 0 hr 36 min 52 sec) 
Heartbeat CPU 0 instructions: 55000001 cycles: 54353422 heartbeat IPC: 0.765567 cumulative IPC: 0.746175 (Simulation time: 0 hr 37 min 34 sec) 
Heartbeat CPU 0 instructions: 56000000 cycles: 55676440 heartbeat IPC: 0.755847 cumulative IPC: 0.74777 (Simulation time: 0 hr 38 min 13 sec) 
Heartbeat CPU 0 instructions: 57000001 cycles: 57008296 heartbeat IPC: 0.750833 cumulative IPC: 0.748206 (Simulation time: 0 hr 38 min 54 sec) 
Heartbeat CPU 0 instructions: 58000000 cycles: 58381493 heartbeat IPC: 0.728227 cumulative IPC: 0.745649 (Simulation time: 0 hr 39 min 34 sec) 
Heartbeat CPU 0 instructions: 59000000 cycles: 59774436 heartbeat IPC: 0.717904 cumulative IPC: 0.74246 (Simulation time: 0 hr 40 min 20 sec) 
Heartbeat CPU 0 instructions: 60000000 cycles: 61149419 heartbeat IPC: 0.727282 cumulative IPC: 0.740914 (Simulation time: 0 hr 41 min 5 sec) 
Heartbeat CPU 0 instructions: 61000000 cycles: 62479910 heartbeat IPC: 0.751602 cumulative IPC: 0.741873 (Simulation time: 0 hr 41 min 53 sec) 
Heartbeat CPU 0 instructions: 62000002 cycles: 63840847 heartbeat IPC: 0.734789 cumulative IPC: 0.741278 (Simulation time: 0 hr 42 min 39 sec) 
Heartbeat CPU 0 instructions: 63000003 cycles: 65154897 heartbeat IPC: 0.761007 cumulative IPC: 0.742759 (Simulation time: 0 hr 43 min 26 sec) 
Heartbeat CPU 0 instructions: 64000000 cycles: 66472350 heartbeat IPC: 0.759038 cumulative IPC: 0.743899 (Simulation time: 0 hr 44 min 10 sec) 
Heartbeat CPU 0 instructions: 65000000 cycles: 67814477 heartbeat IPC: 0.745086 cumulative IPC: 0.743978 (Simulation time: 0 hr 44 min 54 sec) 
Heartbeat CPU 0 instructions: 66000002 cycles: 69204580 heartbeat IPC: 0.719373 cumulative IPC: 0.742391 (Simulation time: 0 hr 45 min 38 sec) 
Heartbeat CPU 0 instructions: 67000002 cycles: 70590361 heartbeat IPC: 0.721615 cumulative IPC: 0.741135 (Simulation time: 0 hr 46 min 22 sec) 
Heartbeat CPU 0 instructions: 68000000 cycles: 71940712 heartbeat IPC: 0.740547 cumulative IPC: 0.741103 (Simulation time: 0 hr 47 min 7 sec) 
Heartbeat CPU 0 instructions: 69000000 cycles: 73268465 heartbeat IPC: 0.753152 cumulative IPC: 0.741727 (Simulation time: 0 hr 47 min 52 sec) 
Heartbeat CPU 0 instructions: 70000000 cycles: 74593699 heartbeat IPC: 0.754584 cumulative IPC: 0.74236 (Simulation time: 0 hr 48 min 40 sec) 
Heartbeat CPU 0 instructions: 71000003 cycles: 75934761 heartbeat IPC: 0.74568 cumulative IPC: 0.742517 (Simulation time: 0 hr 49 min 31 sec) 
Heartbeat CPU 0 instructions: 72000000 cycles: 77272582 heartbeat IPC: 0.747482 cumulative IPC: 0.742741 (Simulation time: 0 hr 50 min 17 sec) 
Heartbeat CPU 0 instructions: 73000003 cycles: 78638656 heartbeat IPC: 0.732027 cumulative IPC: 0.742269 (Simulation time: 0 hr 51 min 4 sec) 
Heartbeat CPU 0 instructions: 74000001 cycles: 80034856 heartbeat IPC: 0.716228 cumulative IPC: 0.741146 (Simulation time: 0 hr 51 min 52 sec) 
Heartbeat CPU 0 instructions: 75000003 cycles: 81407034 heartbeat IPC: 0.72877 cumulative IPC: 0.740643 (Simulation time: 0 hr 52 min 38 sec) 
Heartbeat CPU 0 instructions: 76000000 cycles: 82749118 heartbeat IPC: 0.745108 cumulative IPC: 0.740814 (Simulation time: 0 hr 53 min 28 sec) 
Heartbeat CPU 0 instructions: 77000003 cycles: 84081238 heartbeat IPC: 0.750685 cumulative IPC: 0.741175 (Simulation time: 0 hr 54 min 18 sec) 
Heartbeat CPU 0 instructions: 78000001 cycles: 85411445 heartbeat IPC: 0.751761 cumulative IPC: 0.741548 (Simulation time: 0 hr 55 min 7 sec) 
Heartbeat CPU 0 instructions: 79000000 cycles: 86767169 heartbeat IPC: 0.737613 cumulative IPC: 0.741411 (Simulation time: 0 hr 55 min 54 sec) 
Heartbeat CPU 0 instructions: 80000000 cycles: 88112011 heartbeat IPC: 0.743582 cumulative IPC: 0.741483 (Simulation time: 0 hr 56 min 41 sec) 
Heartbeat CPU 0 instructions: 81000002 cycles: 89489928 heartbeat IPC: 0.725735 cumulative IPC: 0.740965 (Simulation time: 0 hr 57 min 24 sec) 
Heartbeat CPU 0 instructions: 82000000 cycles: 90859927 heartbeat IPC: 0.729926 cumulative IPC: 0.740615 (Simulation time: 0 hr 58 min 10 sec) 
Heartbeat CPU 0 instructions: 83000003 cycles: 92191212 heartbeat IPC: 0.751156 cumulative IPC: 0.74093 (Simulation time: 0 hr 58 min 56 sec) 
Heartbeat CPU 0 instructions: 84000000 cycles: 93532750 heartbeat IPC: 0.745411 cumulative IPC: 0.741061 (Simulation time: 0 hr 59 min 39 sec) 
Heartbeat CPU 0 instructions: 85000002 cycles: 94845782 heartbeat IPC: 0.761598 cumulative IPC: 0.741632 (Simulation time: 1 hr 0 min 25 sec) 
Heartbeat CPU 0 instructions: 86000003 cycles: 96147487 heartbeat IPC: 0.768224 cumulative IPC: 0.742346 (Simulation time: 1 hr 1 min 10 sec) 
Heartbeat CPU 0 instructions: 87000000 cycles: 97526702 heartbeat IPC: 0.725048 cumulative IPC: 0.741868 (Simulation time: 1 hr 1 min 53 sec) 
Heartbeat CPU 0 instructions: 88000000 cycles: 98875242 heartbeat IPC: 0.741543 cumulative IPC: 0.741859 (Simulation time: 1 hr 2 min 40 sec) 
Heartbeat CPU 0 instructions: 89000000 cycles: 100233145 heartbeat IPC: 0.73643 cumulative IPC: 0.741719 (Simulation time: 1 hr 3 min 25 sec) 
Heartbeat CPU 0 instructions: 90000000 cycles: 101549290 heartbeat IPC: 0.759795 cumulative IPC: 0.74216 (Simulation time: 1 hr 4 min 12 sec) 
Heartbeat CPU 0 instructions: 91000001 cycles: 102855468 heartbeat IPC: 0.765593 cumulative IPC: 0.742715 (Simulation time: 1 hr 4 min 59 sec) 
Heartbeat CPU 0 instructions: 92000000 cycles: 104170870 heartbeat IPC: 0.760223 cumulative IPC: 0.743122 (Simulation time: 1 hr 5 min 41 sec) 
Heartbeat CPU 0 instructions: 93000003 cycles: 105553125 heartbeat IPC: 0.723458 cumulative IPC: 0.742653 (Simulation time: 1 hr 6 min 25 sec) 
Heartbeat CPU 0 instructions: 94000000 cycles: 106895000 heartbeat IPC: 0.745224 cumulative IPC: 0.742711 (Simulation time: 1 hr 7 min 11 sec) 
Heartbeat CPU 0 instructions: 95000000 cycles: 108244827 heartbeat IPC: 0.740836 cumulative IPC: 0.742669 (Simulation time: 1 hr 7 min 57 sec) 
Heartbeat CPU 0 instructions: 96000000 cycles: 109577636 heartbeat IPC: 0.750295 cumulative IPC: 0.742833 (Simulation time: 1 hr 8 min 47 sec) 
Heartbeat CPU 0 instructions: 97000000 cycles: 110887407 heartbeat IPC: 0.763492 cumulative IPC: 0.743261 (Simulation time: 1 hr 9 min 35 sec) 
Heartbeat CPU 0 instructions: 98000003 cycles: 112194933 heartbeat IPC: 0.764805 cumulative IPC: 0.743698 (Simulation time: 1 hr 10 min 20 sec) 
Heartbeat CPU 0 instructions: 99000000 cycles: 113581511 heartbeat IPC: 0.721198 cumulative IPC: 0.743225 (Simulation time: 1 hr 11 min 3 sec) 
Heartbeat CPU 0 instructions: 100000000 cycles: 114924200 heartbeat IPC: 0.744774 cumulative IPC: 0.743255 (Simulation time: 1 hr 11 min 49 sec) 
Heartbeat CPU 0 instructions: 101000000 cycles: 116270821 heartbeat IPC: 0.742599 cumulative IPC: 0.743243 (Simulation time: 1 hr 12 min 33 sec) 
Heartbeat CPU 0 instructions: 102000001 cycles: 117583784 heartbeat IPC: 0.761637 cumulative IPC: 0.743588 (Simulation time: 1 hr 13 min 18 sec) 
Heartbeat CPU 0 instructions: 103000001 cycles: 118885734 heartbeat IPC: 0.768079 cumulative IPC: 0.744036 (Simulation time: 1 hr 14 min 4 sec) 
Heartbeat CPU 0 instructions: 104000000 cycles: 120185874 heartbeat IPC: 0.769147 cumulative IPC: 0.744486 (Simulation time: 1 hr 14 min 50 sec) 
Heartbeat CPU 0 instructions: 105000002 cycles: 121563911 heartbeat IPC: 0.725671 cumulative IPC: 0.744135 (Simulation time: 1 hr 15 min 35 sec) 
Heartbeat CPU 0 instructions: 106000000 cycles: 122969189 heartbeat IPC: 0.711602 cumulative IPC: 0.743528 (Simulation time: 1 hr 16 min 22 sec) 
Heartbeat CPU 0 instructions: 107000002 cycles: 124357993 heartbeat IPC: 0.720045 cumulative IPC: 0.743103 (Simulation time: 1 hr 17 min 5 sec) 
Heartbeat CPU 0 instructions: 108000000 cycles: 125712216 heartbeat IPC: 0.738429 cumulative IPC: 0.743022 (Simulation time: 1 hr 17 min 48 sec) 
Heartbeat CPU 0 instructions: 109000000 cycles: 127047362 heartbeat IPC: 0.748982 cumulative IPC: 0.743122 (Simulation time: 1 hr 18 min 31 sec) 
Heartbeat CPU 0 instructions: 110000000 cycles: 128376083 heartbeat IPC: 0.752603 cumulative IPC: 0.743278 (Simulation time: 1 hr 19 min 13 sec) 
Heartbeat CPU 0 instructions: 111000000 cycles: 129711072 heartbeat IPC: 0.74907 cumulative IPC: 0.743372 (Simulation time: 1 hr 19 min 55 sec) 
Heartbeat CPU 0 instructions: 112000000 cycles: 131098455 heartbeat IPC: 0.720782 cumulative IPC: 0.742997 (Simulation time: 1 hr 20 min 36 sec) 
Heartbeat CPU 0 instructions: 113000000 cycles: 132470747 heartbeat IPC: 0.728708 cumulative IPC: 0.742765 (Simulation time: 1 hr 21 min 15 sec) 
Heartbeat CPU 0 instructions: 114000001 cycles: 133798776 heartbeat IPC: 0.752996 cumulative IPC: 0.742923 (Simulation time: 1 hr 21 min 54 sec) 
Heartbeat CPU 0 instructions: 115000000 cycles: 135156088 heartbeat IPC: 0.73675 cumulative IPC: 0.742827 (Simulation time: 1 hr 22 min 33 sec) 
Heartbeat CPU 0 instructions: 116000000 cycles: 136472073 heartbeat IPC: 0.759887 cumulative IPC: 0.74308 (Simulation time: 1 hr 23 min 12 sec) 
Heartbeat CPU 0 instructions: 117000000 cycles: 137776620 heartbeat IPC: 0.76655 cumulative IPC: 0.74342 (Simulation time: 1 hr 23 min 53 sec) 
Heartbeat CPU 0 instructions: 118000002 cycles: 139143620 heartbeat IPC: 0.73153 cumulative IPC: 0.743242 (Simulation time: 1 hr 24 min 28 sec) 
Heartbeat CPU 0 instructions: 119000000 cycles: 140548496 heartbeat IPC: 0.711805 cumulative IPC: 0.742767 (Simulation time: 1 hr 25 min 5 sec) 
Heartbeat CPU 0 instructions: 120000000 cycles: 141976107 heartbeat IPC: 0.700471 cumulative IPC: 0.742127 (Simulation time: 1 hr 25 min 43 sec) 
Heartbeat CPU 0 instructions: 121000000 cycles: 143330081 heartbeat IPC: 0.738567 cumulative IPC: 0.742076 (Simulation time: 1 hr 26 min 22 sec) 
Heartbeat CPU 0 instructions: 122000003 cycles: 144663910 heartbeat IPC: 0.749724 cumulative IPC: 0.742181 (Simulation time: 1 hr 27 min 1 sec) 
Heartbeat CPU 0 instructions: 123000003 cycles: 145989563 heartbeat IPC: 0.754345 cumulative IPC: 0.742345 (Simulation time: 1 hr 27 min 41 sec) 
Heartbeat CPU 0 instructions: 124000000 cycles: 147327078 heartbeat IPC: 0.747653 cumulative IPC: 0.742417 (Simulation time: 1 hr 28 min 16 sec) 
Heartbeat CPU 0 instructions: 125000001 cycles: 148711967 heartbeat IPC: 0.72208 cumulative IPC: 0.742138 (Simulation time: 1 hr 28 min 48 sec) 
Heartbeat CPU 0 instructions: 126000000 cycles: 150041665 heartbeat IPC: 0.75205 cumulative IPC: 0.742267 (Simulation time: 1 hr 29 min 19 sec) 
Heartbeat CPU 0 instructions: 127000003 cycles: 151382050 heartbeat IPC: 0.746057 cumulative IPC: 0.742316 (Simulation time: 1 hr 29 min 48 sec) 
Heartbeat CPU 0 instructions: 128000000 cycles: 152694507 heartbeat IPC: 0.761927 cumulative IPC: 0.742561 (Simulation time: 1 hr 30 min 19 sec) 
Heartbeat CPU 0 instructions: 129000003 cycles: 153995273 heartbeat IPC: 0.76878 cumulative IPC: 0.742881 (Simulation time: 1 hr 30 min 50 sec) 
Heartbeat CPU 0 instructions: 130000000 cycles: 155289679 heartbeat IPC: 0.772553 cumulative IPC: 0.743238 (Simulation time: 1 hr 31 min 18 sec) 
Heartbeat CPU 0 instructions: 131000000 cycles: 156664119 heartbeat IPC: 0.727569 cumulative IPC: 0.743041 (Simulation time: 1 hr 31 min 47 sec) 
Heartbeat CPU 0 instructions: 132000000 cycles: 158061464 heartbeat IPC: 0.715643 cumulative IPC: 0.742694 (Simulation time: 1 hr 32 min 12 sec) 
Heartbeat CPU 0 instructions: 133000003 cycles: 159435829 heartbeat IPC: 0.727611 cumulative IPC: 0.742508 (Simulation time: 1 hr 32 min 39 sec) 
Heartbeat CPU 0 instructions: 134000000 cycles: 160783404 heartbeat IPC: 0.742072 cumulative IPC: 0.742503 (Simulation time: 1 hr 33 min 5 sec) 
Heartbeat CPU 0 instructions: 135000002 cycles: 162102318 heartbeat IPC: 0.758201 cumulative IPC: 0.742684 (Simulation time: 1 hr 33 min 33 sec) 
Heartbeat CPU 0 instructions: 136000000 cycles: 163408811 heartbeat IPC: 0.765406 cumulative IPC: 0.742941 (Simulation time: 1 hr 34 min 0 sec) 
Heartbeat CPU 0 instructions: 137000003 cycles: 164741286 heartbeat IPC: 0.750485 cumulative IPC: 0.743026 (Simulation time: 1 hr 34 min 25 sec) 
Heartbeat CPU 0 instructions: 138000003 cycles: 166089159 heartbeat IPC: 0.74191 cumulative IPC: 0.743014 (Simulation time: 1 hr 34 min 50 sec) 
Heartbeat CPU 0 instructions: 139000000 cycles: 167476261 heartbeat IPC: 0.720925 cumulative IPC: 0.742758 (Simulation time: 1 hr 35 min 15 sec) 
Heartbeat CPU 0 instructions: 140000000 cycles: 168800298 heartbeat IPC: 0.755266 cumulative IPC: 0.742895 (Simulation time: 1 hr 35 min 40 sec) 
Heartbeat CPU 0 instructions: 141000001 cycles: 170121254 heartbeat IPC: 0.757028 cumulative IPC: 0.743047 (Simulation time: 1 hr 36 min 6 sec) 
Heartbeat CPU 0 instructions: 142000000 cycles: 171421181 heartbeat IPC: 0.769273 cumulative IPC: 0.743323 (Simulation time: 1 hr 36 min 30 sec) 
Heartbeat CPU 0 instructions: 143000003 cycles: 172746056 heartbeat IPC: 0.75479 cumulative IPC: 0.743444 (Simulation time: 1 hr 36 min 54 sec) 
Heartbeat CPU 0 instructions: 144000000 cycles: 174090645 heartbeat IPC: 0.743719 cumulative IPC: 0.743447 (Simulation time: 1 hr 37 min 19 sec) 
Heartbeat CPU 0 instructions: 145000001 cycles: 175480688 heartbeat IPC: 0.719403 cumulative IPC: 0.743186 (Simulation time: 1 hr 37 min 44 sec) 
Heartbeat CPU 0 instructions: 146000000 cycles: 176887758 heartbeat IPC: 0.710696 cumulative IPC: 0.742832 (Simulation time: 1 hr 38 min 9 sec) 
Heartbeat CPU 0 instructions: 147000001 cycles: 178244245 heartbeat IPC: 0.737199 cumulative IPC: 0.742773 (Simulation time: 1 hr 38 min 34 sec) 
Heartbeat CPU 0 instructions: 148000000 cycles: 179569054 heartbeat IPC: 0.754825 cumulative IPC: 0.742894 (Simulation time: 1 hr 38 min 57 sec) 
Heartbeat CPU 0 instructions: 149000000 cycles: 180883350 heartbeat IPC: 0.760864 cumulative IPC: 0.743072 (Simulation time: 1 hr 39 min 20 sec) 
Heartbeat CPU 0 instructions: 150000000 cycles: 182205193 heartbeat IPC: 0.756519 cumulative IPC: 0.743204 (Simulation time: 1 hr 39 min 41 sec) 
Finished CPU 0 instructions: 100000000 cycles: 134552622 cummulative IPC: 0.743204 (Simulation time: 1 hr 39 min 41 sec) 

ChampSim completed all CPUs

Region of Interest Statistics

CPU 0 cummulative IPC: 0.743204 instructions: 100000000 cycles: 134552622
LLC TOTAL     ACCESS:   21168195  HIT:   21094676  MISS:      73519
LLC LOAD      ACCESS:     165333  HIT:     130499  MISS:      34834
LLC RFO       ACCESS:   10374956  HIT:   10369312  MISS:       5644
LLC PREFETCH  ACCESS:     183344  HIT:     150590  MISS:      32754
LLC WRITEBACK ACCESS:   10444562  HIT:   10444275  MISS:        287
OPTgen accesses: 104775
OPTgen hits: 104388
OPTgen hit rate: 99.6306


