
*** ChampSim Multicore Out-of-Order Simulator ***

Warmup Instructions: 50000000
Simulation Instructions: 100000000
Configuration: 2
Number of CPUs: 1
LLC sets: 2048
LLC ways: 16
Off-chip DRAM Channels: 1 Width: 64-bit Data Rate: 1600 MT/s

CPU 0 runs /datasets/cs240c-wi22-a00-public/data/Assignment2-gz/GemsFDTD_716B.trace.gz
CPU 0 L1D next line prefetcher
CPU 0 L2C IP-based stride prefetcher
Initialize Hawkeye state
Heartbeat CPU 0 instructions: 1000000 cycles: 415045 heartbeat IPC: 2.40938 cumulative IPC: 2.40938 (Simulation time: 0 hr 0 min 38 sec) 
Heartbeat CPU 0 instructions: 2000003 cycles: 829979 heartbeat IPC: 2.41003 cumulative IPC: 2.4097 (Simulation time: 0 hr 1 min 12 sec) 
Heartbeat CPU 0 instructions: 3000000 cycles: 1280233 heartbeat IPC: 2.22096 cumulative IPC: 2.34332 (Simulation time: 0 hr 1 min 45 sec) 
Heartbeat CPU 0 instructions: 4000000 cycles: 1737264 heartbeat IPC: 2.18804 cumulative IPC: 2.30247 (Simulation time: 0 hr 2 min 12 sec) 
Heartbeat CPU 0 instructions: 5000000 cycles: 2152245 heartbeat IPC: 2.40975 cumulative IPC: 2.32316 (Simulation time: 0 hr 2 min 46 sec) 
Heartbeat CPU 0 instructions: 6000000 cycles: 2567261 heartbeat IPC: 2.40955 cumulative IPC: 2.33712 (Simulation time: 0 hr 3 min 19 sec) 
Heartbeat CPU 0 instructions: 7000000 cycles: 2982264 heartbeat IPC: 2.40962 cumulative IPC: 2.34721 (Simulation time: 0 hr 3 min 46 sec) 
Heartbeat CPU 0 instructions: 8000000 cycles: 3395191 heartbeat IPC: 2.42174 cumulative IPC: 2.35627 (Simulation time: 0 hr 4 min 16 sec) 
Heartbeat CPU 0 instructions: 9000003 cycles: 3840224 heartbeat IPC: 2.24703 cumulative IPC: 2.34361 (Simulation time: 0 hr 4 min 50 sec) 
Heartbeat CPU 0 instructions: 10000002 cycles: 4354524 heartbeat IPC: 1.94439 cumulative IPC: 2.29646 (Simulation time: 0 hr 5 min 31 sec) 
Heartbeat CPU 0 instructions: 11000000 cycles: 4869365 heartbeat IPC: 1.94234 cumulative IPC: 2.25902 (Simulation time: 0 hr 6 min 11 sec) 
Heartbeat CPU 0 instructions: 12000000 cycles: 5383712 heartbeat IPC: 1.94421 cumulative IPC: 2.22895 (Simulation time: 0 hr 6 min 50 sec) 
Heartbeat CPU 0 instructions: 13000002 cycles: 5898421 heartbeat IPC: 1.94285 cumulative IPC: 2.20398 (Simulation time: 0 hr 7 min 30 sec) 
Heartbeat CPU 0 instructions: 14000000 cycles: 6414359 heartbeat IPC: 1.93821 cumulative IPC: 2.1826 (Simulation time: 0 hr 8 min 12 sec) 
Heartbeat CPU 0 instructions: 15000001 cycles: 6934537 heartbeat IPC: 1.92242 cumulative IPC: 2.16309 (Simulation time: 0 hr 8 min 58 sec) 
Heartbeat CPU 0 instructions: 16000000 cycles: 7454758 heartbeat IPC: 1.92226 cumulative IPC: 2.14628 (Simulation time: 0 hr 9 min 50 sec) 
Heartbeat CPU 0 instructions: 17000001 cycles: 7975466 heartbeat IPC: 1.92046 cumulative IPC: 2.13154 (Simulation time: 0 hr 10 min 34 sec) 
Heartbeat CPU 0 instructions: 18000000 cycles: 8496378 heartbeat IPC: 1.91971 cumulative IPC: 2.11855 (Simulation time: 0 hr 11 min 14 sec) 
Heartbeat CPU 0 instructions: 19000003 cycles: 9017520 heartbeat IPC: 1.91887 cumulative IPC: 2.10701 (Simulation time: 0 hr 11 min 57 sec) 
Heartbeat CPU 0 instructions: 20000000 cycles: 9556110 heartbeat IPC: 1.85669 cumulative IPC: 2.0929 (Simulation time: 0 hr 12 min 42 sec) 
Heartbeat CPU 0 instructions: 21000000 cycles: 10098208 heartbeat IPC: 1.84468 cumulative IPC: 2.07958 (Simulation time: 0 hr 13 min 23 sec) 
Heartbeat CPU 0 instructions: 22000001 cycles: 10639197 heartbeat IPC: 1.84847 cumulative IPC: 2.06783 (Simulation time: 0 hr 14 min 6 sec) 
Heartbeat CPU 0 instructions: 23000003 cycles: 11180675 heartbeat IPC: 1.8468 cumulative IPC: 2.05712 (Simulation time: 0 hr 14 min 58 sec) 
Heartbeat CPU 0 instructions: 24000000 cycles: 11722914 heartbeat IPC: 1.8442 cumulative IPC: 2.04727 (Simulation time: 0 hr 15 min 42 sec) 
Heartbeat CPU 0 instructions: 25000000 cycles: 12250717 heartbeat IPC: 1.89465 cumulative IPC: 2.0407 (Simulation time: 0 hr 16 min 27 sec) 
Heartbeat CPU 0 instructions: 26000000 cycles: 12769453 heartbeat IPC: 1.92776 cumulative IPC: 2.03611 (Simulation time: 0 hr 17 min 11 sec) 
Heartbeat CPU 0 instructions: 27000002 cycles: 13288156 heartbeat IPC: 1.92789 cumulative IPC: 2.03188 (Simulation time: 0 hr 17 min 50 sec) 
Heartbeat CPU 0 instructions: 28000000 cycles: 13806619 heartbeat IPC: 1.92877 cumulative IPC: 2.02801 (Simulation time: 0 hr 18 min 29 sec) 
Heartbeat CPU 0 instructions: 29000003 cycles: 14324790 heartbeat IPC: 1.92987 cumulative IPC: 2.02446 (Simulation time: 0 hr 19 min 8 sec) 
Heartbeat CPU 0 instructions: 30000001 cycles: 14858506 heartbeat IPC: 1.87365 cumulative IPC: 2.01905 (Simulation time: 0 hr 19 min 51 sec) 
Heartbeat CPU 0 instructions: 31000001 cycles: 15419743 heartbeat IPC: 1.78178 cumulative IPC: 2.01041 (Simulation time: 0 hr 20 min 34 sec) 
Heartbeat CPU 0 instructions: 32000000 cycles: 15981016 heartbeat IPC: 1.78166 cumulative IPC: 2.00238 (Simulation time: 0 hr 21 min 16 sec) 
Heartbeat CPU 0 instructions: 33000002 cycles: 16543263 heartbeat IPC: 1.77858 cumulative IPC: 1.99477 (Simulation time: 0 hr 21 min 54 sec) 
Heartbeat CPU 0 instructions: 34000001 cycles: 17104100 heartbeat IPC: 1.78305 cumulative IPC: 1.98783 (Simulation time: 0 hr 22 min 34 sec) 
Heartbeat CPU 0 instructions: 35000001 cycles: 17665387 heartbeat IPC: 1.78162 cumulative IPC: 1.98128 (Simulation time: 0 hr 23 min 12 sec) 
Heartbeat CPU 0 instructions: 36000000 cycles: 18228034 heartbeat IPC: 1.77731 cumulative IPC: 1.97498 (Simulation time: 0 hr 23 min 52 sec) 
Heartbeat CPU 0 instructions: 37000002 cycles: 18802011 heartbeat IPC: 1.74223 cumulative IPC: 1.96787 (Simulation time: 0 hr 24 min 40 sec) 
Heartbeat CPU 0 instructions: 38000002 cycles: 19375867 heartbeat IPC: 1.7426 cumulative IPC: 1.9612 (Simulation time: 0 hr 25 min 25 sec) 
Heartbeat CPU 0 instructions: 39000000 cycles: 19949562 heartbeat IPC: 1.74308 cumulative IPC: 1.95493 (Simulation time: 0 hr 26 min 16 sec) 
Heartbeat CPU 0 instructions: 40000000 cycles: 20523452 heartbeat IPC: 1.74249 cumulative IPC: 1.94899 (Simulation time: 0 hr 27 min 3 sec) 
Heartbeat CPU 0 instructions: 41000002 cycles: 21096921 heartbeat IPC: 1.74378 cumulative IPC: 1.94341 (Simulation time: 0 hr 27 min 51 sec) 
Heartbeat CPU 0 instructions: 42000000 cycles: 21670690 heartbeat IPC: 1.74286 cumulative IPC: 1.9381 (Simulation time: 0 hr 28 min 37 sec) 
Heartbeat CPU 0 instructions: 43000002 cycles: 22217773 heartbeat IPC: 1.82788 cumulative IPC: 1.93539 (Simulation time: 0 hr 29 min 29 sec) 
Heartbeat CPU 0 instructions: 44000000 cycles: 22751369 heartbeat IPC: 1.87407 cumulative IPC: 1.93395 (Simulation time: 0 hr 30 min 19 sec) 
Heartbeat CPU 0 instructions: 45000001 cycles: 23284774 heartbeat IPC: 1.87475 cumulative IPC: 1.93259 (Simulation time: 0 hr 31 min 11 sec) 
Heartbeat CPU 0 instructions: 46000001 cycles: 23818313 heartbeat IPC: 1.87428 cumulative IPC: 1.93129 (Simulation time: 0 hr 32 min 3 sec) 
Heartbeat CPU 0 instructions: 47000003 cycles: 24351776 heartbeat IPC: 1.87455 cumulative IPC: 1.93004 (Simulation time: 0 hr 32 min 54 sec) 
Heartbeat CPU 0 instructions: 48000000 cycles: 24890916 heartbeat IPC: 1.8548 cumulative IPC: 1.92841 (Simulation time: 0 hr 33 min 47 sec) 
Heartbeat CPU 0 instructions: 49000003 cycles: 25437916 heartbeat IPC: 1.82816 cumulative IPC: 1.92626 (Simulation time: 0 hr 34 min 44 sec) 
Heartbeat CPU 0 instructions: 50000003 cycles: 25985043 heartbeat IPC: 1.82773 cumulative IPC: 1.92418 (Simulation time: 0 hr 35 min 35 sec) 

Warmup complete CPU 0 instructions: 50000003 cycles: 25985043 (Simulation time: 0 hr 35 min 35 sec) 

Heartbeat CPU 0 instructions: 51000003 cycles: 29569979 heartbeat IPC: 0.278945 cumulative IPC: 0.278945 (Simulation time: 0 hr 36 min 51 sec) 
Heartbeat CPU 0 instructions: 52000000 cycles: 33154408 heartbeat IPC: 0.278984 cumulative IPC: 0.278964 (Simulation time: 0 hr 38 min 9 sec) 
Heartbeat CPU 0 instructions: 53000002 cycles: 36873568 heartbeat IPC: 0.268878 cumulative IPC: 0.275519 (Simulation time: 0 hr 39 min 29 sec) 
Heartbeat CPU 0 instructions: 54000001 cycles: 38930014 heartbeat IPC: 0.486275 cumulative IPC: 0.309 (Simulation time: 0 hr 40 min 29 sec) 
Heartbeat CPU 0 instructions: 55000002 cycles: 40735480 heartbeat IPC: 0.553874 cumulative IPC: 0.338973 (Simulation time: 0 hr 41 min 28 sec) 
Heartbeat CPU 0 instructions: 56000000 cycles: 42588840 heartbeat IPC: 0.539559 cumulative IPC: 0.361363 (Simulation time: 0 hr 42 min 26 sec) 
Heartbeat CPU 0 instructions: 57000002 cycles: 44427637 heartbeat IPC: 0.543835 cumulative IPC: 0.379556 (Simulation time: 0 hr 43 min 27 sec) 
Heartbeat CPU 0 instructions: 58000001 cycles: 46197624 heartbeat IPC: 0.564975 cumulative IPC: 0.395793 (Simulation time: 0 hr 44 min 29 sec) 
Heartbeat CPU 0 instructions: 59000002 cycles: 48203569 heartbeat IPC: 0.498519 cumulative IPC: 0.405067 (Simulation time: 0 hr 45 min 32 sec) 
Heartbeat CPU 0 instructions: 60000000 cycles: 49731806 heartbeat IPC: 0.654347 cumulative IPC: 0.42111 (Simulation time: 0 hr 46 min 33 sec) 
Heartbeat CPU 0 instructions: 61000002 cycles: 51261182 heartbeat IPC: 0.653863 cumulative IPC: 0.435193 (Simulation time: 0 hr 47 min 32 sec) 
Heartbeat CPU 0 instructions: 62000000 cycles: 52801758 heartbeat IPC: 0.649107 cumulative IPC: 0.447482 (Simulation time: 0 hr 48 min 31 sec) 
Heartbeat CPU 0 instructions: 63000000 cycles: 54360785 heartbeat IPC: 0.641426 cumulative IPC: 0.458138 (Simulation time: 0 hr 49 min 37 sec) 
Heartbeat CPU 0 instructions: 64000000 cycles: 56137934 heartbeat IPC: 0.562699 cumulative IPC: 0.4643 (Simulation time: 0 hr 50 min 40 sec) 
Heartbeat CPU 0 instructions: 65000001 cycles: 57504514 heartbeat IPC: 0.731754 cumulative IPC: 0.475896 (Simulation time: 0 hr 51 min 41 sec) 
Heartbeat CPU 0 instructions: 66000003 cycles: 58847517 heartbeat IPC: 0.744601 cumulative IPC: 0.486878 (Simulation time: 0 hr 52 min 40 sec) 
Heartbeat CPU 0 instructions: 67000003 cycles: 60190428 heartbeat IPC: 0.744651 cumulative IPC: 0.496998 (Simulation time: 0 hr 53 min 46 sec) 
Heartbeat CPU 0 instructions: 68000000 cycles: 61527298 heartbeat IPC: 0.748014 cumulative IPC: 0.506439 (Simulation time: 0 hr 54 min 47 sec) 
Heartbeat CPU 0 instructions: 69000000 cycles: 62862323 heartbeat IPC: 0.74905 cumulative IPC: 0.515222 (Simulation time: 0 hr 55 min 48 sec) 
Heartbeat CPU 0 instructions: 70000000 cycles: 64510787 heartbeat IPC: 0.606625 cumulative IPC: 0.519133 (Simulation time: 0 hr 56 min 48 sec) 
Heartbeat CPU 0 instructions: 71000000 cycles: 65994808 heartbeat IPC: 0.673845 cumulative IPC: 0.524872 (Simulation time: 0 hr 57 min 44 sec) 
Heartbeat CPU 0 instructions: 72000000 cycles: 67352379 heartbeat IPC: 0.73661 cumulative IPC: 0.53182 (Simulation time: 0 hr 58 min 39 sec) 
Heartbeat CPU 0 instructions: 73000002 cycles: 68712697 heartbeat IPC: 0.735124 cumulative IPC: 0.538293 (Simulation time: 0 hr 59 min 32 sec) 
Heartbeat CPU 0 instructions: 74000000 cycles: 70074904 heartbeat IPC: 0.734101 cumulative IPC: 0.544343 (Simulation time: 1 hr 0 min 32 sec) 
Heartbeat CPU 0 instructions: 75000000 cycles: 71441886 heartbeat IPC: 0.731539 cumulative IPC: 0.549972 (Simulation time: 1 hr 1 min 34 sec) 
Heartbeat CPU 0 instructions: 76000000 cycles: 72806623 heartbeat IPC: 0.732742 cumulative IPC: 0.555299 (Simulation time: 1 hr 2 min 36 sec) 
Heartbeat CPU 0 instructions: 77000001 cycles: 76503437 heartbeat IPC: 0.270503 cumulative IPC: 0.534459 (Simulation time: 1 hr 3 min 56 sec) 
Heartbeat CPU 0 instructions: 78000000 cycles: 79898774 heartbeat IPC: 0.294521 cumulative IPC: 0.519348 (Simulation time: 1 hr 5 min 13 sec) 
Heartbeat CPU 0 instructions: 79000002 cycles: 83282868 heartbeat IPC: 0.295501 cumulative IPC: 0.506127 (Simulation time: 1 hr 6 min 31 sec) 
Heartbeat CPU 0 instructions: 80000000 cycles: 86668591 heartbeat IPC: 0.295357 cumulative IPC: 0.494368 (Simulation time: 1 hr 7 min 44 sec) 
Heartbeat CPU 0 instructions: 81000000 cycles: 90053490 heartbeat IPC: 0.29543 cumulative IPC: 0.483857 (Simulation time: 1 hr 8 min 59 sec) 
Heartbeat CPU 0 instructions: 82000002 cycles: 93909577 heartbeat IPC: 0.259331 cumulative IPC: 0.471111 (Simulation time: 1 hr 10 min 19 sec) 
Heartbeat CPU 0 instructions: 83000002 cycles: 97525082 heartbeat IPC: 0.276587 cumulative IPC: 0.46128 (Simulation time: 1 hr 11 min 31 sec) 
Heartbeat CPU 0 instructions: 84000000 cycles: 101147533 heartbeat IPC: 0.276056 cumulative IPC: 0.452353 (Simulation time: 1 hr 12 min 45 sec) 
Heartbeat CPU 0 instructions: 85000000 cycles: 104767288 heartbeat IPC: 0.276262 cumulative IPC: 0.444263 (Simulation time: 1 hr 13 min 54 sec) 
Heartbeat CPU 0 instructions: 86000000 cycles: 108388351 heartbeat IPC: 0.276162 cumulative IPC: 0.436876 (Simulation time: 1 hr 15 min 0 sec) 
Heartbeat CPU 0 instructions: 87000000 cycles: 111868270 heartbeat IPC: 0.287363 cumulative IPC: 0.430817 (Simulation time: 1 hr 16 min 3 sec) 
Heartbeat CPU 0 instructions: 88000000 cycles: 113536287 heartbeat IPC: 0.599514 cumulative IPC: 0.434031 (Simulation time: 1 hr 16 min 58 sec) 
Heartbeat CPU 0 instructions: 89000001 cycles: 115142801 heartbeat IPC: 0.622466 cumulative IPC: 0.437427 (Simulation time: 1 hr 17 min 53 sec) 
Heartbeat CPU 0 instructions: 90000001 cycles: 116747347 heartbeat IPC: 0.623229 cumulative IPC: 0.440712 (Simulation time: 1 hr 18 min 47 sec) 
Heartbeat CPU 0 instructions: 91000001 cycles: 118356834 heartbeat IPC: 0.621316 cumulative IPC: 0.443858 (Simulation time: 1 hr 19 min 42 sec) 
Heartbeat CPU 0 instructions: 92000000 cycles: 119965147 heartbeat IPC: 0.621769 cumulative IPC: 0.446903 (Simulation time: 1 hr 20 min 36 sec) 
Heartbeat CPU 0 instructions: 93000002 cycles: 121770453 heartbeat IPC: 0.553924 cumulative IPC: 0.44892 (Simulation time: 1 hr 21 min 31 sec) 
Heartbeat CPU 0 instructions: 94000001 cycles: 123172992 heartbeat IPC: 0.712992 cumulative IPC: 0.452731 (Simulation time: 1 hr 22 min 20 sec) 
Heartbeat CPU 0 instructions: 95000000 cycles: 124568565 heartbeat IPC: 0.716551 cumulative IPC: 0.456466 (Simulation time: 1 hr 23 min 14 sec) 
Heartbeat CPU 0 instructions: 96000000 cycles: 125974752 heartbeat IPC: 0.711143 cumulative IPC: 0.460047 (Simulation time: 1 hr 24 min 11 sec) 
Heartbeat CPU 0 instructions: 97000001 cycles: 127375113 heartbeat IPC: 0.714102 cumulative IPC: 0.463556 (Simulation time: 1 hr 25 min 7 sec) 
Heartbeat CPU 0 instructions: 98000000 cycles: 129259962 heartbeat IPC: 0.530546 cumulative IPC: 0.464779 (Simulation time: 1 hr 26 min 0 sec) 
Heartbeat CPU 0 instructions: 99000001 cycles: 130662373 heartbeat IPC: 0.713058 cumulative IPC: 0.468105 (Simulation time: 1 hr 26 min 46 sec) 
Heartbeat CPU 0 instructions: 100000000 cycles: 132026990 heartbeat IPC: 0.732806 cumulative IPC: 0.471511 (Simulation time: 1 hr 27 min 32 sec) 
Heartbeat CPU 0 instructions: 101000002 cycles: 133386745 heartbeat IPC: 0.735428 cumulative IPC: 0.474853 (Simulation time: 1 hr 28 min 14 sec) 
Heartbeat CPU 0 instructions: 102000003 cycles: 134749860 heartbeat IPC: 0.733615 cumulative IPC: 0.478096 (Simulation time: 1 hr 28 min 54 sec) 
Heartbeat CPU 0 instructions: 103000000 cycles: 136110397 heartbeat IPC: 0.735002 cumulative IPC: 0.48127 (Simulation time: 1 hr 29 min 30 sec) 
Heartbeat CPU 0 instructions: 104000000 cycles: 137808889 heartbeat IPC: 0.588758 cumulative IPC: 0.482902 (Simulation time: 1 hr 30 min 10 sec) 
Heartbeat CPU 0 instructions: 105000003 cycles: 139198451 heartbeat IPC: 0.719653 cumulative IPC: 0.485808 (Simulation time: 1 hr 30 min 53 sec) 
Heartbeat CPU 0 instructions: 106000001 cycles: 140576259 heartbeat IPC: 0.725789 cumulative IPC: 0.488694 (Simulation time: 1 hr 31 min 33 sec) 
Heartbeat CPU 0 instructions: 107000001 cycles: 141964490 heartbeat IPC: 0.720341 cumulative IPC: 0.491466 (Simulation time: 1 hr 32 min 8 sec) 
Heartbeat CPU 0 instructions: 108000000 cycles: 143342627 heartbeat IPC: 0.725617 cumulative IPC: 0.494216 (Simulation time: 1 hr 32 min 42 sec) 
Heartbeat CPU 0 instructions: 109000000 cycles: 144721723 heartbeat IPC: 0.725113 cumulative IPC: 0.496898 (Simulation time: 1 hr 33 min 16 sec) 
Heartbeat CPU 0 instructions: 110000002 cycles: 146484871 heartbeat IPC: 0.567168 cumulative IPC: 0.497926 (Simulation time: 1 hr 33 min 51 sec) 
Heartbeat CPU 0 instructions: 111000002 cycles: 149965727 heartbeat IPC: 0.287286 cumulative IPC: 0.492012 (Simulation time: 1 hr 34 min 35 sec) 
Heartbeat CPU 0 instructions: 112000000 cycles: 153305572 heartbeat IPC: 0.299414 cumulative IPC: 0.48696 (Simulation time: 1 hr 35 min 20 sec) 
Heartbeat CPU 0 instructions: 113000001 cycles: 156639916 heartbeat IPC: 0.299909 cumulative IPC: 0.482186 (Simulation time: 1 hr 36 min 2 sec) 
Heartbeat CPU 0 instructions: 114000000 cycles: 159977020 heartbeat IPC: 0.299661 cumulative IPC: 0.477641 (Simulation time: 1 hr 36 min 43 sec) 
Heartbeat CPU 0 instructions: 115000002 cycles: 163307540 heartbeat IPC: 0.300254 cumulative IPC: 0.473338 (Simulation time: 1 hr 37 min 25 sec) 
Heartbeat CPU 0 instructions: 116000000 cycles: 167334126 heartbeat IPC: 0.248349 cumulative IPC: 0.466929 (Simulation time: 1 hr 38 min 7 sec) 
Heartbeat CPU 0 instructions: 117000000 cycles: 170937702 heartbeat IPC: 0.277502 cumulative IPC: 0.46222 (Simulation time: 1 hr 38 min 50 sec) 
Heartbeat CPU 0 instructions: 118000000 cycles: 174539791 heartbeat IPC: 0.277617 cumulative IPC: 0.457744 (Simulation time: 1 hr 39 min 29 sec) 
Heartbeat CPU 0 instructions: 119000003 cycles: 178145235 heartbeat IPC: 0.277359 cumulative IPC: 0.453469 (Simulation time: 1 hr 40 min 2 sec) 
Heartbeat CPU 0 instructions: 120000000 cycles: 181742263 heartbeat IPC: 0.278006 cumulative IPC: 0.449417 (Simulation time: 1 hr 40 min 33 sec) 
Heartbeat CPU 0 instructions: 121000001 cycles: 185061958 heartbeat IPC: 0.301233 cumulative IPC: 0.446325 (Simulation time: 1 hr 41 min 2 sec) 
Heartbeat CPU 0 instructions: 122000001 cycles: 187075202 heartbeat IPC: 0.496711 cumulative IPC: 0.446955 (Simulation time: 1 hr 41 min 25 sec) 
Heartbeat CPU 0 instructions: 123000000 cycles: 189009852 heartbeat IPC: 0.516889 cumulative IPC: 0.447785 (Simulation time: 1 hr 41 min 47 sec) 
Heartbeat CPU 0 instructions: 124000000 cycles: 190951953 heartbeat IPC: 0.514906 cumulative IPC: 0.448575 (Simulation time: 1 hr 42 min 10 sec) 
Heartbeat CPU 0 instructions: 125000001 cycles: 192892769 heartbeat IPC: 0.515248 cumulative IPC: 0.44935 (Simulation time: 1 hr 42 min 29 sec) 
Heartbeat CPU 0 instructions: 126000001 cycles: 195185027 heartbeat IPC: 0.436251 cumulative IPC: 0.449173 (Simulation time: 1 hr 42 min 46 sec) 
Heartbeat CPU 0 instructions: 127000000 cycles: 197166086 heartbeat IPC: 0.50478 cumulative IPC: 0.449816 (Simulation time: 1 hr 43 min 4 sec) 
Heartbeat CPU 0 instructions: 128000000 cycles: 199121757 heartbeat IPC: 0.511333 cumulative IPC: 0.450511 (Simulation time: 1 hr 43 min 21 sec) 
Heartbeat CPU 0 instructions: 129000000 cycles: 201011799 heartbeat IPC: 0.529089 cumulative IPC: 0.45136 (Simulation time: 1 hr 43 min 38 sec) 
Heartbeat CPU 0 instructions: 130000003 cycles: 202940730 heartbeat IPC: 0.518423 cumulative IPC: 0.452091 (Simulation time: 1 hr 43 min 53 sec) 
Heartbeat CPU 0 instructions: 131000001 cycles: 204906128 heartbeat IPC: 0.508802 cumulative IPC: 0.452714 (Simulation time: 1 hr 44 min 5 sec) 
Heartbeat CPU 0 instructions: 132000000 cycles: 206632144 heartbeat IPC: 0.579368 cumulative IPC: 0.453924 (Simulation time: 1 hr 44 min 15 sec) 
Heartbeat CPU 0 instructions: 133000000 cycles: 207978492 heartbeat IPC: 0.74275 cumulative IPC: 0.45606 (Simulation time: 1 hr 44 min 25 sec) 
Heartbeat CPU 0 instructions: 134000003 cycles: 209329153 heartbeat IPC: 0.74038 cumulative IPC: 0.458155 (Simulation time: 1 hr 44 min 34 sec) 
Heartbeat CPU 0 instructions: 135000001 cycles: 210681154 heartbeat IPC: 0.739643 cumulative IPC: 0.460215 (Simulation time: 1 hr 44 min 42 sec) 
Heartbeat CPU 0 instructions: 136000000 cycles: 212031745 heartbeat IPC: 0.740416 cumulative IPC: 0.46225 (Simulation time: 1 hr 44 min 51 sec) 
Heartbeat CPU 0 instructions: 137000001 cycles: 213381864 heartbeat IPC: 0.740676 cumulative IPC: 0.464255 (Simulation time: 1 hr 45 min 0 sec) 
Heartbeat CPU 0 instructions: 138000000 cycles: 215170226 heartbeat IPC: 0.55917 cumulative IPC: 0.465153 (Simulation time: 1 hr 45 min 8 sec) 
Heartbeat CPU 0 instructions: 139000001 cycles: 216538960 heartbeat IPC: 0.730603 cumulative IPC: 0.467059 (Simulation time: 1 hr 45 min 17 sec) 
Heartbeat CPU 0 instructions: 140000000 cycles: 217908369 heartbeat IPC: 0.730241 cumulative IPC: 0.468937 (Simulation time: 1 hr 45 min 25 sec) 
Heartbeat CPU 0 instructions: 141000000 cycles: 219282422 heartbeat IPC: 0.727774 cumulative IPC: 0.470777 (Simulation time: 1 hr 45 min 33 sec) 
Heartbeat CPU 0 instructions: 142000002 cycles: 220647778 heartbeat IPC: 0.732411 cumulative IPC: 0.472612 (Simulation time: 1 hr 45 min 41 sec) 
Heartbeat CPU 0 instructions: 143000000 cycles: 222012771 heartbeat IPC: 0.732603 cumulative IPC: 0.474423 (Simulation time: 1 hr 45 min 48 sec) 
Heartbeat CPU 0 instructions: 144000000 cycles: 223416346 heartbeat IPC: 0.712466 cumulative IPC: 0.476115 (Simulation time: 1 hr 45 min 54 sec) 
Heartbeat CPU 0 instructions: 145000000 cycles: 224905188 heartbeat IPC: 0.671663 cumulative IPC: 0.477579 (Simulation time: 1 hr 46 min 0 sec) 
Heartbeat CPU 0 instructions: 146000000 cycles: 226348571 heartbeat IPC: 0.692817 cumulative IPC: 0.479129 (Simulation time: 1 hr 46 min 6 sec) 
Heartbeat CPU 0 instructions: 147000003 cycles: 227869671 heartbeat IPC: 0.657421 cumulative IPC: 0.480472 (Simulation time: 1 hr 46 min 11 sec) 
Heartbeat CPU 0 instructions: 148000000 cycles: 229458453 heartbeat IPC: 0.629411 cumulative IPC: 0.481635 (Simulation time: 1 hr 46 min 17 sec) 
Heartbeat CPU 0 instructions: 149000002 cycles: 231019264 heartbeat IPC: 0.640694 cumulative IPC: 0.482846 (Simulation time: 1 hr 46 min 22 sec) 
Heartbeat CPU 0 instructions: 150000003 cycles: 232612976 heartbeat IPC: 0.627467 cumulative IPC: 0.483962 (Simulation time: 1 hr 46 min 28 sec) 
Finished CPU 0 instructions: 100000000 cycles: 206627933 cummulative IPC: 0.483962 (Simulation time: 1 hr 46 min 28 sec) 

ChampSim completed all CPUs

Region of Interest Statistics

CPU 0 cummulative IPC: 0.483962 instructions: 100000000 cycles: 206627933
LLC TOTAL     ACCESS:   12337390  HIT:   10148554  MISS:    2188836
LLC LOAD      ACCESS:    4933076  HIT:    4225301  MISS:     707775
LLC RFO       ACCESS:         16  HIT:          0  MISS:         16
LLC PREFETCH  ACCESS:    6495220  HIT:    5054084  MISS:    1441136
LLC WRITEBACK ACCESS:     909078  HIT:     869169  MISS:      39909
OPTgen accesses: 54544
OPTgen hits: 83776
OPTgen hit rate: 153.593


