
*** ChampSim Multicore Out-of-Order Simulator ***

Warmup Instructions: 50000000
Simulation Instructions: 100000000
Configuration: 2
Number of CPUs: 1
LLC sets: 2048
LLC ways: 16
Off-chip DRAM Channels: 1 Width: 64-bit Data Rate: 1600 MT/s

CPU 0 runs /datasets/cs240c-wi22-a00-public/data/Assignment2-gz/perlbench_135B.trace.gz
CPU 0 L1D next line prefetcher
CPU 0 L2C IP-based stride prefetcher
Initialize Hawkeye state
Heartbeat CPU 0 instructions: 1000000 cycles: 600033 heartbeat IPC: 1.66657 cumulative IPC: 1.66657 (Simulation time: 0 hr 0 min 53 sec) 
Heartbeat CPU 0 instructions: 2000000 cycles: 1209301 heartbeat IPC: 1.64131 cumulative IPC: 1.65385 (Simulation time: 0 hr 1 min 37 sec) 
Heartbeat CPU 0 instructions: 3000000 cycles: 1832834 heartbeat IPC: 1.60376 cumulative IPC: 1.63681 (Simulation time: 0 hr 2 min 21 sec) 
Heartbeat CPU 0 instructions: 4000000 cycles: 2492639 heartbeat IPC: 1.5156 cumulative IPC: 1.60473 (Simulation time: 0 hr 3 min 0 sec) 
Heartbeat CPU 0 instructions: 5000001 cycles: 3079302 heartbeat IPC: 1.70456 cumulative IPC: 1.62374 (Simulation time: 0 hr 3 min 38 sec) 
Heartbeat CPU 0 instructions: 6000002 cycles: 3681731 heartbeat IPC: 1.65995 cumulative IPC: 1.62967 (Simulation time: 0 hr 4 min 15 sec) 
Heartbeat CPU 0 instructions: 7000001 cycles: 4282509 heartbeat IPC: 1.66451 cumulative IPC: 1.63456 (Simulation time: 0 hr 4 min 57 sec) 
Heartbeat CPU 0 instructions: 8000000 cycles: 4893000 heartbeat IPC: 1.63802 cumulative IPC: 1.63499 (Simulation time: 0 hr 5 min 36 sec) 
Heartbeat CPU 0 instructions: 9000001 cycles: 5534130 heartbeat IPC: 1.55975 cumulative IPC: 1.62627 (Simulation time: 0 hr 6 min 15 sec) 
Heartbeat CPU 0 instructions: 10000000 cycles: 6192841 heartbeat IPC: 1.51811 cumulative IPC: 1.61477 (Simulation time: 0 hr 6 min 57 sec) 
Heartbeat CPU 0 instructions: 11000003 cycles: 6888954 heartbeat IPC: 1.43655 cumulative IPC: 1.59676 (Simulation time: 0 hr 7 min 39 sec) 
Heartbeat CPU 0 instructions: 12000000 cycles: 7505167 heartbeat IPC: 1.62281 cumulative IPC: 1.5989 (Simulation time: 0 hr 8 min 23 sec) 
Heartbeat CPU 0 instructions: 13000000 cycles: 8134118 heartbeat IPC: 1.58995 cumulative IPC: 1.59821 (Simulation time: 0 hr 9 min 8 sec) 
Heartbeat CPU 0 instructions: 14000002 cycles: 8774598 heartbeat IPC: 1.56133 cumulative IPC: 1.59551 (Simulation time: 0 hr 9 min 52 sec) 
Heartbeat CPU 0 instructions: 15000003 cycles: 9413471 heartbeat IPC: 1.56526 cumulative IPC: 1.59346 (Simulation time: 0 hr 10 min 32 sec) 
Heartbeat CPU 0 instructions: 16000000 cycles: 10053306 heartbeat IPC: 1.5629 cumulative IPC: 1.59152 (Simulation time: 0 hr 11 min 11 sec) 
Heartbeat CPU 0 instructions: 17000000 cycles: 10694464 heartbeat IPC: 1.55968 cumulative IPC: 1.58961 (Simulation time: 0 hr 11 min 50 sec) 
Heartbeat CPU 0 instructions: 18000000 cycles: 11335134 heartbeat IPC: 1.56087 cumulative IPC: 1.58798 (Simulation time: 0 hr 12 min 35 sec) 
Heartbeat CPU 0 instructions: 19000003 cycles: 11972214 heartbeat IPC: 1.56967 cumulative IPC: 1.58701 (Simulation time: 0 hr 13 min 15 sec) 
Heartbeat CPU 0 instructions: 20000000 cycles: 12611053 heartbeat IPC: 1.56533 cumulative IPC: 1.58591 (Simulation time: 0 hr 13 min 51 sec) 
Heartbeat CPU 0 instructions: 21000000 cycles: 13246417 heartbeat IPC: 1.5739 cumulative IPC: 1.58533 (Simulation time: 0 hr 14 min 28 sec) 
Heartbeat CPU 0 instructions: 22000002 cycles: 13885162 heartbeat IPC: 1.56557 cumulative IPC: 1.58443 (Simulation time: 0 hr 15 min 9 sec) 
Heartbeat CPU 0 instructions: 23000003 cycles: 14552683 heartbeat IPC: 1.49808 cumulative IPC: 1.58046 (Simulation time: 0 hr 15 min 52 sec) 
Heartbeat CPU 0 instructions: 24000000 cycles: 15116558 heartbeat IPC: 1.77344 cumulative IPC: 1.58766 (Simulation time: 0 hr 16 min 29 sec) 
Heartbeat CPU 0 instructions: 25000000 cycles: 15773463 heartbeat IPC: 1.52229 cumulative IPC: 1.58494 (Simulation time: 0 hr 17 min 14 sec) 
Heartbeat CPU 0 instructions: 26000001 cycles: 16389367 heartbeat IPC: 1.62363 cumulative IPC: 1.58639 (Simulation time: 0 hr 17 min 54 sec) 
Heartbeat CPU 0 instructions: 27000000 cycles: 17029591 heartbeat IPC: 1.56195 cumulative IPC: 1.58548 (Simulation time: 0 hr 18 min 34 sec) 
Heartbeat CPU 0 instructions: 28000000 cycles: 17670298 heartbeat IPC: 1.56078 cumulative IPC: 1.58458 (Simulation time: 0 hr 19 min 12 sec) 
Heartbeat CPU 0 instructions: 29000000 cycles: 18307828 heartbeat IPC: 1.56855 cumulative IPC: 1.58402 (Simulation time: 0 hr 19 min 55 sec) 
Heartbeat CPU 0 instructions: 30000002 cycles: 18953464 heartbeat IPC: 1.54886 cumulative IPC: 1.58282 (Simulation time: 0 hr 20 min 38 sec) 
Heartbeat CPU 0 instructions: 31000001 cycles: 19590074 heartbeat IPC: 1.57082 cumulative IPC: 1.58243 (Simulation time: 0 hr 21 min 17 sec) 
Heartbeat CPU 0 instructions: 32000000 cycles: 20230244 heartbeat IPC: 1.56208 cumulative IPC: 1.58179 (Simulation time: 0 hr 21 min 59 sec) 
Heartbeat CPU 0 instructions: 33000000 cycles: 20865565 heartbeat IPC: 1.57401 cumulative IPC: 1.58155 (Simulation time: 0 hr 22 min 36 sec) 
Heartbeat CPU 0 instructions: 34000001 cycles: 21501899 heartbeat IPC: 1.5715 cumulative IPC: 1.58126 (Simulation time: 0 hr 23 min 19 sec) 
Heartbeat CPU 0 instructions: 35000003 cycles: 22157649 heartbeat IPC: 1.52497 cumulative IPC: 1.57959 (Simulation time: 0 hr 24 min 5 sec) 
Heartbeat CPU 0 instructions: 36000000 cycles: 22756711 heartbeat IPC: 1.66927 cumulative IPC: 1.58195 (Simulation time: 0 hr 24 min 41 sec) 
Heartbeat CPU 0 instructions: 37000000 cycles: 23371686 heartbeat IPC: 1.62608 cumulative IPC: 1.58311 (Simulation time: 0 hr 25 min 25 sec) 
Heartbeat CPU 0 instructions: 38000002 cycles: 23943934 heartbeat IPC: 1.7475 cumulative IPC: 1.58704 (Simulation time: 0 hr 26 min 15 sec) 
Heartbeat CPU 0 instructions: 39000000 cycles: 24547917 heartbeat IPC: 1.65567 cumulative IPC: 1.58873 (Simulation time: 0 hr 26 min 58 sec) 
Heartbeat CPU 0 instructions: 40000000 cycles: 25099428 heartbeat IPC: 1.8132 cumulative IPC: 1.59366 (Simulation time: 0 hr 27 min 41 sec) 
Heartbeat CPU 0 instructions: 41000001 cycles: 25665971 heartbeat IPC: 1.76509 cumulative IPC: 1.59745 (Simulation time: 0 hr 28 min 34 sec) 
Heartbeat CPU 0 instructions: 42000003 cycles: 26303573 heartbeat IPC: 1.56838 cumulative IPC: 1.59674 (Simulation time: 0 hr 29 min 28 sec) 
Heartbeat CPU 0 instructions: 43000001 cycles: 26969667 heartbeat IPC: 1.50129 cumulative IPC: 1.59438 (Simulation time: 0 hr 30 min 26 sec) 
Heartbeat CPU 0 instructions: 44000000 cycles: 27581850 heartbeat IPC: 1.6335 cumulative IPC: 1.59525 (Simulation time: 0 hr 31 min 25 sec) 
Heartbeat CPU 0 instructions: 45000003 cycles: 28227731 heartbeat IPC: 1.54828 cumulative IPC: 1.59418 (Simulation time: 0 hr 32 min 27 sec) 
Heartbeat CPU 0 instructions: 46000000 cycles: 28867358 heartbeat IPC: 1.56341 cumulative IPC: 1.5935 (Simulation time: 0 hr 33 min 17 sec) 
Heartbeat CPU 0 instructions: 47000000 cycles: 29506481 heartbeat IPC: 1.56464 cumulative IPC: 1.59287 (Simulation time: 0 hr 34 min 8 sec) 
Heartbeat CPU 0 instructions: 48000000 cycles: 30146636 heartbeat IPC: 1.56212 cumulative IPC: 1.59222 (Simulation time: 0 hr 34 min 55 sec) 
Heartbeat CPU 0 instructions: 49000003 cycles: 30788570 heartbeat IPC: 1.5578 cumulative IPC: 1.5915 (Simulation time: 0 hr 35 min 39 sec) 
Heartbeat CPU 0 instructions: 50000001 cycles: 31428174 heartbeat IPC: 1.56346 cumulative IPC: 1.59093 (Simulation time: 0 hr 36 min 25 sec) 

Warmup complete CPU 0 instructions: 50000001 cycles: 31428174 (Simulation time: 0 hr 36 min 25 sec) 

Heartbeat CPU 0 instructions: 51000000 cycles: 34046778 heartbeat IPC: 0.381882 cumulative IPC: 0.381882 (Simulation time: 0 hr 37 min 20 sec) 
Heartbeat CPU 0 instructions: 52000000 cycles: 36657294 heartbeat IPC: 0.383066 cumulative IPC: 0.382473 (Simulation time: 0 hr 38 min 15 sec) 
Heartbeat CPU 0 instructions: 53000000 cycles: 39241872 heartbeat IPC: 0.38691 cumulative IPC: 0.383941 (Simulation time: 0 hr 39 min 12 sec) 
Heartbeat CPU 0 instructions: 54000001 cycles: 41880899 heartbeat IPC: 0.378928 cumulative IPC: 0.382675 (Simulation time: 0 hr 40 min 5 sec) 
Heartbeat CPU 0 instructions: 55000001 cycles: 44327476 heartbeat IPC: 0.408734 cumulative IPC: 0.387618 (Simulation time: 0 hr 41 min 3 sec) 
Heartbeat CPU 0 instructions: 56000000 cycles: 46451238 heartbeat IPC: 0.470862 cumulative IPC: 0.399386 (Simulation time: 0 hr 41 min 54 sec) 
Heartbeat CPU 0 instructions: 57000000 cycles: 48652767 heartbeat IPC: 0.45423 cumulative IPC: 0.406396 (Simulation time: 0 hr 42 min 46 sec) 
Heartbeat CPU 0 instructions: 58000002 cycles: 50600556 heartbeat IPC: 0.513404 cumulative IPC: 0.417267 (Simulation time: 0 hr 43 min 33 sec) 
Heartbeat CPU 0 instructions: 59000003 cycles: 52718654 heartbeat IPC: 0.472122 cumulative IPC: 0.422724 (Simulation time: 0 hr 44 min 22 sec) 
Heartbeat CPU 0 instructions: 60000000 cycles: 55779345 heartbeat IPC: 0.326723 cumulative IPC: 0.410658 (Simulation time: 0 hr 45 min 11 sec) 
Heartbeat CPU 0 instructions: 61000000 cycles: 58202360 heartbeat IPC: 0.412709 cumulative IPC: 0.410843 (Simulation time: 0 hr 46 min 3 sec) 
Heartbeat CPU 0 instructions: 62000001 cycles: 61050137 heartbeat IPC: 0.351151 cumulative IPC: 0.405105 (Simulation time: 0 hr 46 min 57 sec) 
Heartbeat CPU 0 instructions: 63000000 cycles: 64063155 heartbeat IPC: 0.331893 cumulative IPC: 0.398346 (Simulation time: 0 hr 47 min 53 sec) 
Heartbeat CPU 0 instructions: 64000000 cycles: 67065801 heartbeat IPC: 0.33304 cumulative IPC: 0.392843 (Simulation time: 0 hr 48 min 45 sec) 
Heartbeat CPU 0 instructions: 65000001 cycles: 70033869 heartbeat IPC: 0.33692 cumulative IPC: 0.388544 (Simulation time: 0 hr 49 min 41 sec) 
Heartbeat CPU 0 instructions: 66000001 cycles: 72948340 heartbeat IPC: 0.343115 cumulative IPC: 0.385355 (Simulation time: 0 hr 50 min 35 sec) 
Heartbeat CPU 0 instructions: 67000001 cycles: 75698783 heartbeat IPC: 0.363578 cumulative IPC: 0.384002 (Simulation time: 0 hr 51 min 29 sec) 
Heartbeat CPU 0 instructions: 68000000 cycles: 78441365 heartbeat IPC: 0.36462 cumulative IPC: 0.382871 (Simulation time: 0 hr 52 min 25 sec) 
Heartbeat CPU 0 instructions: 69000002 cycles: 81407260 heartbeat IPC: 0.337167 cumulative IPC: 0.380159 (Simulation time: 0 hr 53 min 27 sec) 
Heartbeat CPU 0 instructions: 70000003 cycles: 83222726 heartbeat IPC: 0.550823 cumulative IPC: 0.386141 (Simulation time: 0 hr 54 min 26 sec) 
Heartbeat CPU 0 instructions: 71000000 cycles: 85142471 heartbeat IPC: 0.520901 cumulative IPC: 0.390957 (Simulation time: 0 hr 55 min 28 sec) 
Heartbeat CPU 0 instructions: 72000000 cycles: 87135692 heartbeat IPC: 0.501701 cumulative IPC: 0.39492 (Simulation time: 0 hr 56 min 28 sec) 
Heartbeat CPU 0 instructions: 73000000 cycles: 89406477 heartbeat IPC: 0.440376 cumulative IPC: 0.3967 (Simulation time: 0 hr 57 min 41 sec) 
Heartbeat CPU 0 instructions: 74000000 cycles: 91325023 heartbeat IPC: 0.521228 cumulative IPC: 0.400689 (Simulation time: 0 hr 58 min 45 sec) 
Heartbeat CPU 0 instructions: 75000003 cycles: 93573805 heartbeat IPC: 0.444687 cumulative IPC: 0.402281 (Simulation time: 0 hr 59 min 55 sec) 
Heartbeat CPU 0 instructions: 76000000 cycles: 96334932 heartbeat IPC: 0.36217 cumulative IPC: 0.400575 (Simulation time: 1 hr 1 min 7 sec) 
Heartbeat CPU 0 instructions: 77000000 cycles: 99036916 heartbeat IPC: 0.370098 cumulative IPC: 0.399357 (Simulation time: 1 hr 2 min 20 sec) 
Heartbeat CPU 0 instructions: 78000000 cycles: 101993232 heartbeat IPC: 0.338259 cumulative IPC: 0.396797 (Simulation time: 1 hr 3 min 40 sec) 
Heartbeat CPU 0 instructions: 79000000 cycles: 103853891 heartbeat IPC: 0.537444 cumulative IPC: 0.40041 (Simulation time: 1 hr 4 min 48 sec) 
Heartbeat CPU 0 instructions: 80000000 cycles: 105644520 heartbeat IPC: 0.558463 cumulative IPC: 0.404224 (Simulation time: 1 hr 5 min 53 sec) 
Heartbeat CPU 0 instructions: 81000000 cycles: 107565916 heartbeat IPC: 0.520455 cumulative IPC: 0.407157 (Simulation time: 1 hr 6 min 55 sec) 
Heartbeat CPU 0 instructions: 82000000 cycles: 109483455 heartbeat IPC: 0.521502 cumulative IPC: 0.409966 (Simulation time: 1 hr 7 min 57 sec) 
Heartbeat CPU 0 instructions: 83000000 cycles: 111821830 heartbeat IPC: 0.427647 cumulative IPC: 0.41048 (Simulation time: 1 hr 9 min 7 sec) 
Heartbeat CPU 0 instructions: 84000000 cycles: 113774128 heartbeat IPC: 0.512217 cumulative IPC: 0.412892 (Simulation time: 1 hr 10 min 14 sec) 
Heartbeat CPU 0 instructions: 85000000 cycles: 115695143 heartbeat IPC: 0.520558 cumulative IPC: 0.415347 (Simulation time: 1 hr 11 min 17 sec) 
Heartbeat CPU 0 instructions: 86000002 cycles: 117613672 heartbeat IPC: 0.521234 cumulative IPC: 0.417704 (Simulation time: 1 hr 12 min 21 sec) 
Heartbeat CPU 0 instructions: 87000003 cycles: 119787912 heartbeat IPC: 0.459931 cumulative IPC: 0.418743 (Simulation time: 1 hr 13 min 21 sec) 
Heartbeat CPU 0 instructions: 88000000 cycles: 122584048 heartbeat IPC: 0.357635 cumulative IPC: 0.416868 (Simulation time: 1 hr 14 min 25 sec) 
Heartbeat CPU 0 instructions: 89000003 cycles: 125155821 heartbeat IPC: 0.388838 cumulative IPC: 0.416099 (Simulation time: 1 hr 15 min 37 sec) 
Heartbeat CPU 0 instructions: 90000001 cycles: 128046596 heartbeat IPC: 0.345927 cumulative IPC: 0.414 (Simulation time: 1 hr 16 min 38 sec) 
Heartbeat CPU 0 instructions: 91000000 cycles: 130537894 heartbeat IPC: 0.401397 cumulative IPC: 0.413683 (Simulation time: 1 hr 17 min 27 sec) 
Heartbeat CPU 0 instructions: 92000000 cycles: 133000420 heartbeat IPC: 0.406087 cumulative IPC: 0.413499 (Simulation time: 1 hr 18 min 20 sec) 
Heartbeat CPU 0 instructions: 93000000 cycles: 135719522 heartbeat IPC: 0.367768 cumulative IPC: 0.412306 (Simulation time: 1 hr 19 min 10 sec) 
Heartbeat CPU 0 instructions: 94000001 cycles: 138378416 heartbeat IPC: 0.376097 cumulative IPC: 0.411406 (Simulation time: 1 hr 20 min 8 sec) 
Heartbeat CPU 0 instructions: 95000000 cycles: 141236309 heartbeat IPC: 0.349908 cumulative IPC: 0.409806 (Simulation time: 1 hr 21 min 12 sec) 
Heartbeat CPU 0 instructions: 96000000 cycles: 144335886 heartbeat IPC: 0.322625 cumulative IPC: 0.407412 (Simulation time: 1 hr 22 min 22 sec) 
Heartbeat CPU 0 instructions: 97000001 cycles: 147363348 heartbeat IPC: 0.33031 cumulative IPC: 0.405399 (Simulation time: 1 hr 23 min 36 sec) 
Heartbeat CPU 0 instructions: 98000000 cycles: 150031742 heartbeat IPC: 0.374757 cumulative IPC: 0.40471 (Simulation time: 1 hr 24 min 38 sec) 
Heartbeat CPU 0 instructions: 99000000 cycles: 152631852 heartbeat IPC: 0.384599 cumulative IPC: 0.404278 (Simulation time: 1 hr 25 min 41 sec) 
Heartbeat CPU 0 instructions: 100000000 cycles: 155258456 heartbeat IPC: 0.38072 cumulative IPC: 0.403778 (Simulation time: 1 hr 26 min 39 sec) 
Heartbeat CPU 0 instructions: 101000001 cycles: 157861778 heartbeat IPC: 0.384125 cumulative IPC: 0.403374 (Simulation time: 1 hr 27 min 42 sec) 
Heartbeat CPU 0 instructions: 102000000 cycles: 160497475 heartbeat IPC: 0.379406 cumulative IPC: 0.402884 (Simulation time: 1 hr 28 min 40 sec) 
Heartbeat CPU 0 instructions: 103000000 cycles: 163159347 heartbeat IPC: 0.375675 cumulative IPC: 0.402335 (Simulation time: 1 hr 29 min 35 sec) 
Heartbeat CPU 0 instructions: 104000000 cycles: 165881468 heartbeat IPC: 0.367361 cumulative IPC: 0.401626 (Simulation time: 1 hr 30 min 25 sec) 
Heartbeat CPU 0 instructions: 105000001 cycles: 168486478 heartbeat IPC: 0.383876 cumulative IPC: 0.401289 (Simulation time: 1 hr 31 min 11 sec) 
Heartbeat CPU 0 instructions: 106000001 cycles: 171105329 heartbeat IPC: 0.381847 cumulative IPC: 0.400925 (Simulation time: 1 hr 31 min 54 sec) 
Heartbeat CPU 0 instructions: 107000000 cycles: 173720312 heartbeat IPC: 0.382411 cumulative IPC: 0.400584 (Simulation time: 1 hr 32 min 33 sec) 
Heartbeat CPU 0 instructions: 108000000 cycles: 176331874 heartbeat IPC: 0.382913 cumulative IPC: 0.400266 (Simulation time: 1 hr 33 min 15 sec) 
Heartbeat CPU 0 instructions: 109000001 cycles: 178904866 heartbeat IPC: 0.388653 cumulative IPC: 0.400063 (Simulation time: 1 hr 33 min 57 sec) 
Heartbeat CPU 0 instructions: 110000003 cycles: 181072615 heartbeat IPC: 0.461309 cumulative IPC: 0.40095 (Simulation time: 1 hr 34 min 32 sec) 
Heartbeat CPU 0 instructions: 111000000 cycles: 183496830 heartbeat IPC: 0.412503 cumulative IPC: 0.401135 (Simulation time: 1 hr 35 min 8 sec) 
Heartbeat CPU 0 instructions: 112000000 cycles: 186318427 heartbeat IPC: 0.354409 cumulative IPC: 0.400283 (Simulation time: 1 hr 35 min 49 sec) 
Heartbeat CPU 0 instructions: 113000000 cycles: 188994165 heartbeat IPC: 0.373729 cumulative IPC: 0.399832 (Simulation time: 1 hr 36 min 24 sec) 
Heartbeat CPU 0 instructions: 114000002 cycles: 191563884 heartbeat IPC: 0.389148 cumulative IPC: 0.399661 (Simulation time: 1 hr 36 min 59 sec) 
Heartbeat CPU 0 instructions: 115000001 cycles: 194179200 heartbeat IPC: 0.382363 cumulative IPC: 0.399383 (Simulation time: 1 hr 37 min 34 sec) 
Heartbeat CPU 0 instructions: 116000000 cycles: 196767538 heartbeat IPC: 0.386348 cumulative IPC: 0.399179 (Simulation time: 1 hr 38 min 10 sec) 
Heartbeat CPU 0 instructions: 117000002 cycles: 199343511 heartbeat IPC: 0.388204 cumulative IPC: 0.399011 (Simulation time: 1 hr 38 min 48 sec) 
Heartbeat CPU 0 instructions: 118000001 cycles: 201849320 heartbeat IPC: 0.399072 cumulative IPC: 0.399012 (Simulation time: 1 hr 39 min 23 sec) 
Heartbeat CPU 0 instructions: 119000000 cycles: 203844657 heartbeat IPC: 0.501168 cumulative IPC: 0.400194 (Simulation time: 1 hr 39 min 49 sec) 
Heartbeat CPU 0 instructions: 120000000 cycles: 206705701 heartbeat IPC: 0.349523 cumulative IPC: 0.399367 (Simulation time: 1 hr 40 min 12 sec) 
Heartbeat CPU 0 instructions: 121000001 cycles: 209358948 heartbeat IPC: 0.376897 cumulative IPC: 0.399032 (Simulation time: 1 hr 40 min 38 sec) 
Heartbeat CPU 0 instructions: 122000002 cycles: 212223162 heartbeat IPC: 0.349136 cumulative IPC: 0.398241 (Simulation time: 1 hr 40 min 58 sec) 
Heartbeat CPU 0 instructions: 123000001 cycles: 215021416 heartbeat IPC: 0.357365 cumulative IPC: 0.397618 (Simulation time: 1 hr 41 min 18 sec) 
Heartbeat CPU 0 instructions: 124000000 cycles: 217565564 heartbeat IPC: 0.393059 cumulative IPC: 0.397556 (Simulation time: 1 hr 41 min 42 sec) 
Heartbeat CPU 0 instructions: 125000003 cycles: 219537439 heartbeat IPC: 0.507133 cumulative IPC: 0.398704 (Simulation time: 1 hr 42 min 0 sec) 
Heartbeat CPU 0 instructions: 126000000 cycles: 221459177 heartbeat IPC: 0.520361 cumulative IPC: 0.399935 (Simulation time: 1 hr 42 min 17 sec) 
Heartbeat CPU 0 instructions: 127000001 cycles: 223867522 heartbeat IPC: 0.415223 cumulative IPC: 0.400126 (Simulation time: 1 hr 42 min 33 sec) 
Heartbeat CPU 0 instructions: 128000000 cycles: 225855419 heartbeat IPC: 0.503044 cumulative IPC: 0.401178 (Simulation time: 1 hr 42 min 47 sec) 
Heartbeat CPU 0 instructions: 129000000 cycles: 227778198 heartbeat IPC: 0.520081 cumulative IPC: 0.402343 (Simulation time: 1 hr 43 min 1 sec) 
Heartbeat CPU 0 instructions: 130000001 cycles: 230558643 heartbeat IPC: 0.359655 cumulative IPC: 0.401747 (Simulation time: 1 hr 43 min 17 sec) 
Heartbeat CPU 0 instructions: 131000003 cycles: 233229613 heartbeat IPC: 0.374397 cumulative IPC: 0.401385 (Simulation time: 1 hr 43 min 33 sec) 
Heartbeat CPU 0 instructions: 132000000 cycles: 235952169 heartbeat IPC: 0.367301 cumulative IPC: 0.400931 (Simulation time: 1 hr 43 min 48 sec) 
Heartbeat CPU 0 instructions: 133000002 cycles: 238891556 heartbeat IPC: 0.340208 cumulative IPC: 0.400071 (Simulation time: 1 hr 43 min 59 sec) 
Heartbeat CPU 0 instructions: 134000000 cycles: 241929742 heartbeat IPC: 0.329143 cumulative IPC: 0.399047 (Simulation time: 1 hr 44 min 9 sec) 
Heartbeat CPU 0 instructions: 135000002 cycles: 244488020 heartbeat IPC: 0.390889 cumulative IPC: 0.398949 (Simulation time: 1 hr 44 min 20 sec) 
Heartbeat CPU 0 instructions: 136000000 cycles: 247343352 heartbeat IPC: 0.350221 cumulative IPC: 0.398305 (Simulation time: 1 hr 44 min 29 sec) 
Heartbeat CPU 0 instructions: 137000003 cycles: 250115932 heartbeat IPC: 0.360676 cumulative IPC: 0.397827 (Simulation time: 1 hr 44 min 37 sec) 
Heartbeat CPU 0 instructions: 138000000 cycles: 252847538 heartbeat IPC: 0.366084 cumulative IPC: 0.397436 (Simulation time: 1 hr 44 min 46 sec) 
Heartbeat CPU 0 instructions: 139000001 cycles: 255120045 heartbeat IPC: 0.440043 cumulative IPC: 0.397869 (Simulation time: 1 hr 44 min 54 sec) 
Heartbeat CPU 0 instructions: 140000000 cycles: 257757151 heartbeat IPC: 0.379203 cumulative IPC: 0.397651 (Simulation time: 1 hr 45 min 3 sec) 
Heartbeat CPU 0 instructions: 141000000 cycles: 260513612 heartbeat IPC: 0.362784 cumulative IPC: 0.397232 (Simulation time: 1 hr 45 min 11 sec) 
Heartbeat CPU 0 instructions: 142000000 cycles: 263268131 heartbeat IPC: 0.36304 cumulative IPC: 0.396825 (Simulation time: 1 hr 45 min 19 sec) 
Heartbeat CPU 0 instructions: 143000000 cycles: 265910651 heartbeat IPC: 0.378427 cumulative IPC: 0.396618 (Simulation time: 1 hr 45 min 27 sec) 
Heartbeat CPU 0 instructions: 144000000 cycles: 268110149 heartbeat IPC: 0.454649 cumulative IPC: 0.397157 (Simulation time: 1 hr 45 min 34 sec) 
Heartbeat CPU 0 instructions: 145000002 cycles: 270328597 heartbeat IPC: 0.450766 cumulative IPC: 0.397655 (Simulation time: 1 hr 45 min 41 sec) 
Heartbeat CPU 0 instructions: 146000001 cycles: 272341775 heartbeat IPC: 0.496727 cumulative IPC: 0.398483 (Simulation time: 1 hr 45 min 47 sec) 
Heartbeat CPU 0 instructions: 147000001 cycles: 275068709 heartbeat IPC: 0.366712 cumulative IPC: 0.398128 (Simulation time: 1 hr 45 min 53 sec) 
Heartbeat CPU 0 instructions: 148000000 cycles: 277649898 heartbeat IPC: 0.387418 cumulative IPC: 0.398015 (Simulation time: 1 hr 46 min 0 sec) 
Heartbeat CPU 0 instructions: 149000000 cycles: 280291774 heartbeat IPC: 0.378519 cumulative IPC: 0.397808 (Simulation time: 1 hr 46 min 7 sec) 
Heartbeat CPU 0 instructions: 150000001 cycles: 283035077 heartbeat IPC: 0.364524 cumulative IPC: 0.397445 (Simulation time: 1 hr 46 min 12 sec) 
Finished CPU 0 instructions: 100000000 cycles: 251606903 cummulative IPC: 0.397445 (Simulation time: 1 hr 46 min 12 sec) 

ChampSim completed all CPUs

Region of Interest Statistics

CPU 0 cummulative IPC: 0.397445 instructions: 100000000 cycles: 251606903
LLC TOTAL     ACCESS:     694194  HIT:     639544  MISS:      54650
LLC LOAD      ACCESS:     325718  HIT:     301553  MISS:      24165
LLC RFO       ACCESS:      31880  HIT:      26880  MISS:       5000
LLC PREFETCH  ACCESS:     223572  HIT:     198897  MISS:      24675
LLC WRITEBACK ACCESS:     113024  HIT:     112214  MISS:        810
OPTgen accesses: 4019
OPTgen hits: 4489
OPTgen hit rate: 111.694


