
*** ChampSim Multicore Out-of-Order Simulator ***

Warmup Instructions: 50000000
Simulation Instructions: 100000000
Configuration: 2
Number of CPUs: 1
LLC sets: 2048
LLC ways: 16
Off-chip DRAM Channels: 1 Width: 64-bit Data Rate: 1600 MT/s

CPU 0 runs /datasets/cs240c-wi22-a00-public/data/Assignment2-gz/lbm_564B.trace.gz
CPU 0 L1D next line prefetcher
CPU 0 L2C IP-based stride prefetcher
Initialize Hawkeye state
Heartbeat CPU 0 instructions: 1000000 cycles: 390168 heartbeat IPC: 2.563 cumulative IPC: 2.563 (Simulation time: 0 hr 0 min 37 sec) 
Heartbeat CPU 0 instructions: 2000003 cycles: 785204 heartbeat IPC: 2.53142 cumulative IPC: 2.54711 (Simulation time: 0 hr 1 min 10 sec) 
Heartbeat CPU 0 instructions: 3000002 cycles: 1175398 heartbeat IPC: 2.56283 cumulative IPC: 2.55233 (Simulation time: 0 hr 1 min 45 sec) 
Heartbeat CPU 0 instructions: 4000000 cycles: 1565572 heartbeat IPC: 2.56295 cumulative IPC: 2.55498 (Simulation time: 0 hr 2 min 24 sec) 
Heartbeat CPU 0 instructions: 5000000 cycles: 1960688 heartbeat IPC: 2.5309 cumulative IPC: 2.55013 (Simulation time: 0 hr 2 min 57 sec) 
Heartbeat CPU 0 instructions: 6000002 cycles: 2350858 heartbeat IPC: 2.56299 cumulative IPC: 2.55226 (Simulation time: 0 hr 3 min 35 sec) 
Heartbeat CPU 0 instructions: 7000001 cycles: 2741127 heartbeat IPC: 2.56233 cumulative IPC: 2.55369 (Simulation time: 0 hr 4 min 7 sec) 
Heartbeat CPU 0 instructions: 8000000 cycles: 3136122 heartbeat IPC: 2.53168 cumulative IPC: 2.55092 (Simulation time: 0 hr 4 min 39 sec) 
Heartbeat CPU 0 instructions: 9000000 cycles: 3526361 heartbeat IPC: 2.56253 cumulative IPC: 2.55221 (Simulation time: 0 hr 5 min 10 sec) 
Heartbeat CPU 0 instructions: 10000002 cycles: 3916512 heartbeat IPC: 2.56312 cumulative IPC: 2.55329 (Simulation time: 0 hr 5 min 49 sec) 
Heartbeat CPU 0 instructions: 11000000 cycles: 4306755 heartbeat IPC: 2.5625 cumulative IPC: 2.55413 (Simulation time: 0 hr 6 min 21 sec) 
Heartbeat CPU 0 instructions: 12000000 cycles: 4701728 heartbeat IPC: 2.53182 cumulative IPC: 2.55225 (Simulation time: 0 hr 6 min 55 sec) 
Heartbeat CPU 0 instructions: 13000001 cycles: 5091957 heartbeat IPC: 2.5626 cumulative IPC: 2.55305 (Simulation time: 0 hr 7 min 27 sec) 
Heartbeat CPU 0 instructions: 14000003 cycles: 5482132 heartbeat IPC: 2.56296 cumulative IPC: 2.55375 (Simulation time: 0 hr 8 min 6 sec) 
Heartbeat CPU 0 instructions: 15000000 cycles: 5877189 heartbeat IPC: 2.53127 cumulative IPC: 2.55224 (Simulation time: 0 hr 8 min 36 sec) 
Heartbeat CPU 0 instructions: 16000000 cycles: 6267386 heartbeat IPC: 2.56281 cumulative IPC: 2.5529 (Simulation time: 0 hr 9 min 7 sec) 
Heartbeat CPU 0 instructions: 17000000 cycles: 6657564 heartbeat IPC: 2.56293 cumulative IPC: 2.55349 (Simulation time: 0 hr 9 min 44 sec) 
Heartbeat CPU 0 instructions: 18000000 cycles: 7052639 heartbeat IPC: 2.53116 cumulative IPC: 2.55224 (Simulation time: 0 hr 10 min 15 sec) 
Heartbeat CPU 0 instructions: 19000001 cycles: 7442805 heartbeat IPC: 2.56301 cumulative IPC: 2.5528 (Simulation time: 0 hr 10 min 51 sec) 
Heartbeat CPU 0 instructions: 20000000 cycles: 7832992 heartbeat IPC: 2.56287 cumulative IPC: 2.5533 (Simulation time: 0 hr 11 min 23 sec) 
Heartbeat CPU 0 instructions: 21000003 cycles: 8223179 heartbeat IPC: 2.56288 cumulative IPC: 2.55376 (Simulation time: 0 hr 11 min 55 sec) 
Heartbeat CPU 0 instructions: 22000002 cycles: 8687181 heartbeat IPC: 2.15516 cumulative IPC: 2.53247 (Simulation time: 0 hr 12 min 30 sec) 
Heartbeat CPU 0 instructions: 23000003 cycles: 9180394 heartbeat IPC: 2.02752 cumulative IPC: 2.50534 (Simulation time: 0 hr 13 min 10 sec) 
Heartbeat CPU 0 instructions: 24000000 cycles: 10024404 heartbeat IPC: 1.18482 cumulative IPC: 2.39416 (Simulation time: 0 hr 14 min 2 sec) 
Heartbeat CPU 0 instructions: 25000003 cycles: 10553067 heartbeat IPC: 1.89157 cumulative IPC: 2.36898 (Simulation time: 0 hr 14 min 38 sec) 
Heartbeat CPU 0 instructions: 26000002 cycles: 11043407 heartbeat IPC: 2.0394 cumulative IPC: 2.35435 (Simulation time: 0 hr 15 min 14 sec) 
Heartbeat CPU 0 instructions: 27000001 cycles: 11433690 heartbeat IPC: 2.56224 cumulative IPC: 2.36144 (Simulation time: 0 hr 15 min 50 sec) 
Heartbeat CPU 0 instructions: 28000000 cycles: 11824039 heartbeat IPC: 2.56181 cumulative IPC: 2.36806 (Simulation time: 0 hr 16 min 19 sec) 
Heartbeat CPU 0 instructions: 29000002 cycles: 12214343 heartbeat IPC: 2.56211 cumulative IPC: 2.37426 (Simulation time: 0 hr 16 min 48 sec) 
Heartbeat CPU 0 instructions: 30000000 cycles: 12609470 heartbeat IPC: 2.53083 cumulative IPC: 2.37916 (Simulation time: 0 hr 17 min 24 sec) 
Heartbeat CPU 0 instructions: 31000000 cycles: 12999788 heartbeat IPC: 2.56201 cumulative IPC: 2.38465 (Simulation time: 0 hr 17 min 57 sec) 
Heartbeat CPU 0 instructions: 32000000 cycles: 13390117 heartbeat IPC: 2.56194 cumulative IPC: 2.38982 (Simulation time: 0 hr 18 min 26 sec) 
Heartbeat CPU 0 instructions: 33000001 cycles: 13785265 heartbeat IPC: 2.5307 cumulative IPC: 2.39386 (Simulation time: 0 hr 18 min 55 sec) 
Heartbeat CPU 0 instructions: 34000001 cycles: 14175489 heartbeat IPC: 2.56263 cumulative IPC: 2.39851 (Simulation time: 0 hr 19 min 25 sec) 
Heartbeat CPU 0 instructions: 35000002 cycles: 14565852 heartbeat IPC: 2.56172 cumulative IPC: 2.40288 (Simulation time: 0 hr 19 min 57 sec) 
Heartbeat CPU 0 instructions: 36000000 cycles: 14956112 heartbeat IPC: 2.56239 cumulative IPC: 2.40704 (Simulation time: 0 hr 20 min 29 sec) 
Heartbeat CPU 0 instructions: 37000003 cycles: 15351216 heartbeat IPC: 2.53099 cumulative IPC: 2.41023 (Simulation time: 0 hr 21 min 6 sec) 
Heartbeat CPU 0 instructions: 38000003 cycles: 15741518 heartbeat IPC: 2.56212 cumulative IPC: 2.414 (Simulation time: 0 hr 21 min 34 sec) 
Heartbeat CPU 0 instructions: 39000002 cycles: 16131882 heartbeat IPC: 2.56171 cumulative IPC: 2.41757 (Simulation time: 0 hr 22 min 6 sec) 
Heartbeat CPU 0 instructions: 40000000 cycles: 16526919 heartbeat IPC: 2.5314 cumulative IPC: 2.42029 (Simulation time: 0 hr 22 min 39 sec) 
Heartbeat CPU 0 instructions: 41000000 cycles: 16917223 heartbeat IPC: 2.56211 cumulative IPC: 2.42357 (Simulation time: 0 hr 23 min 15 sec) 
Heartbeat CPU 0 instructions: 42000002 cycles: 17307579 heartbeat IPC: 2.56177 cumulative IPC: 2.42668 (Simulation time: 0 hr 23 min 46 sec) 
Heartbeat CPU 0 instructions: 43000001 cycles: 17702695 heartbeat IPC: 2.5309 cumulative IPC: 2.42901 (Simulation time: 0 hr 24 min 20 sec) 
Heartbeat CPU 0 instructions: 44000000 cycles: 18092984 heartbeat IPC: 2.5622 cumulative IPC: 2.43188 (Simulation time: 0 hr 24 min 50 sec) 
Heartbeat CPU 0 instructions: 45000001 cycles: 18483333 heartbeat IPC: 2.56181 cumulative IPC: 2.43463 (Simulation time: 0 hr 25 min 25 sec) 
Heartbeat CPU 0 instructions: 46000002 cycles: 18873646 heartbeat IPC: 2.56205 cumulative IPC: 2.43726 (Simulation time: 0 hr 25 min 59 sec) 
Heartbeat CPU 0 instructions: 47000002 cycles: 19268689 heartbeat IPC: 2.53137 cumulative IPC: 2.43919 (Simulation time: 0 hr 26 min 35 sec) 
Heartbeat CPU 0 instructions: 48000000 cycles: 19659013 heartbeat IPC: 2.56197 cumulative IPC: 2.44163 (Simulation time: 0 hr 27 min 10 sec) 
Heartbeat CPU 0 instructions: 49000003 cycles: 20049351 heartbeat IPC: 2.56189 cumulative IPC: 2.44397 (Simulation time: 0 hr 27 min 45 sec) 
Heartbeat CPU 0 instructions: 50000002 cycles: 20444476 heartbeat IPC: 2.53084 cumulative IPC: 2.44565 (Simulation time: 0 hr 28 min 20 sec) 

Warmup complete CPU 0 instructions: 50000002 cycles: 20444476 (Simulation time: 0 hr 28 min 20 sec) 

Heartbeat CPU 0 instructions: 51000002 cycles: 21896620 heartbeat IPC: 0.688637 cumulative IPC: 0.688637 (Simulation time: 0 hr 29 min 4 sec) 
Heartbeat CPU 0 instructions: 52000000 cycles: 23360531 heartbeat IPC: 0.6831 cumulative IPC: 0.685857 (Simulation time: 0 hr 29 min 47 sec) 
Heartbeat CPU 0 instructions: 53000001 cycles: 24727150 heartbeat IPC: 0.731734 cumulative IPC: 0.700497 (Simulation time: 0 hr 30 min 28 sec) 
Heartbeat CPU 0 instructions: 54000001 cycles: 26089403 heartbeat IPC: 0.734078 cumulative IPC: 0.708601 (Simulation time: 0 hr 31 min 12 sec) 
Heartbeat CPU 0 instructions: 55000003 cycles: 27498764 heartbeat IPC: 0.709543 cumulative IPC: 0.708789 (Simulation time: 0 hr 31 min 53 sec) 
Heartbeat CPU 0 instructions: 56000000 cycles: 28965803 heartbeat IPC: 0.681643 cumulative IPC: 0.704115 (Simulation time: 0 hr 32 min 36 sec) 
Heartbeat CPU 0 instructions: 57000001 cycles: 30480862 heartbeat IPC: 0.660041 cumulative IPC: 0.697462 (Simulation time: 0 hr 33 min 23 sec) 
Heartbeat CPU 0 instructions: 58000002 cycles: 32001221 heartbeat IPC: 0.65774 cumulative IPC: 0.692236 (Simulation time: 0 hr 34 min 8 sec) 
Heartbeat CPU 0 instructions: 59000001 cycles: 33440781 heartbeat IPC: 0.694656 cumulative IPC: 0.692504 (Simulation time: 0 hr 34 min 52 sec) 
Heartbeat CPU 0 instructions: 60000000 cycles: 34926696 heartbeat IPC: 0.672985 cumulative IPC: 0.690502 (Simulation time: 0 hr 35 min 34 sec) 
Heartbeat CPU 0 instructions: 61000003 cycles: 36399809 heartbeat IPC: 0.678837 cumulative IPC: 0.689425 (Simulation time: 0 hr 36 min 15 sec) 
Heartbeat CPU 0 instructions: 62000003 cycles: 37837533 heartbeat IPC: 0.695544 cumulative IPC: 0.68993 (Simulation time: 0 hr 36 min 57 sec) 
Heartbeat CPU 0 instructions: 63000000 cycles: 39347164 heartbeat IPC: 0.662412 cumulative IPC: 0.687733 (Simulation time: 0 hr 37 min 41 sec) 
Heartbeat CPU 0 instructions: 64000000 cycles: 40874373 heartbeat IPC: 0.654789 cumulative IPC: 0.68527 (Simulation time: 0 hr 38 min 24 sec) 
Heartbeat CPU 0 instructions: 65000003 cycles: 42375804 heartbeat IPC: 0.666033 cumulative IPC: 0.683953 (Simulation time: 0 hr 39 min 7 sec) 
Heartbeat CPU 0 instructions: 66000001 cycles: 43807881 heartbeat IPC: 0.698285 cumulative IPC: 0.684832 (Simulation time: 0 hr 39 min 48 sec) 
Heartbeat CPU 0 instructions: 67000001 cycles: 45312408 heartbeat IPC: 0.664661 cumulative IPC: 0.683611 (Simulation time: 0 hr 40 min 30 sec) 
Heartbeat CPU 0 instructions: 68000000 cycles: 46805369 heartbeat IPC: 0.669809 cumulative IPC: 0.68283 (Simulation time: 0 hr 41 min 11 sec) 
Heartbeat CPU 0 instructions: 69000003 cycles: 48154883 heartbeat IPC: 0.74101 cumulative IPC: 0.685663 (Simulation time: 0 hr 41 min 50 sec) 
Heartbeat CPU 0 instructions: 70000003 cycles: 49607983 heartbeat IPC: 0.688184 cumulative IPC: 0.685789 (Simulation time: 0 hr 42 min 29 sec) 
Heartbeat CPU 0 instructions: 71000000 cycles: 51235240 heartbeat IPC: 0.614529 cumulative IPC: 0.682023 (Simulation time: 0 hr 43 min 13 sec) 
Heartbeat CPU 0 instructions: 72000000 cycles: 52667826 heartbeat IPC: 0.698038 cumulative IPC: 0.682735 (Simulation time: 0 hr 43 min 52 sec) 
Heartbeat CPU 0 instructions: 73000003 cycles: 54115151 heartbeat IPC: 0.690932 cumulative IPC: 0.683087 (Simulation time: 0 hr 44 min 33 sec) 
Heartbeat CPU 0 instructions: 74000002 cycles: 55689662 heartbeat IPC: 0.635117 cumulative IPC: 0.680944 (Simulation time: 0 hr 45 min 15 sec) 
Heartbeat CPU 0 instructions: 75000002 cycles: 57070661 heartbeat IPC: 0.724113 cumulative IPC: 0.682572 (Simulation time: 0 hr 45 min 54 sec) 
Heartbeat CPU 0 instructions: 76000000 cycles: 58552432 heartbeat IPC: 0.674867 cumulative IPC: 0.682272 (Simulation time: 0 hr 46 min 33 sec) 
Heartbeat CPU 0 instructions: 77000001 cycles: 60171880 heartbeat IPC: 0.617495 cumulative IPC: 0.679632 (Simulation time: 0 hr 47 min 15 sec) 
Heartbeat CPU 0 instructions: 78000002 cycles: 61624609 heartbeat IPC: 0.68836 cumulative IPC: 0.67994 (Simulation time: 0 hr 47 min 56 sec) 
Heartbeat CPU 0 instructions: 79000000 cycles: 63116959 heartbeat IPC: 0.670083 cumulative IPC: 0.679595 (Simulation time: 0 hr 48 min 39 sec) 
Heartbeat CPU 0 instructions: 80000000 cycles: 64747663 heartbeat IPC: 0.613232 cumulative IPC: 0.677152 (Simulation time: 0 hr 49 min 25 sec) 
Heartbeat CPU 0 instructions: 81000003 cycles: 66165416 heartbeat IPC: 0.705344 cumulative IPC: 0.678026 (Simulation time: 0 hr 50 min 8 sec) 
Heartbeat CPU 0 instructions: 82000001 cycles: 67613122 heartbeat IPC: 0.690747 cumulative IPC: 0.678417 (Simulation time: 0 hr 50 min 53 sec) 
Heartbeat CPU 0 instructions: 83000001 cycles: 69262273 heartbeat IPC: 0.606373 cumulative IPC: 0.675983 (Simulation time: 0 hr 51 min 41 sec) 
Heartbeat CPU 0 instructions: 84000000 cycles: 70792549 heartbeat IPC: 0.653476 cumulative IPC: 0.675299 (Simulation time: 0 hr 52 min 28 sec) 
Heartbeat CPU 0 instructions: 85000002 cycles: 72210563 heartbeat IPC: 0.705213 cumulative IPC: 0.676118 (Simulation time: 0 hr 53 min 12 sec) 
Heartbeat CPU 0 instructions: 86000001 cycles: 73860093 heartbeat IPC: 0.606233 cumulative IPC: 0.67396 (Simulation time: 0 hr 54 min 1 sec) 
Heartbeat CPU 0 instructions: 87000003 cycles: 75354515 heartbeat IPC: 0.669156 cumulative IPC: 0.673829 (Simulation time: 0 hr 54 min 45 sec) 
Heartbeat CPU 0 instructions: 88000000 cycles: 76742964 heartbeat IPC: 0.720226 cumulative IPC: 0.674974 (Simulation time: 0 hr 55 min 30 sec) 
Heartbeat CPU 0 instructions: 89000003 cycles: 78391116 heartbeat IPC: 0.606742 cumulative IPC: 0.673033 (Simulation time: 0 hr 56 min 21 sec) 
Heartbeat CPU 0 instructions: 90000001 cycles: 79989133 heartbeat IPC: 0.625774 cumulative IPC: 0.671765 (Simulation time: 0 hr 57 min 6 sec) 
Heartbeat CPU 0 instructions: 91000000 cycles: 81407649 heartbeat IPC: 0.704961 cumulative IPC: 0.672537 (Simulation time: 0 hr 57 min 48 sec) 
Heartbeat CPU 0 instructions: 92000000 cycles: 83034433 heartbeat IPC: 0.61471 cumulative IPC: 0.671034 (Simulation time: 0 hr 58 min 32 sec) 
Heartbeat CPU 0 instructions: 93000003 cycles: 84645530 heartbeat IPC: 0.620697 cumulative IPC: 0.669771 (Simulation time: 0 hr 59 min 14 sec) 
Heartbeat CPU 0 instructions: 94000002 cycles: 86041702 heartbeat IPC: 0.716243 cumulative IPC: 0.67076 (Simulation time: 0 hr 59 min 54 sec) 
Heartbeat CPU 0 instructions: 95000001 cycles: 87547937 heartbeat IPC: 0.663906 cumulative IPC: 0.670606 (Simulation time: 1 hr 0 min 39 sec) 
Heartbeat CPU 0 instructions: 96000000 cycles: 89073637 heartbeat IPC: 0.655436 cumulative IPC: 0.670269 (Simulation time: 1 hr 1 min 23 sec) 
Heartbeat CPU 0 instructions: 97000002 cycles: 90485081 heartbeat IPC: 0.708496 cumulative IPC: 0.671039 (Simulation time: 1 hr 2 min 4 sec) 
Heartbeat CPU 0 instructions: 98000000 cycles: 92146215 heartbeat IPC: 0.601997 cumulative IPC: 0.66944 (Simulation time: 1 hr 2 min 50 sec) 
Heartbeat CPU 0 instructions: 99000001 cycles: 93731109 heartbeat IPC: 0.630958 cumulative IPC: 0.668608 (Simulation time: 1 hr 3 min 35 sec) 
Heartbeat CPU 0 instructions: 100000000 cycles: 95154126 heartbeat IPC: 0.702732 cumulative IPC: 0.669258 (Simulation time: 1 hr 4 min 18 sec) 
Heartbeat CPU 0 instructions: 101000002 cycles: 96804178 heartbeat IPC: 0.606043 cumulative IPC: 0.667892 (Simulation time: 1 hr 5 min 2 sec) 
Heartbeat CPU 0 instructions: 102000002 cycles: 98358748 heartbeat IPC: 0.643265 cumulative IPC: 0.6674 (Simulation time: 1 hr 5 min 45 sec) 
Heartbeat CPU 0 instructions: 103000001 cycles: 99760682 heartbeat IPC: 0.7133 cumulative IPC: 0.668211 (Simulation time: 1 hr 6 min 23 sec) 
Heartbeat CPU 0 instructions: 104000000 cycles: 101444576 heartbeat IPC: 0.593861 cumulative IPC: 0.666666 (Simulation time: 1 hr 7 min 6 sec) 
Heartbeat CPU 0 instructions: 105000001 cycles: 103004236 heartbeat IPC: 0.641166 cumulative IPC: 0.666184 (Simulation time: 1 hr 7 min 48 sec) 
Heartbeat CPU 0 instructions: 106000001 cycles: 104439119 heartbeat IPC: 0.696921 cumulative IPC: 0.666709 (Simulation time: 1 hr 8 min 28 sec) 
Heartbeat CPU 0 instructions: 107000001 cycles: 106090865 heartbeat IPC: 0.60542 cumulative IPC: 0.665527 (Simulation time: 1 hr 9 min 12 sec) 
Heartbeat CPU 0 instructions: 108000000 cycles: 107605020 heartbeat IPC: 0.660434 cumulative IPC: 0.665439 (Simulation time: 1 hr 9 min 57 sec) 
Heartbeat CPU 0 instructions: 109000003 cycles: 108967825 heartbeat IPC: 0.733783 cumulative IPC: 0.666491 (Simulation time: 1 hr 10 min 39 sec) 
Heartbeat CPU 0 instructions: 110000001 cycles: 110675667 heartbeat IPC: 0.585533 cumulative IPC: 0.664959 (Simulation time: 1 hr 11 min 24 sec) 
Heartbeat CPU 0 instructions: 111000002 cycles: 112202535 heartbeat IPC: 0.654936 cumulative IPC: 0.664792 (Simulation time: 1 hr 12 min 5 sec) 
Heartbeat CPU 0 instructions: 112000000 cycles: 113712779 heartbeat IPC: 0.662143 cumulative IPC: 0.664749 (Simulation time: 1 hr 12 min 46 sec) 
Heartbeat CPU 0 instructions: 113000001 cycles: 115416869 heartbeat IPC: 0.586824 cumulative IPC: 0.663351 (Simulation time: 1 hr 13 min 29 sec) 
Heartbeat CPU 0 instructions: 114000002 cycles: 116953668 heartbeat IPC: 0.650704 cumulative IPC: 0.663149 (Simulation time: 1 hr 14 min 9 sec) 
Heartbeat CPU 0 instructions: 115000002 cycles: 118366659 heartbeat IPC: 0.707719 cumulative IPC: 0.663792 (Simulation time: 1 hr 14 min 45 sec) 
Heartbeat CPU 0 instructions: 116000000 cycles: 120113584 heartbeat IPC: 0.572433 cumulative IPC: 0.662191 (Simulation time: 1 hr 15 min 23 sec) 
Heartbeat CPU 0 instructions: 117000001 cycles: 121614938 heartbeat IPC: 0.666066 cumulative IPC: 0.662249 (Simulation time: 1 hr 15 min 59 sec) 
Heartbeat CPU 0 instructions: 118000003 cycles: 123118823 heartbeat IPC: 0.664946 cumulative IPC: 0.662288 (Simulation time: 1 hr 16 min 38 sec) 
Heartbeat CPU 0 instructions: 119000002 cycles: 124885239 heartbeat IPC: 0.566117 cumulative IPC: 0.660662 (Simulation time: 1 hr 17 min 17 sec) 
Heartbeat CPU 0 instructions: 120000000 cycles: 126349656 heartbeat IPC: 0.682864 cumulative IPC: 0.660969 (Simulation time: 1 hr 17 min 53 sec) 
Heartbeat CPU 0 instructions: 121000000 cycles: 127824531 heartbeat IPC: 0.678024 cumulative IPC: 0.661203 (Simulation time: 1 hr 18 min 27 sec) 
Heartbeat CPU 0 instructions: 122000001 cycles: 129592730 heartbeat IPC: 0.565548 cumulative IPC: 0.659653 (Simulation time: 1 hr 19 min 5 sec) 
Heartbeat CPU 0 instructions: 123000002 cycles: 131026201 heartbeat IPC: 0.697608 cumulative IPC: 0.660145 (Simulation time: 1 hr 19 min 41 sec) 
Heartbeat CPU 0 instructions: 124000000 cycles: 132459058 heartbeat IPC: 0.697905 cumulative IPC: 0.660628 (Simulation time: 1 hr 20 min 18 sec) 
Heartbeat CPU 0 instructions: 125000003 cycles: 134298715 heartbeat IPC: 0.543581 cumulative IPC: 0.658737 (Simulation time: 1 hr 20 min 56 sec) 
Heartbeat CPU 0 instructions: 126000001 cycles: 135742321 heartbeat IPC: 0.692708 cumulative IPC: 0.659162 (Simulation time: 1 hr 21 min 34 sec) 
Heartbeat CPU 0 instructions: 127000001 cycles: 137239051 heartbeat IPC: 0.668123 cumulative IPC: 0.659277 (Simulation time: 1 hr 22 min 14 sec) 
Heartbeat CPU 0 instructions: 128000000 cycles: 139045990 heartbeat IPC: 0.553422 cumulative IPC: 0.657664 (Simulation time: 1 hr 22 min 57 sec) 
Heartbeat CPU 0 instructions: 129000003 cycles: 140460047 heartbeat IPC: 0.707187 cumulative IPC: 0.658248 (Simulation time: 1 hr 23 min 36 sec) 
Heartbeat CPU 0 instructions: 130000003 cycles: 141963712 heartbeat IPC: 0.665042 cumulative IPC: 0.658332 (Simulation time: 1 hr 24 min 15 sec) 
Heartbeat CPU 0 instructions: 131000000 cycles: 143802005 heartbeat IPC: 0.543981 cumulative IPC: 0.656628 (Simulation time: 1 hr 24 min 57 sec) 
Heartbeat CPU 0 instructions: 132000000 cycles: 145211470 heartbeat IPC: 0.709489 cumulative IPC: 0.657225 (Simulation time: 1 hr 25 min 32 sec) 
Heartbeat CPU 0 instructions: 133000001 cycles: 146671578 heartbeat IPC: 0.684882 cumulative IPC: 0.657545 (Simulation time: 1 hr 26 min 9 sec) 
Heartbeat CPU 0 instructions: 134000000 cycles: 148359650 heartbeat IPC: 0.592391 cumulative IPC: 0.656685 (Simulation time: 1 hr 26 min 46 sec) 
Heartbeat CPU 0 instructions: 135000003 cycles: 149744416 heartbeat IPC: 0.722146 cumulative IPC: 0.657386 (Simulation time: 1 hr 27 min 20 sec) 
Heartbeat CPU 0 instructions: 136000000 cycles: 151262742 heartbeat IPC: 0.658618 cumulative IPC: 0.657401 (Simulation time: 1 hr 27 min 53 sec) 
Heartbeat CPU 0 instructions: 137000001 cycles: 153029342 heartbeat IPC: 0.56606 cumulative IPC: 0.656183 (Simulation time: 1 hr 28 min 25 sec) 
Heartbeat CPU 0 instructions: 138000000 cycles: 154453414 heartbeat IPC: 0.702211 cumulative IPC: 0.656673 (Simulation time: 1 hr 28 min 54 sec) 
Heartbeat CPU 0 instructions: 139000003 cycles: 155974475 heartbeat IPC: 0.657438 cumulative IPC: 0.656681 (Simulation time: 1 hr 29 min 21 sec) 
Heartbeat CPU 0 instructions: 140000000 cycles: 157762506 heartbeat IPC: 0.559273 cumulative IPC: 0.655413 (Simulation time: 1 hr 29 min 51 sec) 
Heartbeat CPU 0 instructions: 141000003 cycles: 159188596 heartbeat IPC: 0.70122 cumulative IPC: 0.655884 (Simulation time: 1 hr 30 min 18 sec) 
Heartbeat CPU 0 instructions: 142000001 cycles: 160646664 heartbeat IPC: 0.685838 cumulative IPC: 0.656195 (Simulation time: 1 hr 30 min 45 sec) 
Heartbeat CPU 0 instructions: 143000000 cycles: 162312789 heartbeat IPC: 0.600194 cumulative IPC: 0.655537 (Simulation time: 1 hr 31 min 16 sec) 
Heartbeat CPU 0 instructions: 144000000 cycles: 163788885 heartbeat IPC: 0.677463 cumulative IPC: 0.655763 (Simulation time: 1 hr 31 min 42 sec) 
Heartbeat CPU 0 instructions: 145000002 cycles: 165372078 heartbeat IPC: 0.631636 cumulative IPC: 0.6555 (Simulation time: 1 hr 32 min 9 sec) 
Heartbeat CPU 0 instructions: 146000001 cycles: 167092041 heartbeat IPC: 0.581407 cumulative IPC: 0.654631 (Simulation time: 1 hr 32 min 37 sec) 
Heartbeat CPU 0 instructions: 147000000 cycles: 168450331 heartbeat IPC: 0.736219 cumulative IPC: 0.655379 (Simulation time: 1 hr 33 min 1 sec) 
Heartbeat CPU 0 instructions: 148000000 cycles: 169882424 heartbeat IPC: 0.698279 cumulative IPC: 0.655791 (Simulation time: 1 hr 33 min 27 sec) 
Heartbeat CPU 0 instructions: 149000003 cycles: 171572835 heartbeat IPC: 0.591574 cumulative IPC: 0.655072 (Simulation time: 1 hr 33 min 53 sec) 
Heartbeat CPU 0 instructions: 150000003 cycles: 172999591 heartbeat IPC: 0.700891 cumulative IPC: 0.655501 (Simulation time: 1 hr 34 min 18 sec) 
Finished CPU 0 instructions: 100000001 cycles: 152555115 cummulative IPC: 0.655501 (Simulation time: 1 hr 34 min 18 sec) 

ChampSim completed all CPUs

Region of Interest Statistics

CPU 0 cummulative IPC: 0.655501 instructions: 100000001 cycles: 152555115
LLC TOTAL     ACCESS:    5887708  HIT:    1898161  MISS:    3989547
LLC LOAD      ACCESS:     433994  HIT:      18786  MISS:     415208
LLC RFO       ACCESS:    2513654  HIT:     659529  MISS:    1854125
LLC PREFETCH  ACCESS:     426105  HIT:      23119  MISS:     402986
LLC WRITEBACK ACCESS:    2513955  HIT:    1196727  MISS:    1317228
OPTgen accesses: 34511
OPTgen hits: 11322
OPTgen hit rate: 32.8069


