
*** ChampSim Multicore Out-of-Order Simulator ***

Warmup Instructions: 50000000
Simulation Instructions: 100000000
Configuration: 2
Number of CPUs: 1
LLC sets: 2048
LLC ways: 16
Off-chip DRAM Channels: 1 Width: 64-bit Data Rate: 1600 MT/s

CPU 0 runs /datasets/cs240c-wi22-a00-public/data/Assignment2-gz/wrf_1228B.trace.gz
CPU 0 L1D next line prefetcher
CPU 0 L2C IP-based stride prefetcher
Initialize Hawkeye state
Heartbeat CPU 0 instructions: 1000003 cycles: 591062 heartbeat IPC: 1.69187 cumulative IPC: 1.69187 (Simulation time: 0 hr 0 min 48 sec) 
Heartbeat CPU 0 instructions: 2000003 cycles: 1111190 heartbeat IPC: 1.9226 cumulative IPC: 1.79987 (Simulation time: 0 hr 1 min 31 sec) 
Heartbeat CPU 0 instructions: 3000000 cycles: 1729157 heartbeat IPC: 1.6182 cumulative IPC: 1.73495 (Simulation time: 0 hr 2 min 15 sec) 
Heartbeat CPU 0 instructions: 4000000 cycles: 2349813 heartbeat IPC: 1.6112 cumulative IPC: 1.70226 (Simulation time: 0 hr 2 min 56 sec) 
Heartbeat CPU 0 instructions: 5000000 cycles: 3052175 heartbeat IPC: 1.42377 cumulative IPC: 1.63818 (Simulation time: 0 hr 3 min 44 sec) 
Heartbeat CPU 0 instructions: 6000000 cycles: 3612262 heartbeat IPC: 1.78544 cumulative IPC: 1.66101 (Simulation time: 0 hr 4 min 24 sec) 
Heartbeat CPU 0 instructions: 7000001 cycles: 4165027 heartbeat IPC: 1.80909 cumulative IPC: 1.68066 (Simulation time: 0 hr 5 min 3 sec) 
Heartbeat CPU 0 instructions: 8000000 cycles: 4716394 heartbeat IPC: 1.81367 cumulative IPC: 1.69621 (Simulation time: 0 hr 5 min 36 sec) 
Heartbeat CPU 0 instructions: 9000002 cycles: 5266580 heartbeat IPC: 1.81757 cumulative IPC: 1.70889 (Simulation time: 0 hr 6 min 12 sec) 
Heartbeat CPU 0 instructions: 10000001 cycles: 5819476 heartbeat IPC: 1.80866 cumulative IPC: 1.71837 (Simulation time: 0 hr 6 min 49 sec) 
Heartbeat CPU 0 instructions: 11000002 cycles: 6373218 heartbeat IPC: 1.8059 cumulative IPC: 1.72597 (Simulation time: 0 hr 7 min 27 sec) 
Heartbeat CPU 0 instructions: 12000000 cycles: 6924066 heartbeat IPC: 1.81538 cumulative IPC: 1.73309 (Simulation time: 0 hr 8 min 1 sec) 
Heartbeat CPU 0 instructions: 13000003 cycles: 7475096 heartbeat IPC: 1.81479 cumulative IPC: 1.73911 (Simulation time: 0 hr 8 min 38 sec) 
Heartbeat CPU 0 instructions: 14000000 cycles: 7938739 heartbeat IPC: 2.15683 cumulative IPC: 1.7635 (Simulation time: 0 hr 9 min 19 sec) 
Heartbeat CPU 0 instructions: 15000002 cycles: 8329217 heartbeat IPC: 2.56097 cumulative IPC: 1.80089 (Simulation time: 0 hr 9 min 52 sec) 
Heartbeat CPU 0 instructions: 16000000 cycles: 8719676 heartbeat IPC: 2.56108 cumulative IPC: 1.83493 (Simulation time: 0 hr 10 min 22 sec) 
Heartbeat CPU 0 instructions: 17000001 cycles: 9108839 heartbeat IPC: 2.56962 cumulative IPC: 1.86632 (Simulation time: 0 hr 10 min 52 sec) 
Heartbeat CPU 0 instructions: 18000003 cycles: 9499570 heartbeat IPC: 2.55931 cumulative IPC: 1.89482 (Simulation time: 0 hr 11 min 23 sec) 
Heartbeat CPU 0 instructions: 19000001 cycles: 9889915 heartbeat IPC: 2.56183 cumulative IPC: 1.92115 (Simulation time: 0 hr 11 min 55 sec) 
Heartbeat CPU 0 instructions: 20000000 cycles: 10279427 heartbeat IPC: 2.56731 cumulative IPC: 1.94563 (Simulation time: 0 hr 12 min 24 sec) 
Heartbeat CPU 0 instructions: 21000003 cycles: 10669369 heartbeat IPC: 2.56449 cumulative IPC: 1.96825 (Simulation time: 0 hr 12 min 54 sec) 
Heartbeat CPU 0 instructions: 22000000 cycles: 11071698 heartbeat IPC: 2.48552 cumulative IPC: 1.98705 (Simulation time: 0 hr 13 min 32 sec) 
Heartbeat CPU 0 instructions: 23000003 cycles: 11599046 heartbeat IPC: 1.89629 cumulative IPC: 1.98292 (Simulation time: 0 hr 14 min 8 sec) 
Heartbeat CPU 0 instructions: 24000000 cycles: 12126751 heartbeat IPC: 1.89499 cumulative IPC: 1.9791 (Simulation time: 0 hr 14 min 46 sec) 
Heartbeat CPU 0 instructions: 25000000 cycles: 12654032 heartbeat IPC: 1.89652 cumulative IPC: 1.97565 (Simulation time: 0 hr 15 min 23 sec) 
Heartbeat CPU 0 instructions: 26000003 cycles: 13181008 heartbeat IPC: 1.89763 cumulative IPC: 1.97254 (Simulation time: 0 hr 16 min 3 sec) 
Heartbeat CPU 0 instructions: 27000001 cycles: 13707910 heartbeat IPC: 1.89788 cumulative IPC: 1.96967 (Simulation time: 0 hr 16 min 39 sec) 
Heartbeat CPU 0 instructions: 28000000 cycles: 14234967 heartbeat IPC: 1.89733 cumulative IPC: 1.96699 (Simulation time: 0 hr 17 min 18 sec) 
Heartbeat CPU 0 instructions: 29000003 cycles: 14865499 heartbeat IPC: 1.58597 cumulative IPC: 1.95083 (Simulation time: 0 hr 17 min 58 sec) 
Heartbeat CPU 0 instructions: 30000003 cycles: 15479033 heartbeat IPC: 1.6299 cumulative IPC: 1.93811 (Simulation time: 0 hr 18 min 36 sec) 
Heartbeat CPU 0 instructions: 31000001 cycles: 16036358 heartbeat IPC: 1.79428 cumulative IPC: 1.93311 (Simulation time: 0 hr 19 min 17 sec) 
Heartbeat CPU 0 instructions: 32000000 cycles: 16591941 heartbeat IPC: 1.79991 cumulative IPC: 1.92865 (Simulation time: 0 hr 19 min 57 sec) 
Heartbeat CPU 0 instructions: 33000001 cycles: 17212753 heartbeat IPC: 1.6108 cumulative IPC: 1.91718 (Simulation time: 0 hr 20 min 37 sec) 
Heartbeat CPU 0 instructions: 34000003 cycles: 17833308 heartbeat IPC: 1.61146 cumulative IPC: 1.90654 (Simulation time: 0 hr 21 min 19 sec) 
Heartbeat CPU 0 instructions: 35000002 cycles: 18516744 heartbeat IPC: 1.46319 cumulative IPC: 1.89018 (Simulation time: 0 hr 22 min 1 sec) 
Heartbeat CPU 0 instructions: 36000000 cycles: 19069568 heartbeat IPC: 1.80889 cumulative IPC: 1.88782 (Simulation time: 0 hr 22 min 43 sec) 
Heartbeat CPU 0 instructions: 37000001 cycles: 19623061 heartbeat IPC: 1.80671 cumulative IPC: 1.88554 (Simulation time: 0 hr 23 min 19 sec) 
Heartbeat CPU 0 instructions: 38000001 cycles: 20173248 heartbeat IPC: 1.81756 cumulative IPC: 1.88368 (Simulation time: 0 hr 23 min 57 sec) 
Heartbeat CPU 0 instructions: 39000002 cycles: 20724715 heartbeat IPC: 1.81335 cumulative IPC: 1.88181 (Simulation time: 0 hr 24 min 35 sec) 
Heartbeat CPU 0 instructions: 40000000 cycles: 21277176 heartbeat IPC: 1.81008 cumulative IPC: 1.87995 (Simulation time: 0 hr 25 min 9 sec) 
Heartbeat CPU 0 instructions: 41000000 cycles: 21829691 heartbeat IPC: 1.80991 cumulative IPC: 1.87818 (Simulation time: 0 hr 25 min 52 sec) 
Heartbeat CPU 0 instructions: 42000000 cycles: 22382168 heartbeat IPC: 1.81003 cumulative IPC: 1.87649 (Simulation time: 0 hr 26 min 34 sec) 
Heartbeat CPU 0 instructions: 43000000 cycles: 22932664 heartbeat IPC: 1.81654 cumulative IPC: 1.87505 (Simulation time: 0 hr 27 min 16 sec) 
Heartbeat CPU 0 instructions: 44000000 cycles: 23336518 heartbeat IPC: 2.47614 cumulative IPC: 1.88546 (Simulation time: 0 hr 27 min 52 sec) 
Heartbeat CPU 0 instructions: 45000000 cycles: 23726030 heartbeat IPC: 2.56732 cumulative IPC: 1.89665 (Simulation time: 0 hr 28 min 28 sec) 
Heartbeat CPU 0 instructions: 46000000 cycles: 24116154 heartbeat IPC: 2.56329 cumulative IPC: 1.90744 (Simulation time: 0 hr 29 min 5 sec) 
Heartbeat CPU 0 instructions: 47000002 cycles: 24506646 heartbeat IPC: 2.56088 cumulative IPC: 1.91785 (Simulation time: 0 hr 29 min 41 sec) 
Heartbeat CPU 0 instructions: 48000000 cycles: 24896759 heartbeat IPC: 2.56335 cumulative IPC: 1.92796 (Simulation time: 0 hr 30 min 17 sec) 
Heartbeat CPU 0 instructions: 49000001 cycles: 25286027 heartbeat IPC: 2.56893 cumulative IPC: 1.93783 (Simulation time: 0 hr 30 min 53 sec) 
Heartbeat CPU 0 instructions: 50000003 cycles: 25676698 heartbeat IPC: 2.5597 cumulative IPC: 1.94729 (Simulation time: 0 hr 31 min 30 sec) 

Warmup complete CPU 0 instructions: 50000003 cycles: 25676698 (Simulation time: 0 hr 31 min 30 sec) 

Heartbeat CPU 0 instructions: 51000001 cycles: 26519720 heartbeat IPC: 1.18621 cumulative IPC: 1.18621 (Simulation time: 0 hr 32 min 6 sec) 
Heartbeat CPU 0 instructions: 52000000 cycles: 27415570 heartbeat IPC: 1.11626 cumulative IPC: 1.15017 (Simulation time: 0 hr 32 min 43 sec) 
Heartbeat CPU 0 instructions: 53000002 cycles: 28367526 heartbeat IPC: 1.05047 cumulative IPC: 1.1149 (Simulation time: 0 hr 33 min 27 sec) 
Heartbeat CPU 0 instructions: 54000001 cycles: 29325980 heartbeat IPC: 1.04335 cumulative IPC: 1.09611 (Simulation time: 0 hr 34 min 12 sec) 
Heartbeat CPU 0 instructions: 55000001 cycles: 30257135 heartbeat IPC: 1.07394 cumulative IPC: 1.0916 (Simulation time: 0 hr 34 min 53 sec) 
Heartbeat CPU 0 instructions: 56000000 cycles: 31215207 heartbeat IPC: 1.04376 cumulative IPC: 1.08332 (Simulation time: 0 hr 35 min 33 sec) 
Heartbeat CPU 0 instructions: 57000001 cycles: 32164791 heartbeat IPC: 1.05309 cumulative IPC: 1.0789 (Simulation time: 0 hr 36 min 11 sec) 
Heartbeat CPU 0 instructions: 58000000 cycles: 33105129 heartbeat IPC: 1.06345 cumulative IPC: 1.07694 (Simulation time: 0 hr 36 min 51 sec) 
Heartbeat CPU 0 instructions: 59000001 cycles: 34975292 heartbeat IPC: 0.534713 cumulative IPC: 0.967888 (Simulation time: 0 hr 37 min 40 sec) 
Heartbeat CPU 0 instructions: 60000000 cycles: 36671626 heartbeat IPC: 0.589506 cumulative IPC: 0.90951 (Simulation time: 0 hr 38 min 25 sec) 
Heartbeat CPU 0 instructions: 61000000 cycles: 39043702 heartbeat IPC: 0.421572 cumulative IPC: 0.822922 (Simulation time: 0 hr 39 min 10 sec) 
Heartbeat CPU 0 instructions: 62000000 cycles: 40780661 heartbeat IPC: 0.575719 cumulative IPC: 0.794493 (Simulation time: 0 hr 39 min 55 sec) 
Heartbeat CPU 0 instructions: 63000001 cycles: 42259439 heartbeat IPC: 0.676235 cumulative IPC: 0.783947 (Simulation time: 0 hr 40 min 42 sec) 
Heartbeat CPU 0 instructions: 64000000 cycles: 43730694 heartbeat IPC: 0.679691 cumulative IPC: 0.775451 (Simulation time: 0 hr 41 min 28 sec) 
Heartbeat CPU 0 instructions: 65000003 cycles: 45225517 heartbeat IPC: 0.668978 cumulative IPC: 0.76731 (Simulation time: 0 hr 42 min 17 sec) 
Heartbeat CPU 0 instructions: 66000000 cycles: 46720971 heartbeat IPC: 0.668691 cumulative IPC: 0.760302 (Simulation time: 0 hr 43 min 5 sec) 
Heartbeat CPU 0 instructions: 67000000 cycles: 48215804 heartbeat IPC: 0.668971 cumulative IPC: 0.754245 (Simulation time: 0 hr 43 min 52 sec) 
Heartbeat CPU 0 instructions: 68000000 cycles: 49710260 heartbeat IPC: 0.66914 cumulative IPC: 0.748953 (Simulation time: 0 hr 44 min 39 sec) 
Heartbeat CPU 0 instructions: 69000000 cycles: 51217901 heartbeat IPC: 0.663288 cumulative IPC: 0.743896 (Simulation time: 0 hr 45 min 25 sec) 
Heartbeat CPU 0 instructions: 70000001 cycles: 52714542 heartbeat IPC: 0.668164 cumulative IPC: 0.739704 (Simulation time: 0 hr 46 min 17 sec) 
Heartbeat CPU 0 instructions: 71000001 cycles: 54208613 heartbeat IPC: 0.669312 cumulative IPC: 0.736018 (Simulation time: 0 hr 47 min 3 sec) 
Heartbeat CPU 0 instructions: 72000000 cycles: 55691710 heartbeat IPC: 0.674264 cumulative IPC: 0.732966 (Simulation time: 0 hr 47 min 50 sec) 
Heartbeat CPU 0 instructions: 73000003 cycles: 57179539 heartbeat IPC: 0.672122 cumulative IPC: 0.730093 (Simulation time: 0 hr 48 min 39 sec) 
Heartbeat CPU 0 instructions: 74000000 cycles: 58677070 heartbeat IPC: 0.667764 cumulative IPC: 0.727264 (Simulation time: 0 hr 49 min 35 sec) 
Heartbeat CPU 0 instructions: 75000001 cycles: 60171183 heartbeat IPC: 0.669294 cumulative IPC: 0.724753 (Simulation time: 0 hr 50 min 26 sec) 
Heartbeat CPU 0 instructions: 76000000 cycles: 61667787 heartbeat IPC: 0.668179 cumulative IPC: 0.722401 (Simulation time: 0 hr 51 min 18 sec) 
Heartbeat CPU 0 instructions: 77000003 cycles: 63161582 heartbeat IPC: 0.669438 cumulative IPC: 0.72029 (Simulation time: 0 hr 52 min 8 sec) 
Heartbeat CPU 0 instructions: 78000001 cycles: 64656292 heartbeat IPC: 0.669025 cumulative IPC: 0.718325 (Simulation time: 0 hr 53 min 1 sec) 
Heartbeat CPU 0 instructions: 79000000 cycles: 66153017 heartbeat IPC: 0.668125 cumulative IPC: 0.716468 (Simulation time: 0 hr 53 min 55 sec) 
Heartbeat CPU 0 instructions: 80000000 cycles: 67643489 heartbeat IPC: 0.670928 cumulative IPC: 0.714851 (Simulation time: 0 hr 54 min 48 sec) 
Heartbeat CPU 0 instructions: 81000001 cycles: 69127415 heartbeat IPC: 0.673889 cumulative IPC: 0.713452 (Simulation time: 0 hr 55 min 40 sec) 
Heartbeat CPU 0 instructions: 82000000 cycles: 70610381 heartbeat IPC: 0.674324 cumulative IPC: 0.712161 (Simulation time: 0 hr 56 min 33 sec) 
Heartbeat CPU 0 instructions: 83000000 cycles: 72093732 heartbeat IPC: 0.674149 cumulative IPC: 0.710946 (Simulation time: 0 hr 57 min 21 sec) 
Heartbeat CPU 0 instructions: 84000000 cycles: 73588634 heartbeat IPC: 0.66894 cumulative IPC: 0.709635 (Simulation time: 0 hr 58 min 13 sec) 
Heartbeat CPU 0 instructions: 85000000 cycles: 75083521 heartbeat IPC: 0.668947 cumulative IPC: 0.708404 (Simulation time: 0 hr 59 min 1 sec) 
Heartbeat CPU 0 instructions: 86000000 cycles: 76577315 heartbeat IPC: 0.669436 cumulative IPC: 0.707261 (Simulation time: 0 hr 59 min 48 sec) 
Heartbeat CPU 0 instructions: 87000000 cycles: 78072165 heartbeat IPC: 0.668963 cumulative IPC: 0.706168 (Simulation time: 1 hr 0 min 33 sec) 
Heartbeat CPU 0 instructions: 88000000 cycles: 79567378 heartbeat IPC: 0.668801 cumulative IPC: 0.705131 (Simulation time: 1 hr 1 min 23 sec) 
Heartbeat CPU 0 instructions: 89000002 cycles: 81063007 heartbeat IPC: 0.668616 cumulative IPC: 0.704145 (Simulation time: 1 hr 2 min 15 sec) 
Heartbeat CPU 0 instructions: 90000000 cycles: 82547343 heartbeat IPC: 0.673701 cumulative IPC: 0.70335 (Simulation time: 1 hr 3 min 7 sec) 
Heartbeat CPU 0 instructions: 91000000 cycles: 84030939 heartbeat IPC: 0.674038 cumulative IPC: 0.702605 (Simulation time: 1 hr 3 min 57 sec) 
Heartbeat CPU 0 instructions: 92000000 cycles: 85514777 heartbeat IPC: 0.673928 cumulative IPC: 0.701894 (Simulation time: 1 hr 4 min 49 sec) 
Heartbeat CPU 0 instructions: 93000000 cycles: 87004514 heartbeat IPC: 0.671259 cumulative IPC: 0.70115 (Simulation time: 1 hr 5 min 40 sec) 
Heartbeat CPU 0 instructions: 94000003 cycles: 88498367 heartbeat IPC: 0.669412 cumulative IPC: 0.700395 (Simulation time: 1 hr 6 min 33 sec) 
Heartbeat CPU 0 instructions: 95000000 cycles: 89994134 heartbeat IPC: 0.668551 cumulative IPC: 0.699655 (Simulation time: 1 hr 7 min 23 sec) 
Heartbeat CPU 0 instructions: 96000000 cycles: 91488084 heartbeat IPC: 0.669366 cumulative IPC: 0.698967 (Simulation time: 1 hr 8 min 11 sec) 
Heartbeat CPU 0 instructions: 97000001 cycles: 92983634 heartbeat IPC: 0.668651 cumulative IPC: 0.698294 (Simulation time: 1 hr 8 min 59 sec) 
Heartbeat CPU 0 instructions: 98000003 cycles: 94478976 heartbeat IPC: 0.668745 cumulative IPC: 0.697651 (Simulation time: 1 hr 9 min 44 sec) 
Heartbeat CPU 0 instructions: 99000000 cycles: 95968080 heartbeat IPC: 0.671543 cumulative IPC: 0.697098 (Simulation time: 1 hr 10 min 32 sec) 
Heartbeat CPU 0 instructions: 100000000 cycles: 97451471 heartbeat IPC: 0.674131 cumulative IPC: 0.696624 (Simulation time: 1 hr 11 min 20 sec) 
Heartbeat CPU 0 instructions: 101000000 cycles: 98934680 heartbeat IPC: 0.674214 cumulative IPC: 0.69617 (Simulation time: 1 hr 12 min 7 sec) 
Heartbeat CPU 0 instructions: 102000003 cycles: 100418265 heartbeat IPC: 0.674045 cumulative IPC: 0.695731 (Simulation time: 1 hr 12 min 55 sec) 
Heartbeat CPU 0 instructions: 103000003 cycles: 101914525 heartbeat IPC: 0.668333 cumulative IPC: 0.695193 (Simulation time: 1 hr 13 min 43 sec) 
Heartbeat CPU 0 instructions: 104000000 cycles: 103409173 heartbeat IPC: 0.669052 cumulative IPC: 0.69469 (Simulation time: 1 hr 14 min 33 sec) 
Heartbeat CPU 0 instructions: 105000000 cycles: 104903982 heartbeat IPC: 0.668982 cumulative IPC: 0.694205 (Simulation time: 1 hr 15 min 19 sec) 
Heartbeat CPU 0 instructions: 106000000 cycles: 106399042 heartbeat IPC: 0.668869 cumulative IPC: 0.693736 (Simulation time: 1 hr 16 min 7 sec) 
Heartbeat CPU 0 instructions: 107000000 cycles: 107894887 heartbeat IPC: 0.668518 cumulative IPC: 0.693277 (Simulation time: 1 hr 16 min 53 sec) 
Heartbeat CPU 0 instructions: 108000000 cycles: 109390467 heartbeat IPC: 0.668637 cumulative IPC: 0.692837 (Simulation time: 1 hr 17 min 39 sec) 
Heartbeat CPU 0 instructions: 109000003 cycles: 110873314 heartbeat IPC: 0.67438 cumulative IPC: 0.692516 (Simulation time: 1 hr 18 min 25 sec) 
Heartbeat CPU 0 instructions: 110000001 cycles: 112356513 heartbeat IPC: 0.674217 cumulative IPC: 0.692203 (Simulation time: 1 hr 19 min 11 sec) 
Heartbeat CPU 0 instructions: 111000000 cycles: 113840091 heartbeat IPC: 0.674045 cumulative IPC: 0.691897 (Simulation time: 1 hr 19 min 54 sec) 
Heartbeat CPU 0 instructions: 112000000 cycles: 115331466 heartbeat IPC: 0.670522 cumulative IPC: 0.691542 (Simulation time: 1 hr 20 min 40 sec) 
Heartbeat CPU 0 instructions: 113000000 cycles: 116825459 heartbeat IPC: 0.669347 cumulative IPC: 0.691178 (Simulation time: 1 hr 21 min 28 sec) 
Heartbeat CPU 0 instructions: 114000000 cycles: 118321229 heartbeat IPC: 0.668552 cumulative IPC: 0.690812 (Simulation time: 1 hr 22 min 13 sec) 
Heartbeat CPU 0 instructions: 115000003 cycles: 119815322 heartbeat IPC: 0.669304 cumulative IPC: 0.690471 (Simulation time: 1 hr 22 min 59 sec) 
Heartbeat CPU 0 instructions: 116000000 cycles: 121311393 heartbeat IPC: 0.668415 cumulative IPC: 0.690126 (Simulation time: 1 hr 23 min 43 sec) 
Heartbeat CPU 0 instructions: 117000000 cycles: 122806987 heartbeat IPC: 0.668631 cumulative IPC: 0.689795 (Simulation time: 1 hr 24 min 28 sec) 
Heartbeat CPU 0 instructions: 118000000 cycles: 124294787 heartbeat IPC: 0.672133 cumulative IPC: 0.689529 (Simulation time: 1 hr 25 min 10 sec) 
Heartbeat CPU 0 instructions: 119000001 cycles: 125778705 heartbeat IPC: 0.673892 cumulative IPC: 0.689297 (Simulation time: 1 hr 25 min 51 sec) 
Heartbeat CPU 0 instructions: 120000000 cycles: 127261968 heartbeat IPC: 0.674189 cumulative IPC: 0.689076 (Simulation time: 1 hr 26 min 34 sec) 
Heartbeat CPU 0 instructions: 121000000 cycles: 128746680 heartbeat IPC: 0.673531 cumulative IPC: 0.688852 (Simulation time: 1 hr 27 min 14 sec) 
Heartbeat CPU 0 instructions: 122000002 cycles: 130245062 heartbeat IPC: 0.667388 cumulative IPC: 0.688545 (Simulation time: 1 hr 27 min 53 sec) 
Heartbeat CPU 0 instructions: 123000002 cycles: 131746635 heartbeat IPC: 0.665968 cumulative IPC: 0.688225 (Simulation time: 1 hr 28 min 31 sec) 
Heartbeat CPU 0 instructions: 124000000 cycles: 133244040 heartbeat IPC: 0.667821 cumulative IPC: 0.687941 (Simulation time: 1 hr 29 min 6 sec) 
Heartbeat CPU 0 instructions: 125000000 cycles: 134739836 heartbeat IPC: 0.66854 cumulative IPC: 0.687675 (Simulation time: 1 hr 29 min 39 sec) 
Heartbeat CPU 0 instructions: 126000000 cycles: 136252944 heartbeat IPC: 0.660891 cumulative IPC: 0.687309 (Simulation time: 1 hr 30 min 12 sec) 
Heartbeat CPU 0 instructions: 127000000 cycles: 137749863 heartbeat IPC: 0.668039 cumulative IPC: 0.687051 (Simulation time: 1 hr 30 min 42 sec) 
Heartbeat CPU 0 instructions: 128000000 cycles: 139240827 heartbeat IPC: 0.670707 cumulative IPC: 0.686837 (Simulation time: 1 hr 31 min 15 sec) 
Heartbeat CPU 0 instructions: 129000000 cycles: 140724472 heartbeat IPC: 0.674016 cumulative IPC: 0.686671 (Simulation time: 1 hr 31 min 47 sec) 
Heartbeat CPU 0 instructions: 130000001 cycles: 142214891 heartbeat IPC: 0.670953 cumulative IPC: 0.68647 (Simulation time: 1 hr 32 min 14 sec) 
Heartbeat CPU 0 instructions: 131000001 cycles: 143710072 heartbeat IPC: 0.668815 cumulative IPC: 0.686247 (Simulation time: 1 hr 32 min 44 sec) 
Heartbeat CPU 0 instructions: 132000000 cycles: 145205564 heartbeat IPC: 0.668676 cumulative IPC: 0.686027 (Simulation time: 1 hr 33 min 12 sec) 
Heartbeat CPU 0 instructions: 133000000 cycles: 146703974 heartbeat IPC: 0.667374 cumulative IPC: 0.685796 (Simulation time: 1 hr 33 min 40 sec) 
Heartbeat CPU 0 instructions: 134000000 cycles: 148198530 heartbeat IPC: 0.669095 cumulative IPC: 0.685592 (Simulation time: 1 hr 34 min 9 sec) 
Heartbeat CPU 0 instructions: 135000001 cycles: 149693765 heartbeat IPC: 0.668792 cumulative IPC: 0.68539 (Simulation time: 1 hr 34 min 37 sec) 
Heartbeat CPU 0 instructions: 136000000 cycles: 151191419 heartbeat IPC: 0.66771 cumulative IPC: 0.685179 (Simulation time: 1 hr 35 min 4 sec) 
Heartbeat CPU 0 instructions: 137000002 cycles: 152678192 heartbeat IPC: 0.672599 cumulative IPC: 0.685031 (Simulation time: 1 hr 35 min 32 sec) 
Heartbeat CPU 0 instructions: 138000001 cycles: 154162993 heartbeat IPC: 0.67349 cumulative IPC: 0.684898 (Simulation time: 1 hr 36 min 1 sec) 
Heartbeat CPU 0 instructions: 139000001 cycles: 155646692 heartbeat IPC: 0.673991 cumulative IPC: 0.684773 (Simulation time: 1 hr 36 min 28 sec) 
Heartbeat CPU 0 instructions: 140000000 cycles: 157132685 heartbeat IPC: 0.67295 cumulative IPC: 0.68464 (Simulation time: 1 hr 36 min 55 sec) 
Heartbeat CPU 0 instructions: 141000002 cycles: 158628811 heartbeat IPC: 0.668394 cumulative IPC: 0.684457 (Simulation time: 1 hr 37 min 20 sec) 
Heartbeat CPU 0 instructions: 142000000 cycles: 160123893 heartbeat IPC: 0.668858 cumulative IPC: 0.684283 (Simulation time: 1 hr 37 min 44 sec) 
Heartbeat CPU 0 instructions: 143000000 cycles: 161618296 heartbeat IPC: 0.669164 cumulative IPC: 0.684117 (Simulation time: 1 hr 38 min 8 sec) 
Heartbeat CPU 0 instructions: 144000000 cycles: 163113097 heartbeat IPC: 0.668985 cumulative IPC: 0.683953 (Simulation time: 1 hr 38 min 32 sec) 
Heartbeat CPU 0 instructions: 145000000 cycles: 164609335 heartbeat IPC: 0.668343 cumulative IPC: 0.683785 (Simulation time: 1 hr 38 min 55 sec) 
Heartbeat CPU 0 instructions: 146000000 cycles: 166101065 heartbeat IPC: 0.670363 cumulative IPC: 0.683642 (Simulation time: 1 hr 39 min 19 sec) 
Heartbeat CPU 0 instructions: 147000003 cycles: 167583906 heartbeat IPC: 0.674383 cumulative IPC: 0.683545 (Simulation time: 1 hr 39 min 41 sec) 
Heartbeat CPU 0 instructions: 148000000 cycles: 169068054 heartbeat IPC: 0.673785 cumulative IPC: 0.683444 (Simulation time: 1 hr 40 min 1 sec) 
Heartbeat CPU 0 instructions: 149000002 cycles: 170551540 heartbeat IPC: 0.674089 cumulative IPC: 0.683348 (Simulation time: 1 hr 40 min 20 sec) 
Heartbeat CPU 0 instructions: 150000001 cycles: 172045073 heartbeat IPC: 0.669553 cumulative IPC: 0.683208 (Simulation time: 1 hr 40 min 41 sec) 
Finished CPU 0 instructions: 100000001 cycles: 146368379 cummulative IPC: 0.683208 (Simulation time: 1 hr 40 min 41 sec) 

ChampSim completed all CPUs

Region of Interest Statistics

CPU 0 cummulative IPC: 0.683208 instructions: 100000001 cycles: 146368379
LLC TOTAL     ACCESS:     644595  HIT:     158420  MISS:     486175
LLC LOAD      ACCESS:      35585  HIT:      10267  MISS:      25318
LLC RFO       ACCESS:     120254  HIT:       6246  MISS:     114008
LLC PREFETCH  ACCESS:     306132  HIT:      56456  MISS:     249676
LLC WRITEBACK ACCESS:     182624  HIT:      85451  MISS:      97173
OPTgen accesses: 3214
OPTgen hits: 1180
OPTgen hit rate: 36.7144


