
*** ChampSim Multicore Out-of-Order Simulator ***

Warmup Instructions: 50000000
Simulation Instructions: 100000000
Configuration: 2
Number of CPUs: 1
LLC sets: 2048
LLC ways: 16
Off-chip DRAM Channels: 1 Width: 64-bit Data Rate: 1600 MT/s

CPU 0 runs /datasets/cs240c-wi22-a00-public/data/Assignment2-gz/cactusADM_1039B.trace.gz
CPU 0 L1D next line prefetcher
CPU 0 L2C IP-based stride prefetcher
Initialize Hawkeye state
Heartbeat CPU 0 instructions: 1000000 cycles: 595518 heartbeat IPC: 1.67921 cumulative IPC: 1.67921 (Simulation time: 0 hr 1 min 0 sec) 
Heartbeat CPU 0 instructions: 2000002 cycles: 1190937 heartbeat IPC: 1.67949 cumulative IPC: 1.67935 (Simulation time: 0 hr 1 min 45 sec) 
Heartbeat CPU 0 instructions: 3000003 cycles: 1786622 heartbeat IPC: 1.67874 cumulative IPC: 1.67915 (Simulation time: 0 hr 2 min 46 sec) 
Heartbeat CPU 0 instructions: 4000000 cycles: 2382046 heartbeat IPC: 1.67947 cumulative IPC: 1.67923 (Simulation time: 0 hr 3 min 53 sec) 
Heartbeat CPU 0 instructions: 5000001 cycles: 2977457 heartbeat IPC: 1.67951 cumulative IPC: 1.67929 (Simulation time: 0 hr 5 min 3 sec) 
Heartbeat CPU 0 instructions: 6000002 cycles: 3572930 heartbeat IPC: 1.67934 cumulative IPC: 1.67929 (Simulation time: 0 hr 6 min 10 sec) 
Heartbeat CPU 0 instructions: 7000000 cycles: 4168306 heartbeat IPC: 1.67961 cumulative IPC: 1.67934 (Simulation time: 0 hr 7 min 20 sec) 
Heartbeat CPU 0 instructions: 8000000 cycles: 4763681 heartbeat IPC: 1.67961 cumulative IPC: 1.67937 (Simulation time: 0 hr 8 min 31 sec) 
Heartbeat CPU 0 instructions: 9000002 cycles: 5359336 heartbeat IPC: 1.67883 cumulative IPC: 1.67931 (Simulation time: 0 hr 9 min 41 sec) 
Heartbeat CPU 0 instructions: 10000003 cycles: 5974113 heartbeat IPC: 1.62661 cumulative IPC: 1.67389 (Simulation time: 0 hr 10 min 51 sec) 
Heartbeat CPU 0 instructions: 11000002 cycles: 6713276 heartbeat IPC: 1.35288 cumulative IPC: 1.63854 (Simulation time: 0 hr 12 min 14 sec) 
Heartbeat CPU 0 instructions: 12000000 cycles: 7308711 heartbeat IPC: 1.67944 cumulative IPC: 1.64188 (Simulation time: 0 hr 13 min 30 sec) 
Heartbeat CPU 0 instructions: 13000002 cycles: 7904225 heartbeat IPC: 1.67922 cumulative IPC: 1.64469 (Simulation time: 0 hr 14 min 35 sec) 
Heartbeat CPU 0 instructions: 14000000 cycles: 8499871 heartbeat IPC: 1.67885 cumulative IPC: 1.64708 (Simulation time: 0 hr 15 min 42 sec) 
Heartbeat CPU 0 instructions: 15000000 cycles: 9094920 heartbeat IPC: 1.68053 cumulative IPC: 1.64927 (Simulation time: 0 hr 16 min 46 sec) 
Heartbeat CPU 0 instructions: 16000000 cycles: 9690514 heartbeat IPC: 1.679 cumulative IPC: 1.6511 (Simulation time: 0 hr 17 min 53 sec) 
Heartbeat CPU 0 instructions: 17000003 cycles: 10286105 heartbeat IPC: 1.67901 cumulative IPC: 1.65272 (Simulation time: 0 hr 19 min 0 sec) 
Heartbeat CPU 0 instructions: 18000001 cycles: 10881639 heartbeat IPC: 1.67916 cumulative IPC: 1.65416 (Simulation time: 0 hr 20 min 5 sec) 
Heartbeat CPU 0 instructions: 19000002 cycles: 11477013 heartbeat IPC: 1.67962 cumulative IPC: 1.65548 (Simulation time: 0 hr 21 min 18 sec) 
Heartbeat CPU 0 instructions: 20000000 cycles: 12072450 heartbeat IPC: 1.67944 cumulative IPC: 1.65666 (Simulation time: 0 hr 22 min 29 sec) 
Heartbeat CPU 0 instructions: 21000002 cycles: 12668137 heartbeat IPC: 1.67874 cumulative IPC: 1.6577 (Simulation time: 0 hr 23 min 42 sec) 
Heartbeat CPU 0 instructions: 22000002 cycles: 13263565 heartbeat IPC: 1.67946 cumulative IPC: 1.65868 (Simulation time: 0 hr 24 min 52 sec) 
Heartbeat CPU 0 instructions: 23000002 cycles: 13859001 heartbeat IPC: 1.67944 cumulative IPC: 1.65957 (Simulation time: 0 hr 25 min 56 sec) 
Heartbeat CPU 0 instructions: 24000000 cycles: 14615092 heartbeat IPC: 1.32259 cumulative IPC: 1.64214 (Simulation time: 0 hr 27 min 24 sec) 
Heartbeat CPU 0 instructions: 25000002 cycles: 15210371 heartbeat IPC: 1.67989 cumulative IPC: 1.64362 (Simulation time: 0 hr 28 min 29 sec) 
Heartbeat CPU 0 instructions: 26000001 cycles: 15805479 heartbeat IPC: 1.68037 cumulative IPC: 1.645 (Simulation time: 0 hr 29 min 37 sec) 
Heartbeat CPU 0 instructions: 27000000 cycles: 16400718 heartbeat IPC: 1.68 cumulative IPC: 1.64627 (Simulation time: 0 hr 30 min 48 sec) 
Heartbeat CPU 0 instructions: 28000000 cycles: 16995962 heartbeat IPC: 1.67998 cumulative IPC: 1.64745 (Simulation time: 0 hr 31 min 57 sec) 
Heartbeat CPU 0 instructions: 29000000 cycles: 17591426 heartbeat IPC: 1.67936 cumulative IPC: 1.64853 (Simulation time: 0 hr 32 min 59 sec) 
Heartbeat CPU 0 instructions: 30000002 cycles: 18186596 heartbeat IPC: 1.6802 cumulative IPC: 1.64957 (Simulation time: 0 hr 33 min 58 sec) 
Heartbeat CPU 0 instructions: 31000001 cycles: 18782117 heartbeat IPC: 1.6792 cumulative IPC: 1.65051 (Simulation time: 0 hr 35 min 1 sec) 
Heartbeat CPU 0 instructions: 32000000 cycles: 19377069 heartbeat IPC: 1.68081 cumulative IPC: 1.65144 (Simulation time: 0 hr 35 min 59 sec) 
Heartbeat CPU 0 instructions: 33000001 cycles: 19972480 heartbeat IPC: 1.67951 cumulative IPC: 1.65227 (Simulation time: 0 hr 36 min 59 sec) 
Heartbeat CPU 0 instructions: 34000003 cycles: 20567539 heartbeat IPC: 1.68051 cumulative IPC: 1.65309 (Simulation time: 0 hr 38 min 6 sec) 
Heartbeat CPU 0 instructions: 35000001 cycles: 21162946 heartbeat IPC: 1.67952 cumulative IPC: 1.65383 (Simulation time: 0 hr 39 min 9 sec) 
Heartbeat CPU 0 instructions: 36000000 cycles: 21758338 heartbeat IPC: 1.67956 cumulative IPC: 1.65454 (Simulation time: 0 hr 40 min 8 sec) 
Heartbeat CPU 0 instructions: 37000002 cycles: 22515358 heartbeat IPC: 1.32097 cumulative IPC: 1.64332 (Simulation time: 0 hr 41 min 22 sec) 
Heartbeat CPU 0 instructions: 38000000 cycles: 23110500 heartbeat IPC: 1.68027 cumulative IPC: 1.64427 (Simulation time: 0 hr 42 min 22 sec) 
Heartbeat CPU 0 instructions: 39000002 cycles: 23705713 heartbeat IPC: 1.68007 cumulative IPC: 1.64517 (Simulation time: 0 hr 43 min 22 sec) 
Heartbeat CPU 0 instructions: 40000000 cycles: 24300950 heartbeat IPC: 1.68 cumulative IPC: 1.64603 (Simulation time: 0 hr 44 min 29 sec) 
Heartbeat CPU 0 instructions: 41000003 cycles: 24896371 heartbeat IPC: 1.67949 cumulative IPC: 1.64683 (Simulation time: 0 hr 45 min 38 sec) 
Heartbeat CPU 0 instructions: 42000001 cycles: 25491545 heartbeat IPC: 1.68018 cumulative IPC: 1.64761 (Simulation time: 0 hr 46 min 34 sec) 
Heartbeat CPU 0 instructions: 43000000 cycles: 26086920 heartbeat IPC: 1.67961 cumulative IPC: 1.64834 (Simulation time: 0 hr 47 min 34 sec) 
Heartbeat CPU 0 instructions: 44000000 cycles: 26682007 heartbeat IPC: 1.68043 cumulative IPC: 1.64905 (Simulation time: 0 hr 48 min 38 sec) 
Heartbeat CPU 0 instructions: 45000000 cycles: 27277476 heartbeat IPC: 1.67935 cumulative IPC: 1.64971 (Simulation time: 0 hr 49 min 45 sec) 
Heartbeat CPU 0 instructions: 46000003 cycles: 27872667 heartbeat IPC: 1.68014 cumulative IPC: 1.65036 (Simulation time: 0 hr 50 min 55 sec) 
Heartbeat CPU 0 instructions: 47000002 cycles: 28467805 heartbeat IPC: 1.68028 cumulative IPC: 1.65099 (Simulation time: 0 hr 52 min 7 sec) 
Heartbeat CPU 0 instructions: 48000000 cycles: 29062799 heartbeat IPC: 1.68069 cumulative IPC: 1.6516 (Simulation time: 0 hr 53 min 19 sec) 
Heartbeat CPU 0 instructions: 49000001 cycles: 29658194 heartbeat IPC: 1.67956 cumulative IPC: 1.65216 (Simulation time: 0 hr 54 min 29 sec) 
Heartbeat CPU 0 instructions: 50000000 cycles: 30415220 heartbeat IPC: 1.32096 cumulative IPC: 1.64391 (Simulation time: 0 hr 55 min 53 sec) 

Warmup complete CPU 0 instructions: 50000004 cycles: 30415221 (Simulation time: 0 hr 55 min 53 sec) 

Heartbeat CPU 0 instructions: 51000003 cycles: 32180103 heartbeat IPC: 0.566611 cumulative IPC: 0.56661 (Simulation time: 0 hr 57 min 8 sec) 
Heartbeat CPU 0 instructions: 52000000 cycles: 33953475 heartbeat IPC: 0.563896 cumulative IPC: 0.565249 (Simulation time: 0 hr 58 min 19 sec) 
Heartbeat CPU 0 instructions: 53000003 cycles: 35725641 heartbeat IPC: 0.564283 cumulative IPC: 0.564927 (Simulation time: 0 hr 59 min 30 sec) 
Heartbeat CPU 0 instructions: 54000002 cycles: 37443079 heartbeat IPC: 0.582262 cumulative IPC: 0.569163 (Simulation time: 1 hr 0 min 33 sec) 
Heartbeat CPU 0 instructions: 55000001 cycles: 39170124 heartbeat IPC: 0.579023 cumulative IPC: 0.571108 (Simulation time: 1 hr 1 min 35 sec) 
Heartbeat CPU 0 instructions: 56000000 cycles: 40940020 heartbeat IPC: 0.565004 cumulative IPC: 0.570082 (Simulation time: 1 hr 2 min 26 sec) 
Heartbeat CPU 0 instructions: 57000000 cycles: 42715011 heartbeat IPC: 0.563383 cumulative IPC: 0.569115 (Simulation time: 1 hr 3 min 18 sec) 
Heartbeat CPU 0 instructions: 58000000 cycles: 44481674 heartbeat IPC: 0.566039 cumulative IPC: 0.568729 (Simulation time: 1 hr 4 min 13 sec) 
Heartbeat CPU 0 instructions: 59000002 cycles: 46170176 heartbeat IPC: 0.592242 cumulative IPC: 0.571249 (Simulation time: 1 hr 5 min 5 sec) 
Heartbeat CPU 0 instructions: 60000000 cycles: 47931936 heartbeat IPC: 0.567613 cumulative IPC: 0.570883 (Simulation time: 1 hr 6 min 0 sec) 
Heartbeat CPU 0 instructions: 61000001 cycles: 49708083 heartbeat IPC: 0.563017 cumulative IPC: 0.570159 (Simulation time: 1 hr 6 min 56 sec) 
Heartbeat CPU 0 instructions: 62000000 cycles: 51483845 heartbeat IPC: 0.563138 cumulative IPC: 0.569567 (Simulation time: 1 hr 7 min 54 sec) 
Heartbeat CPU 0 instructions: 63000001 cycles: 57687211 heartbeat IPC: 0.161203 cumulative IPC: 0.476679 (Simulation time: 1 hr 9 min 1 sec) 
Heartbeat CPU 0 instructions: 64000000 cycles: 59954075 heartbeat IPC: 0.441138 cumulative IPC: 0.473952 (Simulation time: 1 hr 9 min 57 sec) 
Heartbeat CPU 0 instructions: 65000002 cycles: 61726270 heartbeat IPC: 0.564273 cumulative IPC: 0.479064 (Simulation time: 1 hr 10 min 48 sec) 
Heartbeat CPU 0 instructions: 66000001 cycles: 63498256 heartbeat IPC: 0.564338 cumulative IPC: 0.483631 (Simulation time: 1 hr 11 min 39 sec) 
Heartbeat CPU 0 instructions: 67000003 cycles: 65264970 heartbeat IPC: 0.566024 cumulative IPC: 0.487808 (Simulation time: 1 hr 12 min 28 sec) 
Heartbeat CPU 0 instructions: 68000000 cycles: 66992406 heartbeat IPC: 0.578891 cumulative IPC: 0.49211 (Simulation time: 1 hr 13 min 18 sec) 
Heartbeat CPU 0 instructions: 69000003 cycles: 68770998 heartbeat IPC: 0.562244 cumulative IPC: 0.495362 (Simulation time: 1 hr 14 min 6 sec) 
Heartbeat CPU 0 instructions: 70000002 cycles: 70543355 heartbeat IPC: 0.56422 cumulative IPC: 0.498403 (Simulation time: 1 hr 14 min 54 sec) 
Heartbeat CPU 0 instructions: 71000000 cycles: 72316662 heartbeat IPC: 0.563917 cumulative IPC: 0.501176 (Simulation time: 1 hr 15 min 42 sec) 
Heartbeat CPU 0 instructions: 72000000 cycles: 74064924 heartbeat IPC: 0.571997 cumulative IPC: 0.504013 (Simulation time: 1 hr 16 min 30 sec) 
Heartbeat CPU 0 instructions: 73000001 cycles: 75766861 heartbeat IPC: 0.587566 cumulative IPC: 0.507148 (Simulation time: 1 hr 17 min 15 sec) 
Heartbeat CPU 0 instructions: 74000003 cycles: 77536183 heartbeat IPC: 0.565189 cumulative IPC: 0.509327 (Simulation time: 1 hr 18 min 2 sec) 
Heartbeat CPU 0 instructions: 75000002 cycles: 79310929 heartbeat IPC: 0.56346 cumulative IPC: 0.511292 (Simulation time: 1 hr 18 min 48 sec) 
Heartbeat CPU 0 instructions: 76000000 cycles: 84571009 heartbeat IPC: 0.190111 cumulative IPC: 0.480096 (Simulation time: 1 hr 19 min 40 sec) 
Heartbeat CPU 0 instructions: 77000001 cycles: 87732382 heartbeat IPC: 0.316319 cumulative IPC: 0.471063 (Simulation time: 1 hr 20 min 30 sec) 
Heartbeat CPU 0 instructions: 78000000 cycles: 89482201 heartbeat IPC: 0.571487 cumulative IPC: 0.474038 (Simulation time: 1 hr 21 min 16 sec) 
Heartbeat CPU 0 instructions: 79000002 cycles: 91251786 heartbeat IPC: 0.565105 cumulative IPC: 0.476687 (Simulation time: 1 hr 22 min 2 sec) 
Heartbeat CPU 0 instructions: 80000000 cycles: 93023015 heartbeat IPC: 0.564579 cumulative IPC: 0.479174 (Simulation time: 1 hr 22 min 47 sec) 
Heartbeat CPU 0 instructions: 81000002 cycles: 94771638 heartbeat IPC: 0.57188 cumulative IPC: 0.481692 (Simulation time: 1 hr 23 min 31 sec) 
Heartbeat CPU 0 instructions: 82000002 cycles: 96466074 heartbeat IPC: 0.590167 cumulative IPC: 0.484475 (Simulation time: 1 hr 24 min 20 sec) 
Heartbeat CPU 0 instructions: 83000003 cycles: 98234002 heartbeat IPC: 0.565634 cumulative IPC: 0.486591 (Simulation time: 1 hr 25 min 1 sec) 
Heartbeat CPU 0 instructions: 84000000 cycles: 100005764 heartbeat IPC: 0.564408 cumulative IPC: 0.488572 (Simulation time: 1 hr 25 min 43 sec) 
Heartbeat CPU 0 instructions: 85000002 cycles: 101777661 heartbeat IPC: 0.564368 cumulative IPC: 0.490454 (Simulation time: 1 hr 26 min 25 sec) 
Heartbeat CPU 0 instructions: 86000003 cycles: 103495456 heartbeat IPC: 0.582142 cumulative IPC: 0.492609 (Simulation time: 1 hr 27 min 8 sec) 
Heartbeat CPU 0 instructions: 87000000 cycles: 105238057 heartbeat IPC: 0.573853 cumulative IPC: 0.494501 (Simulation time: 1 hr 27 min 49 sec) 
Heartbeat CPU 0 instructions: 88000000 cycles: 107008813 heartbeat IPC: 0.564731 cumulative IPC: 0.496125 (Simulation time: 1 hr 28 min 28 sec) 
Heartbeat CPU 0 instructions: 89000001 cycles: 111344746 heartbeat IPC: 0.230631 cumulative IPC: 0.481901 (Simulation time: 1 hr 29 min 7 sec) 
Heartbeat CPU 0 instructions: 90000002 cycles: 115464530 heartbeat IPC: 0.242731 cumulative IPC: 0.470315 (Simulation time: 1 hr 29 min 47 sec) 
Heartbeat CPU 0 instructions: 91000000 cycles: 117158525 heartbeat IPC: 0.590319 cumulative IPC: 0.472659 (Simulation time: 1 hr 30 min 20 sec) 
Heartbeat CPU 0 instructions: 92000000 cycles: 118922827 heartbeat IPC: 0.566796 cumulative IPC: 0.474535 (Simulation time: 1 hr 30 min 54 sec) 
Heartbeat CPU 0 instructions: 93000001 cycles: 120694402 heartbeat IPC: 0.56447 cumulative IPC: 0.4763 (Simulation time: 1 hr 31 min 26 sec) 
Heartbeat CPU 0 instructions: 94000003 cycles: 122469268 heartbeat IPC: 0.563424 cumulative IPC: 0.47798 (Simulation time: 1 hr 31 min 56 sec) 
Heartbeat CPU 0 instructions: 95000001 cycles: 124189348 heartbeat IPC: 0.581367 cumulative IPC: 0.479876 (Simulation time: 1 hr 32 min 25 sec) 
Heartbeat CPU 0 instructions: 96000000 cycles: 125909142 heartbeat IPC: 0.581464 cumulative IPC: 0.481706 (Simulation time: 1 hr 32 min 53 sec) 
Heartbeat CPU 0 instructions: 97000002 cycles: 127679229 heartbeat IPC: 0.564945 cumulative IPC: 0.483221 (Simulation time: 1 hr 33 min 21 sec) 
Heartbeat CPU 0 instructions: 98000000 cycles: 129453106 heartbeat IPC: 0.563736 cumulative IPC: 0.484663 (Simulation time: 1 hr 33 min 50 sec) 
Heartbeat CPU 0 instructions: 99000002 cycles: 131221773 heartbeat IPC: 0.565399 cumulative IPC: 0.486079 (Simulation time: 1 hr 34 min 20 sec) 
Heartbeat CPU 0 instructions: 100000000 cycles: 132914063 heartbeat IPC: 0.590914 cumulative IPC: 0.48781 (Simulation time: 1 hr 34 min 49 sec) 
Heartbeat CPU 0 instructions: 101000002 cycles: 134669719 heartbeat IPC: 0.569589 cumulative IPC: 0.489188 (Simulation time: 1 hr 35 min 19 sec) 
Heartbeat CPU 0 instructions: 102000000 cycles: 138013891 heartbeat IPC: 0.299027 cumulative IPC: 0.483277 (Simulation time: 1 hr 35 min 50 sec) 
Heartbeat CPU 0 instructions: 103000002 cycles: 143124539 heartbeat IPC: 0.19567 cumulative IPC: 0.470236 (Simulation time: 1 hr 36 min 21 sec) 
Heartbeat CPU 0 instructions: 104000000 cycles: 144850766 heartbeat IPC: 0.579297 cumulative IPC: 0.471881 (Simulation time: 1 hr 36 min 47 sec) 
Heartbeat CPU 0 instructions: 105000002 cycles: 146565735 heartbeat IPC: 0.583102 cumulative IPC: 0.473523 (Simulation time: 1 hr 37 min 15 sec) 
Heartbeat CPU 0 instructions: 106000001 cycles: 148338479 heartbeat IPC: 0.564097 cumulative IPC: 0.474885 (Simulation time: 1 hr 37 min 40 sec) 
Heartbeat CPU 0 instructions: 107000003 cycles: 150108146 heartbeat IPC: 0.565079 cumulative IPC: 0.476219 (Simulation time: 1 hr 38 min 4 sec) 
Heartbeat CPU 0 instructions: 108000000 cycles: 151875906 heartbeat IPC: 0.565686 cumulative IPC: 0.477521 (Simulation time: 1 hr 38 min 28 sec) 
Heartbeat CPU 0 instructions: 109000003 cycles: 153573175 heartbeat IPC: 0.589184 cumulative IPC: 0.47906 (Simulation time: 1 hr 38 min 52 sec) 
Heartbeat CPU 0 instructions: 110000002 cycles: 155323243 heartbeat IPC: 0.571406 cumulative IPC: 0.480353 (Simulation time: 1 hr 39 min 14 sec) 
Heartbeat CPU 0 instructions: 111000002 cycles: 157095846 heartbeat IPC: 0.564142 cumulative IPC: 0.481526 (Simulation time: 1 hr 39 min 36 sec) 
Heartbeat CPU 0 instructions: 112000000 cycles: 158869409 heartbeat IPC: 0.563836 cumulative IPC: 0.482662 (Simulation time: 1 hr 39 min 56 sec) 
Heartbeat CPU 0 instructions: 113000002 cycles: 160626404 heartbeat IPC: 0.569155 cumulative IPC: 0.483829 (Simulation time: 1 hr 40 min 16 sec) 
Heartbeat CPU 0 instructions: 114000002 cycles: 162320221 heartbeat IPC: 0.590383 cumulative IPC: 0.485198 (Simulation time: 1 hr 40 min 35 sec) 
Heartbeat CPU 0 instructions: 115000001 cycles: 164755296 heartbeat IPC: 0.410665 cumulative IPC: 0.483847 (Simulation time: 1 hr 40 min 52 sec) 
Heartbeat CPU 0 instructions: 116000000 cycles: 170765180 heartbeat IPC: 0.166392 cumulative IPC: 0.470253 (Simulation time: 1 hr 41 min 13 sec) 
Heartbeat CPU 0 instructions: 117000003 cycles: 172536568 heartbeat IPC: 0.564531 cumulative IPC: 0.471428 (Simulation time: 1 hr 41 min 30 sec) 
Heartbeat CPU 0 instructions: 118000001 cycles: 174236718 heartbeat IPC: 0.588182 cumulative IPC: 0.472808 (Simulation time: 1 hr 41 min 46 sec) 
Heartbeat CPU 0 instructions: 119000001 cycles: 175979144 heartbeat IPC: 0.573912 cumulative IPC: 0.474019 (Simulation time: 1 hr 42 min 2 sec) 
Heartbeat CPU 0 instructions: 120000000 cycles: 177751406 heartbeat IPC: 0.56425 cumulative IPC: 0.475104 (Simulation time: 1 hr 42 min 17 sec) 
Heartbeat CPU 0 instructions: 121000000 cycles: 179524530 heartbeat IPC: 0.563976 cumulative IPC: 0.476161 (Simulation time: 1 hr 42 min 32 sec) 
Heartbeat CPU 0 instructions: 122000003 cycles: 181284526 heartbeat IPC: 0.568185 cumulative IPC: 0.477234 (Simulation time: 1 hr 42 min 44 sec) 
Heartbeat CPU 0 instructions: 123000002 cycles: 182974933 heartbeat IPC: 0.591573 cumulative IPC: 0.478501 (Simulation time: 1 hr 42 min 56 sec) 
Heartbeat CPU 0 instructions: 124000000 cycles: 184743569 heartbeat IPC: 0.565406 cumulative IPC: 0.479497 (Simulation time: 1 hr 43 min 10 sec) 
Heartbeat CPU 0 instructions: 125000001 cycles: 186514402 heartbeat IPC: 0.564707 cumulative IPC: 0.480464 (Simulation time: 1 hr 43 min 23 sec) 
Heartbeat CPU 0 instructions: 126000000 cycles: 188287271 heartbeat IPC: 0.564057 cumulative IPC: 0.481402 (Simulation time: 1 hr 43 min 35 sec) 
Heartbeat CPU 0 instructions: 127000003 cycles: 190012841 heartbeat IPC: 0.57952 cumulative IPC: 0.482463 (Simulation time: 1 hr 43 min 48 sec) 
Heartbeat CPU 0 instructions: 128000000 cycles: 191787856 heartbeat IPC: 0.563374 cumulative IPC: 0.483353 (Simulation time: 1 hr 43 min 58 sec) 
Heartbeat CPU 0 instructions: 129000001 cycles: 198662602 heartbeat IPC: 0.14546 cumulative IPC: 0.469547 (Simulation time: 1 hr 44 min 9 sec) 
Heartbeat CPU 0 instructions: 130000002 cycles: 208192598 heartbeat IPC: 0.104932 cumulative IPC: 0.450001 (Simulation time: 1 hr 44 min 20 sec) 
Heartbeat CPU 0 instructions: 131000002 cycles: 212139965 heartbeat IPC: 0.253333 cumulative IPC: 0.445729 (Simulation time: 1 hr 44 min 29 sec) 
Heartbeat CPU 0 instructions: 132000000 cycles: 213919170 heartbeat IPC: 0.562048 cumulative IPC: 0.446857 (Simulation time: 1 hr 44 min 37 sec) 
Heartbeat CPU 0 instructions: 133000000 cycles: 215620972 heartbeat IPC: 0.587612 cumulative IPC: 0.44815 (Simulation time: 1 hr 44 min 44 sec) 
Heartbeat CPU 0 instructions: 134000003 cycles: 217391627 heartbeat IPC: 0.564764 cumulative IPC: 0.449255 (Simulation time: 1 hr 44 min 52 sec) 
Heartbeat CPU 0 instructions: 135000002 cycles: 219178038 heartbeat IPC: 0.559781 cumulative IPC: 0.450301 (Simulation time: 1 hr 44 min 59 sec) 
Heartbeat CPU 0 instructions: 136000000 cycles: 220968354 heartbeat IPC: 0.558559 cumulative IPC: 0.451318 (Simulation time: 1 hr 45 min 7 sec) 
Heartbeat CPU 0 instructions: 137000001 cycles: 222721579 heartbeat IPC: 0.570378 cumulative IPC: 0.452403 (Simulation time: 1 hr 45 min 15 sec) 
Heartbeat CPU 0 instructions: 138000001 cycles: 224433402 heartbeat IPC: 0.584173 cumulative IPC: 0.453566 (Simulation time: 1 hr 45 min 22 sec) 
Heartbeat CPU 0 instructions: 139000003 cycles: 226214034 heartbeat IPC: 0.561599 cumulative IPC: 0.454548 (Simulation time: 1 hr 45 min 29 sec) 
Heartbeat CPU 0 instructions: 140000000 cycles: 228004377 heartbeat IPC: 0.558551 cumulative IPC: 0.455491 (Simulation time: 1 hr 45 min 35 sec) 
Heartbeat CPU 0 instructions: 141000003 cycles: 229790075 heartbeat IPC: 0.560007 cumulative IPC: 0.456427 (Simulation time: 1 hr 45 min 41 sec) 
Heartbeat CPU 0 instructions: 142000003 cycles: 231511778 heartbeat IPC: 0.58082 cumulative IPC: 0.457492 (Simulation time: 1 hr 45 min 47 sec) 
Heartbeat CPU 0 instructions: 143000002 cycles: 235405151 heartbeat IPC: 0.256846 cumulative IPC: 0.453681 (Simulation time: 1 hr 45 min 53 sec) 
Heartbeat CPU 0 instructions: 144000000 cycles: 240359517 heartbeat IPC: 0.201842 cumulative IPC: 0.447738 (Simulation time: 1 hr 45 min 59 sec) 
Heartbeat CPU 0 instructions: 145000003 cycles: 242099396 heartbeat IPC: 0.574754 cumulative IPC: 0.448782 (Simulation time: 1 hr 46 min 5 sec) 
Heartbeat CPU 0 instructions: 146000001 cycles: 243803088 heartbeat IPC: 0.586959 cumulative IPC: 0.449885 (Simulation time: 1 hr 46 min 10 sec) 
Heartbeat CPU 0 instructions: 147000001 cycles: 245466728 heartbeat IPC: 0.601092 cumulative IPC: 0.451055 (Simulation time: 1 hr 46 min 16 sec) 
Heartbeat CPU 0 instructions: 148000000 cycles: 247203950 heartbeat IPC: 0.575631 cumulative IPC: 0.452053 (Simulation time: 1 hr 46 min 21 sec) 
Heartbeat CPU 0 instructions: 149000000 cycles: 248941480 heartbeat IPC: 0.57553 cumulative IPC: 0.453035 (Simulation time: 1 hr 46 min 27 sec) 
Heartbeat CPU 0 instructions: 150000002 cycles: 250678158 heartbeat IPC: 0.575813 cumulative IPC: 0.454003 (Simulation time: 1 hr 46 min 33 sec) 
Finished CPU 0 instructions: 100000002 cycles: 220262938 cummulative IPC: 0.454003 (Simulation time: 1 hr 46 min 33 sec) 

ChampSim completed all CPUs

Region of Interest Statistics

CPU 0 cummulative IPC: 0.454003 instructions: 100000002 cycles: 220262938
LLC TOTAL     ACCESS:    1242536  HIT:     323058  MISS:     919478
LLC LOAD      ACCESS:      28232  HIT:       2852  MISS:      25380
LLC RFO       ACCESS:     290712  HIT:      85184  MISS:     205528
LLC PREFETCH  ACCESS:     631203  HIT:      96886  MISS:     534317
LLC WRITEBACK ACCESS:     292389  HIT:     138136  MISS:     154253
OPTgen accesses: 3839
OPTgen hits: 1364
OPTgen hit rate: 35.5301


