
*** ChampSim Multicore Out-of-Order Simulator ***

Warmup Instructions: 50000000
Simulation Instructions: 100000000
Configuration: 2
Number of CPUs: 1
LLC sets: 2048
LLC ways: 16
Off-chip DRAM Channels: 1 Width: 64-bit Data Rate: 1600 MT/s

CPU 0 runs /datasets/cs240c-wi22-a00-public/data/Assignment2-gz/leslie3d_94B.trace.gz
CPU 0 L1D next line prefetcher
CPU 0 L2C IP-based stride prefetcher
Initialize Hawkeye state
Heartbeat CPU 0 instructions: 1000003 cycles: 597056 heartbeat IPC: 1.67489 cumulative IPC: 1.67489 (Simulation time: 0 hr 0 min 44 sec) 
Heartbeat CPU 0 instructions: 2000002 cycles: 1215908 heartbeat IPC: 1.61589 cumulative IPC: 1.64486 (Simulation time: 0 hr 1 min 30 sec) 
Heartbeat CPU 0 instructions: 3000003 cycles: 1867685 heartbeat IPC: 1.53427 cumulative IPC: 1.60627 (Simulation time: 0 hr 2 min 18 sec) 
Heartbeat CPU 0 instructions: 4000000 cycles: 2518917 heartbeat IPC: 1.53555 cumulative IPC: 1.58798 (Simulation time: 0 hr 3 min 0 sec) 
Heartbeat CPU 0 instructions: 5000002 cycles: 3083885 heartbeat IPC: 1.77002 cumulative IPC: 1.62133 (Simulation time: 0 hr 3 min 43 sec) 
Heartbeat CPU 0 instructions: 6000002 cycles: 3734535 heartbeat IPC: 1.53692 cumulative IPC: 1.60663 (Simulation time: 0 hr 4 min 19 sec) 
Heartbeat CPU 0 instructions: 7000000 cycles: 4385262 heartbeat IPC: 1.53674 cumulative IPC: 1.59626 (Simulation time: 0 hr 4 min 58 sec) 
Heartbeat CPU 0 instructions: 8000000 cycles: 4950261 heartbeat IPC: 1.76991 cumulative IPC: 1.61608 (Simulation time: 0 hr 5 min 36 sec) 
Heartbeat CPU 0 instructions: 9000000 cycles: 5601132 heartbeat IPC: 1.5364 cumulative IPC: 1.60682 (Simulation time: 0 hr 6 min 24 sec) 
Heartbeat CPU 0 instructions: 10000001 cycles: 6252333 heartbeat IPC: 1.53563 cumulative IPC: 1.5994 (Simulation time: 0 hr 7 min 5 sec) 
Heartbeat CPU 0 instructions: 11000000 cycles: 6878454 heartbeat IPC: 1.59713 cumulative IPC: 1.5992 (Simulation time: 0 hr 7 min 41 sec) 
Heartbeat CPU 0 instructions: 12000000 cycles: 7380882 heartbeat IPC: 1.99033 cumulative IPC: 1.62582 (Simulation time: 0 hr 8 min 21 sec) 
Heartbeat CPU 0 instructions: 13000000 cycles: 7881181 heartbeat IPC: 1.9988 cumulative IPC: 1.6495 (Simulation time: 0 hr 8 min 56 sec) 
Heartbeat CPU 0 instructions: 14000001 cycles: 8381622 heartbeat IPC: 1.99824 cumulative IPC: 1.67032 (Simulation time: 0 hr 9 min 41 sec) 
Heartbeat CPU 0 instructions: 15000001 cycles: 8881953 heartbeat IPC: 1.99868 cumulative IPC: 1.68882 (Simulation time: 0 hr 10 min 22 sec) 
Heartbeat CPU 0 instructions: 16000000 cycles: 9382247 heartbeat IPC: 1.99882 cumulative IPC: 1.70535 (Simulation time: 0 hr 11 min 2 sec) 
Heartbeat CPU 0 instructions: 17000001 cycles: 9882689 heartbeat IPC: 1.99824 cumulative IPC: 1.72018 (Simulation time: 0 hr 11 min 41 sec) 
Heartbeat CPU 0 instructions: 18000002 cycles: 10382810 heartbeat IPC: 1.99952 cumulative IPC: 1.73363 (Simulation time: 0 hr 12 min 21 sec) 
Heartbeat CPU 0 instructions: 19000000 cycles: 10883274 heartbeat IPC: 1.99814 cumulative IPC: 1.7458 (Simulation time: 0 hr 13 min 7 sec) 
Heartbeat CPU 0 instructions: 20000000 cycles: 11383212 heartbeat IPC: 2.00025 cumulative IPC: 1.75697 (Simulation time: 0 hr 13 min 49 sec) 
Heartbeat CPU 0 instructions: 21000002 cycles: 11883744 heartbeat IPC: 1.99788 cumulative IPC: 1.76712 (Simulation time: 0 hr 14 min 35 sec) 
Heartbeat CPU 0 instructions: 22000000 cycles: 12371528 heartbeat IPC: 2.05008 cumulative IPC: 1.77828 (Simulation time: 0 hr 15 min 15 sec) 
Heartbeat CPU 0 instructions: 23000000 cycles: 12858480 heartbeat IPC: 2.05359 cumulative IPC: 1.7887 (Simulation time: 0 hr 15 min 48 sec) 
Heartbeat CPU 0 instructions: 24000000 cycles: 13344834 heartbeat IPC: 2.05612 cumulative IPC: 1.79845 (Simulation time: 0 hr 16 min 22 sec) 
Heartbeat CPU 0 instructions: 25000000 cycles: 13852118 heartbeat IPC: 1.97128 cumulative IPC: 1.80478 (Simulation time: 0 hr 17 min 0 sec) 
Heartbeat CPU 0 instructions: 26000000 cycles: 14433273 heartbeat IPC: 1.72071 cumulative IPC: 1.80139 (Simulation time: 0 hr 17 min 48 sec) 
Heartbeat CPU 0 instructions: 27000000 cycles: 15014724 heartbeat IPC: 1.71984 cumulative IPC: 1.79823 (Simulation time: 0 hr 18 min 25 sec) 
Heartbeat CPU 0 instructions: 28000000 cycles: 15596124 heartbeat IPC: 1.71999 cumulative IPC: 1.79532 (Simulation time: 0 hr 19 min 6 sec) 
Heartbeat CPU 0 instructions: 29000000 cycles: 16177417 heartbeat IPC: 1.7203 cumulative IPC: 1.79262 (Simulation time: 0 hr 19 min 45 sec) 
Heartbeat CPU 0 instructions: 30000002 cycles: 16807752 heartbeat IPC: 1.58646 cumulative IPC: 1.78489 (Simulation time: 0 hr 20 min 26 sec) 
Heartbeat CPU 0 instructions: 31000000 cycles: 17438976 heartbeat IPC: 1.58422 cumulative IPC: 1.77763 (Simulation time: 0 hr 21 min 7 sec) 
Heartbeat CPU 0 instructions: 32000000 cycles: 18060686 heartbeat IPC: 1.60847 cumulative IPC: 1.7718 (Simulation time: 0 hr 21 min 49 sec) 
Heartbeat CPU 0 instructions: 33000001 cycles: 18693182 heartbeat IPC: 1.58104 cumulative IPC: 1.76535 (Simulation time: 0 hr 22 min 28 sec) 
Heartbeat CPU 0 instructions: 34000003 cycles: 19314843 heartbeat IPC: 1.6086 cumulative IPC: 1.7603 (Simulation time: 0 hr 23 min 10 sec) 
Heartbeat CPU 0 instructions: 35000001 cycles: 19946383 heartbeat IPC: 1.58343 cumulative IPC: 1.7547 (Simulation time: 0 hr 23 min 51 sec) 
Heartbeat CPU 0 instructions: 36000000 cycles: 20567592 heartbeat IPC: 1.60976 cumulative IPC: 1.75033 (Simulation time: 0 hr 24 min 28 sec) 
Heartbeat CPU 0 instructions: 37000003 cycles: 21199477 heartbeat IPC: 1.58257 cumulative IPC: 1.74533 (Simulation time: 0 hr 25 min 2 sec) 
Heartbeat CPU 0 instructions: 38000002 cycles: 21830516 heartbeat IPC: 1.58469 cumulative IPC: 1.74068 (Simulation time: 0 hr 25 min 49 sec) 
Heartbeat CPU 0 instructions: 39000002 cycles: 22453064 heartbeat IPC: 1.6063 cumulative IPC: 1.73696 (Simulation time: 0 hr 26 min 36 sec) 
Heartbeat CPU 0 instructions: 40000000 cycles: 23085506 heartbeat IPC: 1.58117 cumulative IPC: 1.73269 (Simulation time: 0 hr 27 min 23 sec) 
Heartbeat CPU 0 instructions: 41000000 cycles: 23707091 heartbeat IPC: 1.60879 cumulative IPC: 1.72944 (Simulation time: 0 hr 28 min 9 sec) 
Heartbeat CPU 0 instructions: 42000002 cycles: 24338499 heartbeat IPC: 1.58377 cumulative IPC: 1.72566 (Simulation time: 0 hr 28 min 55 sec) 
Heartbeat CPU 0 instructions: 43000002 cycles: 24960211 heartbeat IPC: 1.60846 cumulative IPC: 1.72274 (Simulation time: 0 hr 29 min 42 sec) 
Heartbeat CPU 0 instructions: 44000000 cycles: 25592374 heartbeat IPC: 1.58187 cumulative IPC: 1.71926 (Simulation time: 0 hr 30 min 26 sec) 
Heartbeat CPU 0 instructions: 45000002 cycles: 26222693 heartbeat IPC: 1.5865 cumulative IPC: 1.71607 (Simulation time: 0 hr 31 min 12 sec) 
Heartbeat CPU 0 instructions: 46000001 cycles: 26846207 heartbeat IPC: 1.60381 cumulative IPC: 1.71346 (Simulation time: 0 hr 31 min 58 sec) 
Heartbeat CPU 0 instructions: 47000001 cycles: 27477813 heartbeat IPC: 1.58327 cumulative IPC: 1.71047 (Simulation time: 0 hr 32 min 42 sec) 
Heartbeat CPU 0 instructions: 48000000 cycles: 28099410 heartbeat IPC: 1.60876 cumulative IPC: 1.70822 (Simulation time: 0 hr 33 min 25 sec) 
Heartbeat CPU 0 instructions: 49000000 cycles: 28731180 heartbeat IPC: 1.58285 cumulative IPC: 1.70546 (Simulation time: 0 hr 34 min 9 sec) 
Heartbeat CPU 0 instructions: 50000003 cycles: 29352954 heartbeat IPC: 1.60831 cumulative IPC: 1.70341 (Simulation time: 0 hr 34 min 51 sec) 

Warmup complete CPU 0 instructions: 50000003 cycles: 29352954 (Simulation time: 0 hr 34 min 51 sec) 

Heartbeat CPU 0 instructions: 51000003 cycles: 30617068 heartbeat IPC: 0.791068 cumulative IPC: 0.791068 (Simulation time: 0 hr 35 min 38 sec) 
Heartbeat CPU 0 instructions: 52000000 cycles: 31869876 heartbeat IPC: 0.798205 cumulative IPC: 0.79462 (Simulation time: 0 hr 36 min 21 sec) 
Heartbeat CPU 0 instructions: 53000002 cycles: 33174490 heartbeat IPC: 0.766512 cumulative IPC: 0.785024 (Simulation time: 0 hr 37 min 5 sec) 
Heartbeat CPU 0 instructions: 54000001 cycles: 34432185 heartbeat IPC: 0.795105 cumulative IPC: 0.78752 (Simulation time: 0 hr 37 min 49 sec) 
Heartbeat CPU 0 instructions: 55000000 cycles: 35733276 heartbeat IPC: 0.768585 cumulative IPC: 0.783659 (Simulation time: 0 hr 38 min 36 sec) 
Heartbeat CPU 0 instructions: 56000000 cycles: 37009704 heartbeat IPC: 0.783436 cumulative IPC: 0.783622 (Simulation time: 0 hr 39 min 25 sec) 
Heartbeat CPU 0 instructions: 57000000 cycles: 38312506 heartbeat IPC: 0.767576 cumulative IPC: 0.781289 (Simulation time: 0 hr 40 min 10 sec) 
Heartbeat CPU 0 instructions: 58000001 cycles: 39574121 heartbeat IPC: 0.792636 cumulative IPC: 0.782689 (Simulation time: 0 hr 40 min 57 sec) 
Heartbeat CPU 0 instructions: 59000000 cycles: 40830679 heartbeat IPC: 0.795824 cumulative IPC: 0.784127 (Simulation time: 0 hr 41 min 44 sec) 
Heartbeat CPU 0 instructions: 60000000 cycles: 42111661 heartbeat IPC: 0.780651 cumulative IPC: 0.783778 (Simulation time: 0 hr 42 min 32 sec) 
Heartbeat CPU 0 instructions: 61000001 cycles: 43366736 heartbeat IPC: 0.796766 cumulative IPC: 0.784941 (Simulation time: 0 hr 43 min 19 sec) 
Heartbeat CPU 0 instructions: 62000002 cycles: 44640338 heartbeat IPC: 0.785175 cumulative IPC: 0.784961 (Simulation time: 0 hr 44 min 7 sec) 
Heartbeat CPU 0 instructions: 63000000 cycles: 45889053 heartbeat IPC: 0.800822 cumulative IPC: 0.786159 (Simulation time: 0 hr 44 min 51 sec) 
Heartbeat CPU 0 instructions: 64000000 cycles: 47169740 heartbeat IPC: 0.780831 cumulative IPC: 0.785776 (Simulation time: 0 hr 45 min 38 sec) 
Heartbeat CPU 0 instructions: 65000000 cycles: 48429921 heartbeat IPC: 0.793537 cumulative IPC: 0.786288 (Simulation time: 0 hr 46 min 25 sec) 
Heartbeat CPU 0 instructions: 66000000 cycles: 49699704 heartbeat IPC: 0.787536 cumulative IPC: 0.786366 (Simulation time: 0 hr 47 min 12 sec) 
Heartbeat CPU 0 instructions: 67000003 cycles: 50962634 heartbeat IPC: 0.791812 cumulative IPC: 0.786685 (Simulation time: 0 hr 47 min 57 sec) 
Heartbeat CPU 0 instructions: 68000000 cycles: 52221037 heartbeat IPC: 0.794656 cumulative IPC: 0.787123 (Simulation time: 0 hr 48 min 44 sec) 
Heartbeat CPU 0 instructions: 69000000 cycles: 53498798 heartbeat IPC: 0.782619 cumulative IPC: 0.786885 (Simulation time: 0 hr 49 min 33 sec) 
Heartbeat CPU 0 instructions: 70000001 cycles: 54751297 heartbeat IPC: 0.798405 cumulative IPC: 0.787453 (Simulation time: 0 hr 50 min 21 sec) 
Heartbeat CPU 0 instructions: 71000002 cycles: 56046204 heartbeat IPC: 0.772257 cumulative IPC: 0.786716 (Simulation time: 0 hr 51 min 11 sec) 
Heartbeat CPU 0 instructions: 72000000 cycles: 57290481 heartbeat IPC: 0.803678 cumulative IPC: 0.787471 (Simulation time: 0 hr 51 min 59 sec) 
Heartbeat CPU 0 instructions: 73000000 cycles: 58564028 heartbeat IPC: 0.785209 cumulative IPC: 0.787373 (Simulation time: 0 hr 52 min 48 sec) 
Heartbeat CPU 0 instructions: 74000000 cycles: 59826075 heartbeat IPC: 0.792364 cumulative IPC: 0.787579 (Simulation time: 0 hr 53 min 39 sec) 
Heartbeat CPU 0 instructions: 75000002 cycles: 61081068 heartbeat IPC: 0.796819 cumulative IPC: 0.787945 (Simulation time: 0 hr 54 min 29 sec) 
Heartbeat CPU 0 instructions: 76000000 cycles: 62373916 heartbeat IPC: 0.773485 cumulative IPC: 0.787379 (Simulation time: 0 hr 55 min 19 sec) 
Heartbeat CPU 0 instructions: 77000000 cycles: 63623574 heartbeat IPC: 0.800219 cumulative IPC: 0.787847 (Simulation time: 0 hr 56 min 6 sec) 
Heartbeat CPU 0 instructions: 78000003 cycles: 64932694 heartbeat IPC: 0.763874 cumulative IPC: 0.786965 (Simulation time: 0 hr 56 min 59 sec) 
Heartbeat CPU 0 instructions: 79000000 cycles: 66477527 heartbeat IPC: 0.647317 cumulative IPC: 0.781154 (Simulation time: 0 hr 57 min 49 sec) 
Heartbeat CPU 0 instructions: 80000000 cycles: 68162601 heartbeat IPC: 0.593446 cumulative IPC: 0.773004 (Simulation time: 0 hr 58 min 35 sec) 
Heartbeat CPU 0 instructions: 81000002 cycles: 69759445 heartbeat IPC: 0.626236 cumulative IPC: 0.767203 (Simulation time: 0 hr 59 min 19 sec) 
Heartbeat CPU 0 instructions: 82000003 cycles: 71413077 heartbeat IPC: 0.60473 cumulative IPC: 0.760816 (Simulation time: 1 hr 0 min 6 sec) 
Heartbeat CPU 0 instructions: 83000000 cycles: 73080741 heartbeat IPC: 0.599639 cumulative IPC: 0.754669 (Simulation time: 1 hr 0 min 55 sec) 
Heartbeat CPU 0 instructions: 84000000 cycles: 74700132 heartbeat IPC: 0.617516 cumulative IPC: 0.749771 (Simulation time: 1 hr 1 min 42 sec) 
Heartbeat CPU 0 instructions: 85000001 cycles: 76342831 heartbeat IPC: 0.608755 cumulative IPC: 0.744841 (Simulation time: 1 hr 2 min 32 sec) 
Heartbeat CPU 0 instructions: 86000002 cycles: 77965884 heartbeat IPC: 0.616123 cumulative IPC: 0.740544 (Simulation time: 1 hr 3 min 22 sec) 
Heartbeat CPU 0 instructions: 87000000 cycles: 79601737 heartbeat IPC: 0.611301 cumulative IPC: 0.736336 (Simulation time: 1 hr 4 min 9 sec) 
Heartbeat CPU 0 instructions: 88000000 cycles: 81267057 heartbeat IPC: 0.600485 cumulative IPC: 0.731978 (Simulation time: 1 hr 4 min 58 sec) 
Heartbeat CPU 0 instructions: 89000002 cycles: 82890626 heartbeat IPC: 0.615928 cumulative IPC: 0.728459 (Simulation time: 1 hr 5 min 47 sec) 
Heartbeat CPU 0 instructions: 90000001 cycles: 84529478 heartbeat IPC: 0.610183 cumulative IPC: 0.724946 (Simulation time: 1 hr 6 min 38 sec) 
Heartbeat CPU 0 instructions: 91000003 cycles: 86169673 heartbeat IPC: 0.609685 cumulative IPC: 0.721619 (Simulation time: 1 hr 7 min 28 sec) 
Heartbeat CPU 0 instructions: 92000000 cycles: 87820631 heartbeat IPC: 0.605707 cumulative IPC: 0.718346 (Simulation time: 1 hr 8 min 18 sec) 
Heartbeat CPU 0 instructions: 93000001 cycles: 89496786 heartbeat IPC: 0.596604 cumulative IPC: 0.714953 (Simulation time: 1 hr 9 min 9 sec) 
Heartbeat CPU 0 instructions: 94000003 cycles: 91156597 heartbeat IPC: 0.602479 cumulative IPC: 0.711932 (Simulation time: 1 hr 9 min 57 sec) 
Heartbeat CPU 0 instructions: 95000002 cycles: 92870348 heartbeat IPC: 0.583515 cumulative IPC: 0.708467 (Simulation time: 1 hr 10 min 44 sec) 
Heartbeat CPU 0 instructions: 96000000 cycles: 94518755 heartbeat IPC: 0.606645 cumulative IPC: 0.705892 (Simulation time: 1 hr 11 min 34 sec) 
Heartbeat CPU 0 instructions: 97000003 cycles: 96613099 heartbeat IPC: 0.477478 cumulative IPC: 0.698779 (Simulation time: 1 hr 12 min 28 sec) 
Heartbeat CPU 0 instructions: 98000002 cycles: 102276728 heartbeat IPC: 0.176565 cumulative IPC: 0.658222 (Simulation time: 1 hr 14 min 13 sec) 
Heartbeat CPU 0 instructions: 99000000 cycles: 105263226 heartbeat IPC: 0.33484 cumulative IPC: 0.645499 (Simulation time: 1 hr 15 min 34 sec) 
Heartbeat CPU 0 instructions: 100000000 cycles: 106972136 heartbeat IPC: 0.585168 cumulative IPC: 0.644171 (Simulation time: 1 hr 16 min 21 sec) 
Heartbeat CPU 0 instructions: 101000002 cycles: 108258907 heartbeat IPC: 0.777141 cumulative IPC: 0.646339 (Simulation time: 1 hr 16 min 59 sec) 
Heartbeat CPU 0 instructions: 102000003 cycles: 109547643 heartbeat IPC: 0.775955 cumulative IPC: 0.648422 (Simulation time: 1 hr 17 min 39 sec) 
Heartbeat CPU 0 instructions: 103000002 cycles: 110847797 heartbeat IPC: 0.769139 cumulative IPC: 0.650348 (Simulation time: 1 hr 18 min 20 sec) 
Heartbeat CPU 0 instructions: 104000000 cycles: 112317516 heartbeat IPC: 0.680401 cumulative IPC: 0.65088 (Simulation time: 1 hr 19 min 2 sec) 
Heartbeat CPU 0 instructions: 105000001 cycles: 113847519 heartbeat IPC: 0.653594 cumulative IPC: 0.650929 (Simulation time: 1 hr 19 min 43 sec) 
Heartbeat CPU 0 instructions: 106000001 cycles: 115392654 heartbeat IPC: 0.647193 cumulative IPC: 0.650862 (Simulation time: 1 hr 20 min 25 sec) 
Heartbeat CPU 0 instructions: 107000001 cycles: 116935734 heartbeat IPC: 0.648055 cumulative IPC: 0.650813 (Simulation time: 1 hr 21 min 8 sec) 
Heartbeat CPU 0 instructions: 108000000 cycles: 118484129 heartbeat IPC: 0.645829 cumulative IPC: 0.650726 (Simulation time: 1 hr 21 min 52 sec) 
Heartbeat CPU 0 instructions: 109000001 cycles: 120011376 heartbeat IPC: 0.654774 cumulative IPC: 0.650794 (Simulation time: 1 hr 22 min 32 sec) 
Heartbeat CPU 0 instructions: 110000001 cycles: 121556786 heartbeat IPC: 0.647078 cumulative IPC: 0.650732 (Simulation time: 1 hr 23 min 11 sec) 
Heartbeat CPU 0 instructions: 111000003 cycles: 123091431 heartbeat IPC: 0.651618 cumulative IPC: 0.650747 (Simulation time: 1 hr 23 min 54 sec) 
Heartbeat CPU 0 instructions: 112000000 cycles: 124637161 heartbeat IPC: 0.646942 cumulative IPC: 0.650685 (Simulation time: 1 hr 24 min 37 sec) 
Heartbeat CPU 0 instructions: 113000002 cycles: 126279303 heartbeat IPC: 0.608962 cumulative IPC: 0.649978 (Simulation time: 1 hr 25 min 14 sec) 
Heartbeat CPU 0 instructions: 114000002 cycles: 128692900 heartbeat IPC: 0.414319 cumulative IPC: 0.644252 (Simulation time: 1 hr 26 min 0 sec) 
Heartbeat CPU 0 instructions: 115000003 cycles: 131160239 heartbeat IPC: 0.405295 cumulative IPC: 0.638461 (Simulation time: 1 hr 26 min 46 sec) 
Heartbeat CPU 0 instructions: 116000000 cycles: 133632022 heartbeat IPC: 0.404565 cumulative IPC: 0.632917 (Simulation time: 1 hr 27 min 33 sec) 
Heartbeat CPU 0 instructions: 117000003 cycles: 136074463 heartbeat IPC: 0.409428 cumulative IPC: 0.627802 (Simulation time: 1 hr 28 min 17 sec) 
Heartbeat CPU 0 instructions: 118000000 cycles: 138451355 heartbeat IPC: 0.420716 cumulative IPC: 0.62329 (Simulation time: 1 hr 29 min 2 sec) 
Heartbeat CPU 0 instructions: 119000000 cycles: 140812742 heartbeat IPC: 0.42348 cumulative IPC: 0.619057 (Simulation time: 1 hr 29 min 45 sec) 
Heartbeat CPU 0 instructions: 120000000 cycles: 143259172 heartbeat IPC: 0.408759 cumulative IPC: 0.614541 (Simulation time: 1 hr 30 min 27 sec) 
Heartbeat CPU 0 instructions: 121000001 cycles: 145661564 heartbeat IPC: 0.416252 cumulative IPC: 0.610445 (Simulation time: 1 hr 31 min 10 sec) 
Heartbeat CPU 0 instructions: 122000000 cycles: 148061207 heartbeat IPC: 0.416728 cumulative IPC: 0.606529 (Simulation time: 1 hr 31 min 51 sec) 
Heartbeat CPU 0 instructions: 123000003 cycles: 149438600 heartbeat IPC: 0.726011 cumulative IPC: 0.607899 (Simulation time: 1 hr 32 min 22 sec) 
Heartbeat CPU 0 instructions: 124000000 cycles: 150575787 heartbeat IPC: 0.87936 cumulative IPC: 0.610446 (Simulation time: 1 hr 32 min 51 sec) 
Heartbeat CPU 0 instructions: 125000000 cycles: 151678239 heartbeat IPC: 0.907069 cumulative IPC: 0.613119 (Simulation time: 1 hr 33 min 18 sec) 
Heartbeat CPU 0 instructions: 126000001 cycles: 152774296 heartbeat IPC: 0.912362 cumulative IPC: 0.615777 (Simulation time: 1 hr 33 min 45 sec) 
Heartbeat CPU 0 instructions: 127000002 cycles: 153806927 heartbeat IPC: 0.968401 cumulative IPC: 0.618703 (Simulation time: 1 hr 34 min 11 sec) 
Heartbeat CPU 0 instructions: 128000000 cycles: 154823269 heartbeat IPC: 0.983919 cumulative IPC: 0.621661 (Simulation time: 1 hr 34 min 38 sec) 
Heartbeat CPU 0 instructions: 129000002 cycles: 155880685 heartbeat IPC: 0.945704 cumulative IPC: 0.624369 (Simulation time: 1 hr 35 min 4 sec) 
Heartbeat CPU 0 instructions: 130000003 cycles: 156960909 heartbeat IPC: 0.925735 cumulative IPC: 0.62692 (Simulation time: 1 hr 35 min 29 sec) 
Heartbeat CPU 0 instructions: 131000000 cycles: 158027638 heartbeat IPC: 0.937442 cumulative IPC: 0.629494 (Simulation time: 1 hr 35 min 53 sec) 
Heartbeat CPU 0 instructions: 132000000 cycles: 159091306 heartbeat IPC: 0.940143 cumulative IPC: 0.632041 (Simulation time: 1 hr 36 min 19 sec) 
Heartbeat CPU 0 instructions: 133000001 cycles: 160146999 heartbeat IPC: 0.947246 cumulative IPC: 0.634585 (Simulation time: 1 hr 36 min 42 sec) 
Heartbeat CPU 0 instructions: 134000000 cycles: 161228268 heartbeat IPC: 0.924838 cumulative IPC: 0.636965 (Simulation time: 1 hr 37 min 6 sec) 
Heartbeat CPU 0 instructions: 135000000 cycles: 162280348 heartbeat IPC: 0.950498 cumulative IPC: 0.639447 (Simulation time: 1 hr 37 min 30 sec) 
Heartbeat CPU 0 instructions: 136000000 cycles: 163320698 heartbeat IPC: 0.961215 cumulative IPC: 0.641946 (Simulation time: 1 hr 37 min 54 sec) 
Heartbeat CPU 0 instructions: 137000001 cycles: 164379188 heartbeat IPC: 0.944743 cumulative IPC: 0.644319 (Simulation time: 1 hr 38 min 18 sec) 
Heartbeat CPU 0 instructions: 138000002 cycles: 165435123 heartbeat IPC: 0.947029 cumulative IPC: 0.646668 (Simulation time: 1 hr 38 min 41 sec) 
Heartbeat CPU 0 instructions: 139000001 cycles: 166484028 heartbeat IPC: 0.953374 cumulative IPC: 0.649014 (Simulation time: 1 hr 39 min 6 sec) 
Heartbeat CPU 0 instructions: 140000000 cycles: 167550582 heartbeat IPC: 0.937598 cumulative IPC: 0.651241 (Simulation time: 1 hr 39 min 26 sec) 
Heartbeat CPU 0 instructions: 141000001 cycles: 168597441 heartbeat IPC: 0.955239 cumulative IPC: 0.653527 (Simulation time: 1 hr 39 min 45 sec) 
Heartbeat CPU 0 instructions: 142000003 cycles: 169654080 heartbeat IPC: 0.946399 cumulative IPC: 0.655732 (Simulation time: 1 hr 40 min 1 sec) 
Heartbeat CPU 0 instructions: 143000003 cycles: 170700913 heartbeat IPC: 0.955262 cumulative IPC: 0.657951 (Simulation time: 1 hr 40 min 19 sec) 
Heartbeat CPU 0 instructions: 144000000 cycles: 171756663 heartbeat IPC: 0.947191 cumulative IPC: 0.660095 (Simulation time: 1 hr 40 min 38 sec) 
Heartbeat CPU 0 instructions: 145000000 cycles: 172804269 heartbeat IPC: 0.954557 cumulative IPC: 0.662246 (Simulation time: 1 hr 40 min 53 sec) 
Heartbeat CPU 0 instructions: 146000003 cycles: 173858065 heartbeat IPC: 0.948953 cumulative IPC: 0.664336 (Simulation time: 1 hr 41 min 8 sec) 
Heartbeat CPU 0 instructions: 147000001 cycles: 174910155 heartbeat IPC: 0.950487 cumulative IPC: 0.666405 (Simulation time: 1 hr 41 min 24 sec) 
Heartbeat CPU 0 instructions: 148000000 cycles: 175980261 heartbeat IPC: 0.934486 cumulative IPC: 0.668361 (Simulation time: 1 hr 41 min 39 sec) 
Heartbeat CPU 0 instructions: 149000000 cycles: 177025112 heartbeat IPC: 0.957074 cumulative IPC: 0.670404 (Simulation time: 1 hr 41 min 54 sec) 
Heartbeat CPU 0 instructions: 150000003 cycles: 178084883 heartbeat IPC: 0.943603 cumulative IPC: 0.672351 (Simulation time: 1 hr 42 min 9 sec) 
Finished CPU 0 instructions: 100000000 cycles: 148731929 cummulative IPC: 0.672351 (Simulation time: 1 hr 42 min 9 sec) 

ChampSim completed all CPUs

Region of Interest Statistics

CPU 0 cummulative IPC: 0.672351 instructions: 100000000 cycles: 148731929
LLC TOTAL     ACCESS:    4045778  HIT:     822500  MISS:    3223278
LLC LOAD      ACCESS:     355803  HIT:      67540  MISS:     288263
LLC RFO       ACCESS:     704116  HIT:      53635  MISS:     650481
LLC PREFETCH  ACCESS:    2009128  HIT:     330571  MISS:    1678557
LLC WRITEBACK ACCESS:     976731  HIT:     370754  MISS:     605977
OPTgen accesses: 12341
OPTgen hits: 5007
OPTgen hit rate: 40.5721


