
*** ChampSim Multicore Out-of-Order Simulator ***

Warmup Instructions: 50000000
Simulation Instructions: 100000000
Configuration: 2
Number of CPUs: 1
LLC sets: 2048
LLC ways: 16
Off-chip DRAM Channels: 1 Width: 64-bit Data Rate: 1600 MT/s

CPU 0 runs /datasets/cs240c-wi22-a00-public/data/Assignment2-gz/cactusADM_1495B.trace.gz
CPU 0 L1D next line prefetcher
CPU 0 L2C IP-based stride prefetcher
Initialize Hawkeye state
Heartbeat CPU 0 instructions: 1000003 cycles: 593383 heartbeat IPC: 1.68526 cumulative IPC: 1.68526 (Simulation time: 0 hr 0 min 50 sec) 
Heartbeat CPU 0 instructions: 2000000 cycles: 1186345 heartbeat IPC: 1.68644 cumulative IPC: 1.68585 (Simulation time: 0 hr 1 min 32 sec) 
Heartbeat CPU 0 instructions: 3000003 cycles: 1779703 heartbeat IPC: 1.68533 cumulative IPC: 1.68568 (Simulation time: 0 hr 2 min 18 sec) 
Heartbeat CPU 0 instructions: 4000000 cycles: 2372522 heartbeat IPC: 1.68685 cumulative IPC: 1.68597 (Simulation time: 0 hr 3 min 1 sec) 
Heartbeat CPU 0 instructions: 5000000 cycles: 2965579 heartbeat IPC: 1.68618 cumulative IPC: 1.68601 (Simulation time: 0 hr 3 min 45 sec) 
Heartbeat CPU 0 instructions: 6000001 cycles: 3558796 heartbeat IPC: 1.68573 cumulative IPC: 1.68596 (Simulation time: 0 hr 4 min 31 sec) 
Heartbeat CPU 0 instructions: 7000000 cycles: 4151738 heartbeat IPC: 1.6865 cumulative IPC: 1.68604 (Simulation time: 0 hr 5 min 8 sec) 
Heartbeat CPU 0 instructions: 8000000 cycles: 4906795 heartbeat IPC: 1.3244 cumulative IPC: 1.63039 (Simulation time: 0 hr 5 min 58 sec) 
Heartbeat CPU 0 instructions: 9000002 cycles: 5499996 heartbeat IPC: 1.68577 cumulative IPC: 1.63637 (Simulation time: 0 hr 6 min 38 sec) 
Heartbeat CPU 0 instructions: 10000002 cycles: 6092919 heartbeat IPC: 1.68656 cumulative IPC: 1.64125 (Simulation time: 0 hr 7 min 20 sec) 
Heartbeat CPU 0 instructions: 11000001 cycles: 6686047 heartbeat IPC: 1.68598 cumulative IPC: 1.64522 (Simulation time: 0 hr 8 min 7 sec) 
Heartbeat CPU 0 instructions: 12000000 cycles: 7279204 heartbeat IPC: 1.68589 cumulative IPC: 1.64853 (Simulation time: 0 hr 8 min 46 sec) 
Heartbeat CPU 0 instructions: 13000001 cycles: 7872115 heartbeat IPC: 1.6866 cumulative IPC: 1.6514 (Simulation time: 0 hr 9 min 28 sec) 
Heartbeat CPU 0 instructions: 14000003 cycles: 8465383 heartbeat IPC: 1.68558 cumulative IPC: 1.65379 (Simulation time: 0 hr 10 min 9 sec) 
Heartbeat CPU 0 instructions: 15000001 cycles: 9058473 heartbeat IPC: 1.68608 cumulative IPC: 1.65591 (Simulation time: 0 hr 10 min 50 sec) 
Heartbeat CPU 0 instructions: 16000000 cycles: 9651739 heartbeat IPC: 1.68558 cumulative IPC: 1.65773 (Simulation time: 0 hr 11 min 29 sec) 
Heartbeat CPU 0 instructions: 17000002 cycles: 10244727 heartbeat IPC: 1.68638 cumulative IPC: 1.65939 (Simulation time: 0 hr 12 min 11 sec) 
Heartbeat CPU 0 instructions: 18000000 cycles: 10837709 heartbeat IPC: 1.68639 cumulative IPC: 1.66087 (Simulation time: 0 hr 12 min 52 sec) 
Heartbeat CPU 0 instructions: 19000002 cycles: 11430730 heartbeat IPC: 1.68628 cumulative IPC: 1.66219 (Simulation time: 0 hr 13 min 42 sec) 
Heartbeat CPU 0 instructions: 20000000 cycles: 12024098 heartbeat IPC: 1.68529 cumulative IPC: 1.66333 (Simulation time: 0 hr 14 min 23 sec) 
Heartbeat CPU 0 instructions: 21000002 cycles: 12765456 heartbeat IPC: 1.34888 cumulative IPC: 1.64506 (Simulation time: 0 hr 15 min 7 sec) 
Heartbeat CPU 0 instructions: 22000003 cycles: 13370433 heartbeat IPC: 1.65296 cumulative IPC: 1.64542 (Simulation time: 0 hr 15 min 50 sec) 
Heartbeat CPU 0 instructions: 23000000 cycles: 13963130 heartbeat IPC: 1.6872 cumulative IPC: 1.6472 (Simulation time: 0 hr 16 min 29 sec) 
Heartbeat CPU 0 instructions: 24000000 cycles: 14556816 heartbeat IPC: 1.68439 cumulative IPC: 1.64871 (Simulation time: 0 hr 17 min 16 sec) 
Heartbeat CPU 0 instructions: 25000002 cycles: 15149967 heartbeat IPC: 1.68591 cumulative IPC: 1.65017 (Simulation time: 0 hr 17 min 58 sec) 
Heartbeat CPU 0 instructions: 26000003 cycles: 15742536 heartbeat IPC: 1.68757 cumulative IPC: 1.65158 (Simulation time: 0 hr 18 min 36 sec) 
Heartbeat CPU 0 instructions: 27000001 cycles: 16335627 heartbeat IPC: 1.68608 cumulative IPC: 1.65283 (Simulation time: 0 hr 19 min 17 sec) 
Heartbeat CPU 0 instructions: 28000000 cycles: 16928715 heartbeat IPC: 1.68609 cumulative IPC: 1.65399 (Simulation time: 0 hr 20 min 0 sec) 
Heartbeat CPU 0 instructions: 29000002 cycles: 17521875 heartbeat IPC: 1.68589 cumulative IPC: 1.65507 (Simulation time: 0 hr 20 min 44 sec) 
Heartbeat CPU 0 instructions: 30000002 cycles: 18114985 heartbeat IPC: 1.68603 cumulative IPC: 1.65609 (Simulation time: 0 hr 21 min 29 sec) 
Heartbeat CPU 0 instructions: 31000002 cycles: 18708252 heartbeat IPC: 1.68558 cumulative IPC: 1.65702 (Simulation time: 0 hr 22 min 10 sec) 
Heartbeat CPU 0 instructions: 32000000 cycles: 19301631 heartbeat IPC: 1.68526 cumulative IPC: 1.65789 (Simulation time: 0 hr 22 min 47 sec) 
Heartbeat CPU 0 instructions: 33000001 cycles: 19894349 heartbeat IPC: 1.68714 cumulative IPC: 1.65876 (Simulation time: 0 hr 23 min 38 sec) 
Heartbeat CPU 0 instructions: 34000002 cycles: 20606355 heartbeat IPC: 1.40448 cumulative IPC: 1.64998 (Simulation time: 0 hr 24 min 27 sec) 
Heartbeat CPU 0 instructions: 35000001 cycles: 21242316 heartbeat IPC: 1.57242 cumulative IPC: 1.64765 (Simulation time: 0 hr 25 min 8 sec) 
Heartbeat CPU 0 instructions: 36000000 cycles: 21835381 heartbeat IPC: 1.68615 cumulative IPC: 1.6487 (Simulation time: 0 hr 25 min 57 sec) 
Heartbeat CPU 0 instructions: 37000000 cycles: 22428195 heartbeat IPC: 1.68687 cumulative IPC: 1.64971 (Simulation time: 0 hr 26 min 44 sec) 
Heartbeat CPU 0 instructions: 38000003 cycles: 23021145 heartbeat IPC: 1.68649 cumulative IPC: 1.65066 (Simulation time: 0 hr 27 min 29 sec) 
Heartbeat CPU 0 instructions: 39000002 cycles: 23614459 heartbeat IPC: 1.68545 cumulative IPC: 1.65153 (Simulation time: 0 hr 28 min 14 sec) 
Heartbeat CPU 0 instructions: 40000000 cycles: 24207347 heartbeat IPC: 1.68666 cumulative IPC: 1.65239 (Simulation time: 0 hr 29 min 0 sec) 
Heartbeat CPU 0 instructions: 41000002 cycles: 24800253 heartbeat IPC: 1.68661 cumulative IPC: 1.65321 (Simulation time: 0 hr 29 min 47 sec) 
Heartbeat CPU 0 instructions: 42000000 cycles: 25393182 heartbeat IPC: 1.68654 cumulative IPC: 1.65399 (Simulation time: 0 hr 30 min 34 sec) 
Heartbeat CPU 0 instructions: 43000000 cycles: 25986181 heartbeat IPC: 1.68634 cumulative IPC: 1.65473 (Simulation time: 0 hr 31 min 19 sec) 
Heartbeat CPU 0 instructions: 44000000 cycles: 26579019 heartbeat IPC: 1.6868 cumulative IPC: 1.65544 (Simulation time: 0 hr 32 min 3 sec) 
Heartbeat CPU 0 instructions: 45000003 cycles: 27172002 heartbeat IPC: 1.68639 cumulative IPC: 1.65612 (Simulation time: 0 hr 32 min 49 sec) 
Heartbeat CPU 0 instructions: 46000001 cycles: 27765139 heartbeat IPC: 1.68595 cumulative IPC: 1.65675 (Simulation time: 0 hr 33 min 39 sec) 
Heartbeat CPU 0 instructions: 47000001 cycles: 28445232 heartbeat IPC: 1.47039 cumulative IPC: 1.6523 (Simulation time: 0 hr 34 min 30 sec) 
Heartbeat CPU 0 instructions: 48000000 cycles: 29112165 heartbeat IPC: 1.4994 cumulative IPC: 1.6488 (Simulation time: 0 hr 35 min 23 sec) 
Heartbeat CPU 0 instructions: 49000001 cycles: 29705105 heartbeat IPC: 1.68651 cumulative IPC: 1.64955 (Simulation time: 0 hr 36 min 4 sec) 
Heartbeat CPU 0 instructions: 50000003 cycles: 30298031 heartbeat IPC: 1.68655 cumulative IPC: 1.65027 (Simulation time: 0 hr 36 min 51 sec) 

Warmup complete CPU 0 instructions: 50000003 cycles: 30298031 (Simulation time: 0 hr 36 min 51 sec) 

Heartbeat CPU 0 instructions: 51000000 cycles: 31985623 heartbeat IPC: 0.592559 cumulative IPC: 0.592559 (Simulation time: 0 hr 37 min 39 sec) 
Heartbeat CPU 0 instructions: 52000000 cycles: 33667170 heartbeat IPC: 0.594691 cumulative IPC: 0.593623 (Simulation time: 0 hr 38 min 24 sec) 
Heartbeat CPU 0 instructions: 53000003 cycles: 35407031 heartbeat IPC: 0.57476 cumulative IPC: 0.587199 (Simulation time: 0 hr 39 min 6 sec) 
Heartbeat CPU 0 instructions: 54000001 cycles: 37147443 heartbeat IPC: 0.574575 cumulative IPC: 0.583991 (Simulation time: 0 hr 39 min 52 sec) 
Heartbeat CPU 0 instructions: 55000000 cycles: 38884978 heartbeat IPC: 0.575527 cumulative IPC: 0.582279 (Simulation time: 0 hr 40 min 40 sec) 
Heartbeat CPU 0 instructions: 56000000 cycles: 40544330 heartbeat IPC: 0.602645 cumulative IPC: 0.585577 (Simulation time: 0 hr 41 min 26 sec) 
Heartbeat CPU 0 instructions: 57000000 cycles: 42257873 heartbeat IPC: 0.583586 cumulative IPC: 0.585292 (Simulation time: 0 hr 42 min 15 sec) 
Heartbeat CPU 0 instructions: 58000002 cycles: 44000667 heartbeat IPC: 0.573792 cumulative IPC: 0.583829 (Simulation time: 0 hr 43 min 2 sec) 
Heartbeat CPU 0 instructions: 59000001 cycles: 45743255 heartbeat IPC: 0.573859 cumulative IPC: 0.582704 (Simulation time: 0 hr 43 min 49 sec) 
Heartbeat CPU 0 instructions: 60000000 cycles: 49101142 heartbeat IPC: 0.297806 cumulative IPC: 0.531827 (Simulation time: 0 hr 44 min 38 sec) 
Heartbeat CPU 0 instructions: 61000001 cycles: 54055313 heartbeat IPC: 0.20185 cumulative IPC: 0.463016 (Simulation time: 0 hr 45 min 30 sec) 
Heartbeat CPU 0 instructions: 62000000 cycles: 55792470 heartbeat IPC: 0.575653 cumulative IPC: 0.470691 (Simulation time: 0 hr 46 min 17 sec) 
Heartbeat CPU 0 instructions: 63000000 cycles: 57533494 heartbeat IPC: 0.574375 cumulative IPC: 0.477319 (Simulation time: 0 hr 47 min 2 sec) 
Heartbeat CPU 0 instructions: 64000000 cycles: 59268978 heartbeat IPC: 0.576208 cumulative IPC: 0.483243 (Simulation time: 0 hr 47 min 48 sec) 
Heartbeat CPU 0 instructions: 65000002 cycles: 60931151 heartbeat IPC: 0.601623 cumulative IPC: 0.489666 (Simulation time: 0 hr 48 min 35 sec) 
Heartbeat CPU 0 instructions: 66000003 cycles: 62638984 heartbeat IPC: 0.585538 cumulative IPC: 0.494729 (Simulation time: 0 hr 49 min 25 sec) 
Heartbeat CPU 0 instructions: 67000001 cycles: 64379672 heartbeat IPC: 0.574484 cumulative IPC: 0.498802 (Simulation time: 0 hr 50 min 13 sec) 
Heartbeat CPU 0 instructions: 68000000 cycles: 66121062 heartbeat IPC: 0.574253 cumulative IPC: 0.50247 (Simulation time: 0 hr 51 min 4 sec) 
Heartbeat CPU 0 instructions: 69000003 cycles: 67840388 heartbeat IPC: 0.581625 cumulative IPC: 0.506095 (Simulation time: 0 hr 51 min 51 sec) 
Heartbeat CPU 0 instructions: 70000000 cycles: 69497032 heartbeat IPC: 0.603628 cumulative IPC: 0.510217 (Simulation time: 0 hr 52 min 44 sec) 
Heartbeat CPU 0 instructions: 71000002 cycles: 71228776 heartbeat IPC: 0.577454 cumulative IPC: 0.513062 (Simulation time: 0 hr 53 min 35 sec) 
Heartbeat CPU 0 instructions: 72000000 cycles: 72971705 heartbeat IPC: 0.573746 cumulative IPC: 0.51554 (Simulation time: 0 hr 54 min 25 sec) 
Heartbeat CPU 0 instructions: 73000001 cycles: 75443383 heartbeat IPC: 0.404584 cumulative IPC: 0.509465 (Simulation time: 0 hr 55 min 17 sec) 
Heartbeat CPU 0 instructions: 74000002 cycles: 81352053 heartbeat IPC: 0.169243 cumulative IPC: 0.47009 (Simulation time: 0 hr 56 min 18 sec) 
Heartbeat CPU 0 instructions: 75000002 cycles: 83051640 heartbeat IPC: 0.588378 cumulative IPC: 0.473901 (Simulation time: 0 hr 57 min 7 sec) 
Heartbeat CPU 0 instructions: 76000000 cycles: 84793131 heartbeat IPC: 0.574219 cumulative IPC: 0.477107 (Simulation time: 0 hr 57 min 54 sec) 
Heartbeat CPU 0 instructions: 77000001 cycles: 86532749 heartbeat IPC: 0.574839 cumulative IPC: 0.48013 (Simulation time: 0 hr 58 min 41 sec) 
Heartbeat CPU 0 instructions: 78000000 cycles: 88255981 heartbeat IPC: 0.580304 cumulative IPC: 0.483109 (Simulation time: 0 hr 59 min 29 sec) 
Heartbeat CPU 0 instructions: 79000003 cycles: 89904242 heartbeat IPC: 0.606702 cumulative IPC: 0.486526 (Simulation time: 1 hr 0 min 17 sec) 
Heartbeat CPU 0 instructions: 80000000 cycles: 91637012 heartbeat IPC: 0.577109 cumulative IPC: 0.489085 (Simulation time: 1 hr 1 min 4 sec) 
Heartbeat CPU 0 instructions: 81000002 cycles: 93377867 heartbeat IPC: 0.574432 cumulative IPC: 0.491441 (Simulation time: 1 hr 1 min 55 sec) 
Heartbeat CPU 0 instructions: 82000000 cycles: 95118381 heartbeat IPC: 0.574542 cumulative IPC: 0.493672 (Simulation time: 1 hr 2 min 46 sec) 
Heartbeat CPU 0 instructions: 83000000 cycles: 96806410 heartbeat IPC: 0.592407 cumulative IPC: 0.496178 (Simulation time: 1 hr 3 min 36 sec) 
Heartbeat CPU 0 instructions: 84000000 cycles: 98484089 heartbeat IPC: 0.596062 cumulative IPC: 0.498636 (Simulation time: 1 hr 4 min 26 sec) 
Heartbeat CPU 0 instructions: 85000003 cycles: 100247679 heartbeat IPC: 0.567027 cumulative IPC: 0.50036 (Simulation time: 1 hr 5 min 15 sec) 
Heartbeat CPU 0 instructions: 86000000 cycles: 101990667 heartbeat IPC: 0.573726 cumulative IPC: 0.502144 (Simulation time: 1 hr 6 min 4 sec) 
Heartbeat CPU 0 instructions: 87000001 cycles: 108728816 heartbeat IPC: 0.148409 cumulative IPC: 0.471754 (Simulation time: 1 hr 7 min 1 sec) 
Heartbeat CPU 0 instructions: 88000000 cycles: 110375888 heartbeat IPC: 0.607137 cumulative IPC: 0.474538 (Simulation time: 1 hr 7 min 50 sec) 
Heartbeat CPU 0 instructions: 89000002 cycles: 112104411 heartbeat IPC: 0.57853 cumulative IPC: 0.476735 (Simulation time: 1 hr 8 min 38 sec) 
Heartbeat CPU 0 instructions: 90000001 cycles: 113871183 heartbeat IPC: 0.566003 cumulative IPC: 0.478623 (Simulation time: 1 hr 9 min 26 sec) 
Heartbeat CPU 0 instructions: 91000002 cycles: 115611161 heartbeat IPC: 0.574721 cumulative IPC: 0.480583 (Simulation time: 1 hr 10 min 15 sec) 
Heartbeat CPU 0 instructions: 92000000 cycles: 117307069 heartbeat IPC: 0.589653 cumulative IPC: 0.482708 (Simulation time: 1 hr 11 min 3 sec) 
Heartbeat CPU 0 instructions: 93000002 cycles: 118978956 heartbeat IPC: 0.598128 cumulative IPC: 0.484884 (Simulation time: 1 hr 11 min 50 sec) 
Heartbeat CPU 0 instructions: 94000002 cycles: 120715225 heartbeat IPC: 0.575948 cumulative IPC: 0.486633 (Simulation time: 1 hr 12 min 37 sec) 
Heartbeat CPU 0 instructions: 95000003 cycles: 122456127 heartbeat IPC: 0.574415 cumulative IPC: 0.488291 (Simulation time: 1 hr 13 min 23 sec) 
Heartbeat CPU 0 instructions: 96000000 cycles: 124192406 heartbeat IPC: 0.575943 cumulative IPC: 0.489912 (Simulation time: 1 hr 14 min 10 sec) 
Heartbeat CPU 0 instructions: 97000003 cycles: 125856782 heartbeat IPC: 0.600828 cumulative IPC: 0.491844 (Simulation time: 1 hr 14 min 58 sec) 
Heartbeat CPU 0 instructions: 98000003 cycles: 127559695 heartbeat IPC: 0.587229 cumulative IPC: 0.493514 (Simulation time: 1 hr 15 min 46 sec) 
Heartbeat CPU 0 instructions: 99000000 cycles: 129301552 heartbeat IPC: 0.574098 cumulative IPC: 0.494932 (Simulation time: 1 hr 16 min 32 sec) 
Heartbeat CPU 0 instructions: 100000000 cycles: 136044360 heartbeat IPC: 0.148306 cumulative IPC: 0.47283 (Simulation time: 1 hr 17 min 28 sec) 
Heartbeat CPU 0 instructions: 101000000 cycles: 137744270 heartbeat IPC: 0.588266 cumulative IPC: 0.474656 (Simulation time: 1 hr 18 min 15 sec) 
Heartbeat CPU 0 instructions: 102000003 cycles: 139413346 heartbeat IPC: 0.599136 cumulative IPC: 0.47656 (Simulation time: 1 hr 19 min 1 sec) 
Heartbeat CPU 0 instructions: 103000000 cycles: 141147730 heartbeat IPC: 0.576572 cumulative IPC: 0.478125 (Simulation time: 1 hr 19 min 45 sec) 
Heartbeat CPU 0 instructions: 104000000 cycles: 142888123 heartbeat IPC: 0.574583 cumulative IPC: 0.479616 (Simulation time: 1 hr 20 min 29 sec) 
Heartbeat CPU 0 instructions: 105000001 cycles: 144624675 heartbeat IPC: 0.575854 cumulative IPC: 0.481078 (Simulation time: 1 hr 21 min 15 sec) 
Heartbeat CPU 0 instructions: 106000000 cycles: 146294250 heartbeat IPC: 0.598954 cumulative IPC: 0.482774 (Simulation time: 1 hr 21 min 55 sec) 
Heartbeat CPU 0 instructions: 107000001 cycles: 147991758 heartbeat IPC: 0.589099 cumulative IPC: 0.484308 (Simulation time: 1 hr 22 min 37 sec) 
Heartbeat CPU 0 instructions: 108000000 cycles: 149732002 heartbeat IPC: 0.574632 cumulative IPC: 0.485624 (Simulation time: 1 hr 23 min 19 sec) 
Heartbeat CPU 0 instructions: 109000002 cycles: 151473026 heartbeat IPC: 0.574376 cumulative IPC: 0.486899 (Simulation time: 1 hr 23 min 58 sec) 
Heartbeat CPU 0 instructions: 110000001 cycles: 153200415 heartbeat IPC: 0.578908 cumulative IPC: 0.488192 (Simulation time: 1 hr 24 min 40 sec) 
Heartbeat CPU 0 instructions: 111000003 cycles: 154850065 heartbeat IPC: 0.60619 cumulative IPC: 0.489755 (Simulation time: 1 hr 25 min 23 sec) 
Heartbeat CPU 0 instructions: 112000000 cycles: 156580181 heartbeat IPC: 0.577994 cumulative IPC: 0.490964 (Simulation time: 1 hr 26 min 4 sec) 
Heartbeat CPU 0 instructions: 113000001 cycles: 163265149 heartbeat IPC: 0.149589 cumulative IPC: 0.473801 (Simulation time: 1 hr 26 min 52 sec) 
Heartbeat CPU 0 instructions: 114000003 cycles: 165001695 heartbeat IPC: 0.575857 cumulative IPC: 0.475117 (Simulation time: 1 hr 27 min 33 sec) 
Heartbeat CPU 0 instructions: 115000003 cycles: 166676635 heartbeat IPC: 0.597036 cumulative IPC: 0.476614 (Simulation time: 1 hr 28 min 12 sec) 
Heartbeat CPU 0 instructions: 116000000 cycles: 168370991 heartbeat IPC: 0.590193 cumulative IPC: 0.478008 (Simulation time: 1 hr 28 min 48 sec) 
Heartbeat CPU 0 instructions: 117000002 cycles: 170112069 heartbeat IPC: 0.574358 cumulative IPC: 0.479208 (Simulation time: 1 hr 29 min 21 sec) 
Heartbeat CPU 0 instructions: 118000001 cycles: 171853012 heartbeat IPC: 0.574401 cumulative IPC: 0.480379 (Simulation time: 1 hr 29 min 53 sec) 
Heartbeat CPU 0 instructions: 119000000 cycles: 173580580 heartbeat IPC: 0.578848 cumulative IPC: 0.481566 (Simulation time: 1 hr 30 min 27 sec) 
Heartbeat CPU 0 instructions: 120000000 cycles: 175229564 heartbeat IPC: 0.606434 cumulative IPC: 0.482987 (Simulation time: 1 hr 31 min 1 sec) 
Heartbeat CPU 0 instructions: 121000003 cycles: 176958250 heartbeat IPC: 0.578476 cumulative IPC: 0.484112 (Simulation time: 1 hr 31 min 34 sec) 
Heartbeat CPU 0 instructions: 122000003 cycles: 178700156 heartbeat IPC: 0.574084 cumulative IPC: 0.485168 (Simulation time: 1 hr 32 min 4 sec) 
Heartbeat CPU 0 instructions: 123000001 cycles: 180440663 heartbeat IPC: 0.574544 cumulative IPC: 0.486204 (Simulation time: 1 hr 32 min 30 sec) 
Heartbeat CPU 0 instructions: 124000000 cycles: 182140770 heartbeat IPC: 0.588198 cumulative IPC: 0.487346 (Simulation time: 1 hr 33 min 2 sec) 
Heartbeat CPU 0 instructions: 125000000 cycles: 183812483 heartbeat IPC: 0.598189 cumulative IPC: 0.488553 (Simulation time: 1 hr 33 min 31 sec) 
Heartbeat CPU 0 instructions: 126000002 cycles: 190247825 heartbeat IPC: 0.155392 cumulative IPC: 0.475149 (Simulation time: 1 hr 34 min 4 sec) 
Heartbeat CPU 0 instructions: 127000002 cycles: 192238577 heartbeat IPC: 0.502323 cumulative IPC: 0.475483 (Simulation time: 1 hr 34 min 37 sec) 
Heartbeat CPU 0 instructions: 128000000 cycles: 193968098 heartbeat IPC: 0.578194 cumulative IPC: 0.476568 (Simulation time: 1 hr 35 min 5 sec) 
Heartbeat CPU 0 instructions: 129000001 cycles: 195618534 heartbeat IPC: 0.605901 cumulative IPC: 0.47786 (Simulation time: 1 hr 35 min 34 sec) 
Heartbeat CPU 0 instructions: 130000001 cycles: 197340509 heartbeat IPC: 0.580729 cumulative IPC: 0.47892 (Simulation time: 1 hr 36 min 8 sec) 
Heartbeat CPU 0 instructions: 131000002 cycles: 199079417 heartbeat IPC: 0.575074 cumulative IPC: 0.479911 (Simulation time: 1 hr 36 min 41 sec) 
Heartbeat CPU 0 instructions: 132000000 cycles: 200818334 heartbeat IPC: 0.575069 cumulative IPC: 0.480881 (Simulation time: 1 hr 37 min 13 sec) 
Heartbeat CPU 0 instructions: 133000002 cycles: 202518529 heartbeat IPC: 0.588169 cumulative IPC: 0.48194 (Simulation time: 1 hr 37 min 48 sec) 
Heartbeat CPU 0 instructions: 134000000 cycles: 204183729 heartbeat IPC: 0.600527 cumulative IPC: 0.483076 (Simulation time: 1 hr 38 min 25 sec) 
Heartbeat CPU 0 instructions: 135000003 cycles: 205919074 heartbeat IPC: 0.576256 cumulative IPC: 0.483997 (Simulation time: 1 hr 39 min 0 sec) 
Heartbeat CPU 0 instructions: 136000000 cycles: 207658119 heartbeat IPC: 0.575027 cumulative IPC: 0.484889 (Simulation time: 1 hr 39 min 32 sec) 
Heartbeat CPU 0 instructions: 137000003 cycles: 209395837 heartbeat IPC: 0.575469 cumulative IPC: 0.485768 (Simulation time: 1 hr 39 min 58 sec) 
Heartbeat CPU 0 instructions: 138000003 cycles: 211068055 heartbeat IPC: 0.598008 cumulative IPC: 0.486806 (Simulation time: 1 hr 40 min 22 sec) 
Heartbeat CPU 0 instructions: 139000000 cycles: 216463562 heartbeat IPC: 0.185339 cumulative IPC: 0.478069 (Simulation time: 1 hr 40 min 49 sec) 
Heartbeat CPU 0 instructions: 140000000 cycles: 219426466 heartbeat IPC: 0.337507 cumulative IPC: 0.475867 (Simulation time: 1 hr 41 min 10 sec) 
Heartbeat CPU 0 instructions: 141000001 cycles: 221163762 heartbeat IPC: 0.575608 cumulative IPC: 0.476775 (Simulation time: 1 hr 41 min 32 sec) 
Heartbeat CPU 0 instructions: 142000000 cycles: 222870631 heartbeat IPC: 0.585867 cumulative IPC: 0.477742 (Simulation time: 1 hr 41 min 52 sec) 
Heartbeat CPU 0 instructions: 143000003 cycles: 224532687 heartbeat IPC: 0.601666 cumulative IPC: 0.478802 (Simulation time: 1 hr 42 min 11 sec) 
Heartbeat CPU 0 instructions: 144000000 cycles: 226264525 heartbeat IPC: 0.577419 cumulative IPC: 0.479674 (Simulation time: 1 hr 42 min 27 sec) 
Heartbeat CPU 0 instructions: 145000002 cycles: 228018796 heartbeat IPC: 0.570038 cumulative IPC: 0.480476 (Simulation time: 1 hr 42 min 42 sec) 
Heartbeat CPU 0 instructions: 146000001 cycles: 229755346 heartbeat IPC: 0.575854 cumulative IPC: 0.481306 (Simulation time: 1 hr 42 min 57 sec) 
Heartbeat CPU 0 instructions: 147000000 cycles: 231430600 heartbeat IPC: 0.596924 cumulative IPC: 0.482269 (Simulation time: 1 hr 43 min 13 sec) 
Heartbeat CPU 0 instructions: 148000000 cycles: 233118887 heartbeat IPC: 0.592316 cumulative IPC: 0.483185 (Simulation time: 1 hr 43 min 28 sec) 
Heartbeat CPU 0 instructions: 149000000 cycles: 234873536 heartbeat IPC: 0.569915 cumulative IPC: 0.483929 (Simulation time: 1 hr 43 min 43 sec) 
Heartbeat CPU 0 instructions: 150000002 cycles: 236631634 heartbeat IPC: 0.568798 cumulative IPC: 0.484652 (Simulation time: 1 hr 43 min 56 sec) 
Finished CPU 0 instructions: 100000003 cycles: 206333604 cummulative IPC: 0.484652 (Simulation time: 1 hr 43 min 56 sec) 

ChampSim completed all CPUs

Region of Interest Statistics

CPU 0 cummulative IPC: 0.484652 instructions: 100000003 cycles: 206333604
LLC TOTAL     ACCESS:    1106873  HIT:     322994  MISS:     783879
LLC LOAD      ACCESS:      21511  HIT:       2905  MISS:      18606
LLC RFO       ACCESS:     245174  HIT:      87603  MISS:     157571
LLC PREFETCH  ACCESS:     594624  HIT:     115342  MISS:     479282
LLC WRITEBACK ACCESS:     245564  HIT:     117144  MISS:     128420
OPTgen accesses: 3481
OPTgen hits: 1228
OPTgen hit rate: 35.2772


