
*** ChampSim Multicore Out-of-Order Simulator ***

Warmup Instructions: 50000000
Simulation Instructions: 100000000
Configuration: 2
Number of CPUs: 1
LLC sets: 2048
LLC ways: 16
Off-chip DRAM Channels: 1 Width: 64-bit Data Rate: 1600 MT/s

CPU 0 runs /datasets/cs240c-wi22-a00-public/data/Assignment2-gz/zeusmp_600B.trace.gz
CPU 0 L1D next line prefetcher
CPU 0 L2C IP-based stride prefetcher
Initialize Hawkeye state
Heartbeat CPU 0 instructions: 1000000 cycles: 407346 heartbeat IPC: 2.45492 cumulative IPC: 2.45492 (Simulation time: 0 hr 0 min 49 sec) 
Heartbeat CPU 0 instructions: 2000001 cycles: 814284 heartbeat IPC: 2.45738 cumulative IPC: 2.45615 (Simulation time: 0 hr 1 min 31 sec) 
Heartbeat CPU 0 instructions: 3000000 cycles: 1221753 heartbeat IPC: 2.45417 cumulative IPC: 2.45549 (Simulation time: 0 hr 2 min 18 sec) 
Heartbeat CPU 0 instructions: 4000000 cycles: 1629404 heartbeat IPC: 2.45308 cumulative IPC: 2.45489 (Simulation time: 0 hr 3 min 5 sec) 
Heartbeat CPU 0 instructions: 5000001 cycles: 2036967 heartbeat IPC: 2.45361 cumulative IPC: 2.45463 (Simulation time: 0 hr 3 min 53 sec) 
Heartbeat CPU 0 instructions: 6000000 cycles: 2444291 heartbeat IPC: 2.45505 cumulative IPC: 2.4547 (Simulation time: 0 hr 4 min 39 sec) 
Heartbeat CPU 0 instructions: 7000000 cycles: 2851775 heartbeat IPC: 2.45408 cumulative IPC: 2.45461 (Simulation time: 0 hr 5 min 22 sec) 
Heartbeat CPU 0 instructions: 8000000 cycles: 3259377 heartbeat IPC: 2.45337 cumulative IPC: 2.45446 (Simulation time: 0 hr 6 min 11 sec) 
Heartbeat CPU 0 instructions: 9000003 cycles: 3666450 heartbeat IPC: 2.45657 cumulative IPC: 2.45469 (Simulation time: 0 hr 7 min 2 sec) 
Heartbeat CPU 0 instructions: 10000001 cycles: 4073948 heartbeat IPC: 2.45399 cumulative IPC: 2.45462 (Simulation time: 0 hr 7 min 51 sec) 
Heartbeat CPU 0 instructions: 11000000 cycles: 4481314 heartbeat IPC: 2.45479 cumulative IPC: 2.45464 (Simulation time: 0 hr 8 min 39 sec) 
Heartbeat CPU 0 instructions: 12000000 cycles: 4888910 heartbeat IPC: 2.45341 cumulative IPC: 2.45453 (Simulation time: 0 hr 9 min 25 sec) 
Heartbeat CPU 0 instructions: 13000003 cycles: 5296038 heartbeat IPC: 2.45624 cumulative IPC: 2.45467 (Simulation time: 0 hr 10 min 13 sec) 
Heartbeat CPU 0 instructions: 14000001 cycles: 5703620 heartbeat IPC: 2.45349 cumulative IPC: 2.45458 (Simulation time: 0 hr 11 min 0 sec) 
Heartbeat CPU 0 instructions: 15000003 cycles: 6111272 heartbeat IPC: 2.45308 cumulative IPC: 2.45448 (Simulation time: 0 hr 11 min 50 sec) 
Heartbeat CPU 0 instructions: 16000000 cycles: 6519155 heartbeat IPC: 2.45168 cumulative IPC: 2.45431 (Simulation time: 0 hr 12 min 39 sec) 
Heartbeat CPU 0 instructions: 17000002 cycles: 6945425 heartbeat IPC: 2.34594 cumulative IPC: 2.44765 (Simulation time: 0 hr 13 min 21 sec) 
Heartbeat CPU 0 instructions: 18000000 cycles: 7402887 heartbeat IPC: 2.18597 cumulative IPC: 2.43148 (Simulation time: 0 hr 14 min 5 sec) 
Heartbeat CPU 0 instructions: 19000000 cycles: 7812632 heartbeat IPC: 2.44054 cumulative IPC: 2.43196 (Simulation time: 0 hr 14 min 45 sec) 
Heartbeat CPU 0 instructions: 20000000 cycles: 8225106 heartbeat IPC: 2.4244 cumulative IPC: 2.43158 (Simulation time: 0 hr 15 min 27 sec) 
Heartbeat CPU 0 instructions: 21000001 cycles: 8686463 heartbeat IPC: 2.16752 cumulative IPC: 2.41755 (Simulation time: 0 hr 16 min 13 sec) 
Heartbeat CPU 0 instructions: 22000000 cycles: 9108336 heartbeat IPC: 2.37038 cumulative IPC: 2.41537 (Simulation time: 0 hr 16 min 53 sec) 
Heartbeat CPU 0 instructions: 23000000 cycles: 9515150 heartbeat IPC: 2.45813 cumulative IPC: 2.4172 (Simulation time: 0 hr 17 min 33 sec) 
Heartbeat CPU 0 instructions: 24000000 cycles: 9968804 heartbeat IPC: 2.20432 cumulative IPC: 2.40751 (Simulation time: 0 hr 18 min 12 sec) 
Heartbeat CPU 0 instructions: 25000000 cycles: 10408185 heartbeat IPC: 2.27593 cumulative IPC: 2.40196 (Simulation time: 0 hr 18 min 42 sec) 
Heartbeat CPU 0 instructions: 26000000 cycles: 10815140 heartbeat IPC: 2.45727 cumulative IPC: 2.40404 (Simulation time: 0 hr 19 min 6 sec) 
Heartbeat CPU 0 instructions: 27000003 cycles: 11253215 heartbeat IPC: 2.28272 cumulative IPC: 2.39931 (Simulation time: 0 hr 19 min 31 sec) 
Heartbeat CPU 0 instructions: 28000000 cycles: 11711460 heartbeat IPC: 2.18223 cumulative IPC: 2.39082 (Simulation time: 0 hr 19 min 58 sec) 
Heartbeat CPU 0 instructions: 29000000 cycles: 12119007 heartbeat IPC: 2.4537 cumulative IPC: 2.39294 (Simulation time: 0 hr 20 min 29 sec) 
Heartbeat CPU 0 instructions: 30000002 cycles: 12541767 heartbeat IPC: 2.36541 cumulative IPC: 2.39201 (Simulation time: 0 hr 20 min 57 sec) 
Heartbeat CPU 0 instructions: 31000002 cycles: 13008152 heartbeat IPC: 2.14415 cumulative IPC: 2.38312 (Simulation time: 0 hr 21 min 27 sec) 
Heartbeat CPU 0 instructions: 32000000 cycles: 13426551 heartbeat IPC: 2.39006 cumulative IPC: 2.38334 (Simulation time: 0 hr 21 min 56 sec) 
Heartbeat CPU 0 instructions: 33000002 cycles: 13838102 heartbeat IPC: 2.42984 cumulative IPC: 2.38472 (Simulation time: 0 hr 22 min 21 sec) 
Heartbeat CPU 0 instructions: 34000000 cycles: 14301783 heartbeat IPC: 2.15665 cumulative IPC: 2.37733 (Simulation time: 0 hr 22 min 46 sec) 
Heartbeat CPU 0 instructions: 35000001 cycles: 14738012 heartbeat IPC: 2.29238 cumulative IPC: 2.37481 (Simulation time: 0 hr 23 min 12 sec) 
Heartbeat CPU 0 instructions: 36000000 cycles: 15145661 heartbeat IPC: 2.45309 cumulative IPC: 2.37692 (Simulation time: 0 hr 23 min 43 sec) 
Heartbeat CPU 0 instructions: 37000001 cycles: 15596601 heartbeat IPC: 2.21759 cumulative IPC: 2.37231 (Simulation time: 0 hr 24 min 14 sec) 
Heartbeat CPU 0 instructions: 38000001 cycles: 16052828 heartbeat IPC: 2.19189 cumulative IPC: 2.36718 (Simulation time: 0 hr 24 min 42 sec) 
Heartbeat CPU 0 instructions: 39000002 cycles: 16459965 heartbeat IPC: 2.45618 cumulative IPC: 2.36939 (Simulation time: 0 hr 25 min 10 sec) 
Heartbeat CPU 0 instructions: 40000000 cycles: 16894196 heartbeat IPC: 2.30292 cumulative IPC: 2.36768 (Simulation time: 0 hr 25 min 46 sec) 
Heartbeat CPU 0 instructions: 41000002 cycles: 17361932 heartbeat IPC: 2.13796 cumulative IPC: 2.36149 (Simulation time: 0 hr 26 min 19 sec) 
Heartbeat CPU 0 instructions: 42000000 cycles: 17776373 heartbeat IPC: 2.41288 cumulative IPC: 2.36269 (Simulation time: 0 hr 26 min 50 sec) 
Heartbeat CPU 0 instructions: 43000003 cycles: 18194816 heartbeat IPC: 2.38982 cumulative IPC: 2.36331 (Simulation time: 0 hr 27 min 23 sec) 
Heartbeat CPU 0 instructions: 44000000 cycles: 18662030 heartbeat IPC: 2.14034 cumulative IPC: 2.35773 (Simulation time: 0 hr 27 min 56 sec) 
Heartbeat CPU 0 instructions: 45000003 cycles: 19093777 heartbeat IPC: 2.31618 cumulative IPC: 2.35679 (Simulation time: 0 hr 28 min 26 sec) 
Heartbeat CPU 0 instructions: 46000003 cycles: 19502053 heartbeat IPC: 2.44932 cumulative IPC: 2.35873 (Simulation time: 0 hr 28 min 58 sec) 
Heartbeat CPU 0 instructions: 47000001 cycles: 19962546 heartbeat IPC: 2.17158 cumulative IPC: 2.35441 (Simulation time: 0 hr 29 min 30 sec) 
Heartbeat CPU 0 instructions: 48000000 cycles: 20413618 heartbeat IPC: 2.21694 cumulative IPC: 2.35137 (Simulation time: 0 hr 30 min 1 sec) 
Heartbeat CPU 0 instructions: 49000001 cycles: 20820468 heartbeat IPC: 2.45791 cumulative IPC: 2.35345 (Simulation time: 0 hr 30 min 34 sec) 
Heartbeat CPU 0 instructions: 50000000 cycles: 21265975 heartbeat IPC: 2.24463 cumulative IPC: 2.35117 (Simulation time: 0 hr 31 min 5 sec) 

Warmup complete CPU 0 instructions: 50000001 cycles: 21265976 (Simulation time: 0 hr 31 min 5 sec) 

Heartbeat CPU 0 instructions: 51000001 cycles: 22046307 heartbeat IPC: 1.28151 cumulative IPC: 1.28151 (Simulation time: 0 hr 31 min 39 sec) 
Heartbeat CPU 0 instructions: 52000000 cycles: 22811019 heartbeat IPC: 1.30768 cumulative IPC: 1.29446 (Simulation time: 0 hr 32 min 15 sec) 
Heartbeat CPU 0 instructions: 53000001 cycles: 23586535 heartbeat IPC: 1.28947 cumulative IPC: 1.29279 (Simulation time: 0 hr 32 min 50 sec) 
Heartbeat CPU 0 instructions: 54000000 cycles: 24360058 heartbeat IPC: 1.29279 cumulative IPC: 1.29279 (Simulation time: 0 hr 33 min 23 sec) 
Heartbeat CPU 0 instructions: 55000001 cycles: 25129565 heartbeat IPC: 1.29953 cumulative IPC: 1.29413 (Simulation time: 0 hr 33 min 55 sec) 
Heartbeat CPU 0 instructions: 56000000 cycles: 25901548 heartbeat IPC: 1.29536 cumulative IPC: 1.29434 (Simulation time: 0 hr 34 min 31 sec) 
Heartbeat CPU 0 instructions: 57000003 cycles: 26681640 heartbeat IPC: 1.2819 cumulative IPC: 1.29255 (Simulation time: 0 hr 35 min 8 sec) 
Heartbeat CPU 0 instructions: 58000001 cycles: 27447127 heartbeat IPC: 1.30636 cumulative IPC: 1.29426 (Simulation time: 0 hr 35 min 40 sec) 
Heartbeat CPU 0 instructions: 59000000 cycles: 28221096 heartbeat IPC: 1.29204 cumulative IPC: 1.29401 (Simulation time: 0 hr 36 min 13 sec) 
Heartbeat CPU 0 instructions: 60000000 cycles: 28992843 heartbeat IPC: 1.29576 cumulative IPC: 1.29419 (Simulation time: 0 hr 36 min 45 sec) 
Heartbeat CPU 0 instructions: 61000003 cycles: 29761998 heartbeat IPC: 1.30013 cumulative IPC: 1.29472 (Simulation time: 0 hr 37 min 19 sec) 
Heartbeat CPU 0 instructions: 62000001 cycles: 30540017 heartbeat IPC: 1.28531 cumulative IPC: 1.29393 (Simulation time: 0 hr 37 min 52 sec) 
Heartbeat CPU 0 instructions: 63000000 cycles: 31314679 heartbeat IPC: 1.29088 cumulative IPC: 1.2937 (Simulation time: 0 hr 38 min 25 sec) 
Heartbeat CPU 0 instructions: 64000000 cycles: 32083472 heartbeat IPC: 1.30074 cumulative IPC: 1.2942 (Simulation time: 0 hr 38 min 59 sec) 
Heartbeat CPU 0 instructions: 65000001 cycles: 32865298 heartbeat IPC: 1.27906 cumulative IPC: 1.29318 (Simulation time: 0 hr 39 min 31 sec) 
Heartbeat CPU 0 instructions: 66000000 cycles: 33648615 heartbeat IPC: 1.27662 cumulative IPC: 1.29213 (Simulation time: 0 hr 40 min 2 sec) 
Heartbeat CPU 0 instructions: 67000001 cycles: 34430212 heartbeat IPC: 1.27943 cumulative IPC: 1.29138 (Simulation time: 0 hr 40 min 34 sec) 
Heartbeat CPU 0 instructions: 68000000 cycles: 35212839 heartbeat IPC: 1.27775 cumulative IPC: 1.29061 (Simulation time: 0 hr 41 min 8 sec) 
Heartbeat CPU 0 instructions: 69000002 cycles: 35995187 heartbeat IPC: 1.27821 cumulative IPC: 1.28995 (Simulation time: 0 hr 41 min 44 sec) 
Heartbeat CPU 0 instructions: 70000000 cycles: 36771552 heartbeat IPC: 1.28805 cumulative IPC: 1.28986 (Simulation time: 0 hr 42 min 19 sec) 
Heartbeat CPU 0 instructions: 71000001 cycles: 37550837 heartbeat IPC: 1.28323 cumulative IPC: 1.28954 (Simulation time: 0 hr 42 min 53 sec) 
Heartbeat CPU 0 instructions: 72000000 cycles: 38329620 heartbeat IPC: 1.28405 cumulative IPC: 1.28929 (Simulation time: 0 hr 43 min 27 sec) 
Heartbeat CPU 0 instructions: 73000003 cycles: 39099658 heartbeat IPC: 1.29864 cumulative IPC: 1.28969 (Simulation time: 0 hr 44 min 0 sec) 
Heartbeat CPU 0 instructions: 74000002 cycles: 39881018 heartbeat IPC: 1.27982 cumulative IPC: 1.28928 (Simulation time: 0 hr 44 min 33 sec) 
Heartbeat CPU 0 instructions: 75000003 cycles: 40658974 heartbeat IPC: 1.28542 cumulative IPC: 1.28913 (Simulation time: 0 hr 45 min 7 sec) 
Heartbeat CPU 0 instructions: 76000000 cycles: 41439404 heartbeat IPC: 1.28134 cumulative IPC: 1.28882 (Simulation time: 0 hr 45 min 39 sec) 
Heartbeat CPU 0 instructions: 77000000 cycles: 42215229 heartbeat IPC: 1.28895 cumulative IPC: 1.28883 (Simulation time: 0 hr 46 min 12 sec) 
Heartbeat CPU 0 instructions: 78000003 cycles: 42995050 heartbeat IPC: 1.28235 cumulative IPC: 1.2886 (Simulation time: 0 hr 46 min 45 sec) 
Heartbeat CPU 0 instructions: 79000000 cycles: 43770747 heartbeat IPC: 1.28916 cumulative IPC: 1.28862 (Simulation time: 0 hr 47 min 19 sec) 
Heartbeat CPU 0 instructions: 80000000 cycles: 44555524 heartbeat IPC: 1.27425 cumulative IPC: 1.28813 (Simulation time: 0 hr 47 min 53 sec) 
Heartbeat CPU 0 instructions: 81000002 cycles: 45333939 heartbeat IPC: 1.28466 cumulative IPC: 1.28802 (Simulation time: 0 hr 48 min 28 sec) 
Heartbeat CPU 0 instructions: 82000002 cycles: 46110916 heartbeat IPC: 1.28704 cumulative IPC: 1.28799 (Simulation time: 0 hr 49 min 20 sec) 
Heartbeat CPU 0 instructions: 83000001 cycles: 46880645 heartbeat IPC: 1.29916 cumulative IPC: 1.28832 (Simulation time: 0 hr 50 min 12 sec) 
Heartbeat CPU 0 instructions: 84000000 cycles: 47660773 heartbeat IPC: 1.28184 cumulative IPC: 1.28813 (Simulation time: 0 hr 51 min 5 sec) 
Heartbeat CPU 0 instructions: 85000002 cycles: 48440257 heartbeat IPC: 1.2829 cumulative IPC: 1.28798 (Simulation time: 0 hr 51 min 50 sec) 
Heartbeat CPU 0 instructions: 86000002 cycles: 49217037 heartbeat IPC: 1.28737 cumulative IPC: 1.28797 (Simulation time: 0 hr 52 min 42 sec) 
Heartbeat CPU 0 instructions: 87000000 cycles: 50000435 heartbeat IPC: 1.27649 cumulative IPC: 1.28765 (Simulation time: 0 hr 53 min 39 sec) 
Heartbeat CPU 0 instructions: 88000000 cycles: 50785432 heartbeat IPC: 1.27389 cumulative IPC: 1.28729 (Simulation time: 0 hr 54 min 21 sec) 
Heartbeat CPU 0 instructions: 89000002 cycles: 51559370 heartbeat IPC: 1.2921 cumulative IPC: 1.28741 (Simulation time: 0 hr 55 min 5 sec) 
Heartbeat CPU 0 instructions: 90000002 cycles: 52334147 heartbeat IPC: 1.29069 cumulative IPC: 1.28749 (Simulation time: 0 hr 55 min 46 sec) 
Heartbeat CPU 0 instructions: 91000001 cycles: 53112286 heartbeat IPC: 1.28512 cumulative IPC: 1.28743 (Simulation time: 0 hr 56 min 26 sec) 
Heartbeat CPU 0 instructions: 92000000 cycles: 53902760 heartbeat IPC: 1.26506 cumulative IPC: 1.28689 (Simulation time: 0 hr 57 min 5 sec) 
Heartbeat CPU 0 instructions: 93000000 cycles: 54678321 heartbeat IPC: 1.28939 cumulative IPC: 1.28695 (Simulation time: 0 hr 57 min 42 sec) 
Heartbeat CPU 0 instructions: 94000002 cycles: 55456135 heartbeat IPC: 1.28566 cumulative IPC: 1.28692 (Simulation time: 0 hr 58 min 21 sec) 
Heartbeat CPU 0 instructions: 95000001 cycles: 56240560 heartbeat IPC: 1.27482 cumulative IPC: 1.28665 (Simulation time: 0 hr 59 min 0 sec) 
Heartbeat CPU 0 instructions: 96000000 cycles: 57015758 heartbeat IPC: 1.28999 cumulative IPC: 1.28672 (Simulation time: 0 hr 59 min 38 sec) 
Heartbeat CPU 0 instructions: 97000003 cycles: 57790042 heartbeat IPC: 1.29152 cumulative IPC: 1.28682 (Simulation time: 1 hr 0 min 19 sec) 
Heartbeat CPU 0 instructions: 98000002 cycles: 58568998 heartbeat IPC: 1.28377 cumulative IPC: 1.28676 (Simulation time: 1 hr 1 min 1 sec) 
Heartbeat CPU 0 instructions: 99000000 cycles: 59357654 heartbeat IPC: 1.26798 cumulative IPC: 1.28637 (Simulation time: 1 hr 1 min 40 sec) 
Heartbeat CPU 0 instructions: 100000000 cycles: 60132789 heartbeat IPC: 1.2901 cumulative IPC: 1.28644 (Simulation time: 1 hr 2 min 20 sec) 
Heartbeat CPU 0 instructions: 101000002 cycles: 60905094 heartbeat IPC: 1.29483 cumulative IPC: 1.28661 (Simulation time: 1 hr 3 min 0 sec) 
Heartbeat CPU 0 instructions: 102000002 cycles: 61698550 heartbeat IPC: 1.26031 cumulative IPC: 1.28609 (Simulation time: 1 hr 3 min 38 sec) 
Heartbeat CPU 0 instructions: 103000001 cycles: 62471788 heartbeat IPC: 1.29326 cumulative IPC: 1.28623 (Simulation time: 1 hr 4 min 19 sec) 
Heartbeat CPU 0 instructions: 104000000 cycles: 63260427 heartbeat IPC: 1.26801 cumulative IPC: 1.28588 (Simulation time: 1 hr 4 min 58 sec) 
Heartbeat CPU 0 instructions: 105000001 cycles: 64043956 heartbeat IPC: 1.27628 cumulative IPC: 1.28571 (Simulation time: 1 hr 5 min 35 sec) 
Heartbeat CPU 0 instructions: 106000000 cycles: 64822036 heartbeat IPC: 1.28521 cumulative IPC: 1.2857 (Simulation time: 1 hr 6 min 13 sec) 
Heartbeat CPU 0 instructions: 107000000 cycles: 65604229 heartbeat IPC: 1.27846 cumulative IPC: 1.28557 (Simulation time: 1 hr 6 min 51 sec) 
Heartbeat CPU 0 instructions: 108000000 cycles: 66385321 heartbeat IPC: 1.28026 cumulative IPC: 1.28548 (Simulation time: 1 hr 7 min 35 sec) 
Heartbeat CPU 0 instructions: 109000000 cycles: 67169749 heartbeat IPC: 1.27481 cumulative IPC: 1.2853 (Simulation time: 1 hr 8 min 15 sec) 
Heartbeat CPU 0 instructions: 110000002 cycles: 67957042 heartbeat IPC: 1.27018 cumulative IPC: 1.28504 (Simulation time: 1 hr 8 min 54 sec) 
Heartbeat CPU 0 instructions: 111000000 cycles: 68736835 heartbeat IPC: 1.28239 cumulative IPC: 1.285 (Simulation time: 1 hr 9 min 33 sec) 
Heartbeat CPU 0 instructions: 112000000 cycles: 69526357 heartbeat IPC: 1.26659 cumulative IPC: 1.2847 (Simulation time: 1 hr 10 min 12 sec) 
Heartbeat CPU 0 instructions: 113000003 cycles: 70308914 heartbeat IPC: 1.27787 cumulative IPC: 1.28459 (Simulation time: 1 hr 10 min 51 sec) 
Heartbeat CPU 0 instructions: 114000000 cycles: 71090374 heartbeat IPC: 1.27965 cumulative IPC: 1.28451 (Simulation time: 1 hr 11 min 28 sec) 
Heartbeat CPU 0 instructions: 115000000 cycles: 71869276 heartbeat IPC: 1.28386 cumulative IPC: 1.2845 (Simulation time: 1 hr 12 min 3 sec) 
Heartbeat CPU 0 instructions: 116000000 cycles: 72650544 heartbeat IPC: 1.27997 cumulative IPC: 1.28443 (Simulation time: 1 hr 12 min 40 sec) 
Heartbeat CPU 0 instructions: 117000000 cycles: 73435325 heartbeat IPC: 1.27424 cumulative IPC: 1.28428 (Simulation time: 1 hr 13 min 15 sec) 
Heartbeat CPU 0 instructions: 118000000 cycles: 74215656 heartbeat IPC: 1.28151 cumulative IPC: 1.28424 (Simulation time: 1 hr 13 min 53 sec) 
Heartbeat CPU 0 instructions: 119000000 cycles: 74991717 heartbeat IPC: 1.28856 cumulative IPC: 1.2843 (Simulation time: 1 hr 14 min 30 sec) 
Heartbeat CPU 0 instructions: 120000000 cycles: 75779825 heartbeat IPC: 1.26886 cumulative IPC: 1.28408 (Simulation time: 1 hr 15 min 8 sec) 
Heartbeat CPU 0 instructions: 121000000 cycles: 76561717 heartbeat IPC: 1.27895 cumulative IPC: 1.284 (Simulation time: 1 hr 15 min 44 sec) 
Heartbeat CPU 0 instructions: 122000003 cycles: 77339216 heartbeat IPC: 1.28618 cumulative IPC: 1.28403 (Simulation time: 1 hr 16 min 22 sec) 
Heartbeat CPU 0 instructions: 123000001 cycles: 78120225 heartbeat IPC: 1.28039 cumulative IPC: 1.28398 (Simulation time: 1 hr 16 min 58 sec) 
Heartbeat CPU 0 instructions: 124000000 cycles: 78902242 heartbeat IPC: 1.27874 cumulative IPC: 1.28391 (Simulation time: 1 hr 17 min 33 sec) 
Heartbeat CPU 0 instructions: 125000001 cycles: 79683514 heartbeat IPC: 1.27997 cumulative IPC: 1.28386 (Simulation time: 1 hr 18 min 11 sec) 
Heartbeat CPU 0 instructions: 126000003 cycles: 80465172 heartbeat IPC: 1.27933 cumulative IPC: 1.2838 (Simulation time: 1 hr 18 min 47 sec) 
Heartbeat CPU 0 instructions: 127000003 cycles: 81250528 heartbeat IPC: 1.27331 cumulative IPC: 1.28366 (Simulation time: 1 hr 19 min 24 sec) 
Heartbeat CPU 0 instructions: 128000000 cycles: 82020452 heartbeat IPC: 1.29883 cumulative IPC: 1.28386 (Simulation time: 1 hr 20 min 3 sec) 
Heartbeat CPU 0 instructions: 129000002 cycles: 82794378 heartbeat IPC: 1.29212 cumulative IPC: 1.28396 (Simulation time: 1 hr 20 min 40 sec) 
Heartbeat CPU 0 instructions: 130000003 cycles: 83577811 heartbeat IPC: 1.27643 cumulative IPC: 1.28387 (Simulation time: 1 hr 21 min 15 sec) 
Heartbeat CPU 0 instructions: 131000003 cycles: 84363348 heartbeat IPC: 1.27301 cumulative IPC: 1.28373 (Simulation time: 1 hr 21 min 52 sec) 
Heartbeat CPU 0 instructions: 132000000 cycles: 85146042 heartbeat IPC: 1.27763 cumulative IPC: 1.28366 (Simulation time: 1 hr 22 min 26 sec) 
Heartbeat CPU 0 instructions: 133000001 cycles: 85924118 heartbeat IPC: 1.28522 cumulative IPC: 1.28367 (Simulation time: 1 hr 22 min 59 sec) 
Heartbeat CPU 0 instructions: 134000003 cycles: 86709987 heartbeat IPC: 1.27248 cumulative IPC: 1.28354 (Simulation time: 1 hr 23 min 36 sec) 
Heartbeat CPU 0 instructions: 135000000 cycles: 87487005 heartbeat IPC: 1.28697 cumulative IPC: 1.28358 (Simulation time: 1 hr 24 min 11 sec) 
Heartbeat CPU 0 instructions: 136000000 cycles: 88277980 heartbeat IPC: 1.26426 cumulative IPC: 1.28335 (Simulation time: 1 hr 24 min 44 sec) 
Heartbeat CPU 0 instructions: 137000003 cycles: 89053489 heartbeat IPC: 1.28948 cumulative IPC: 1.28342 (Simulation time: 1 hr 25 min 18 sec) 
Heartbeat CPU 0 instructions: 138000000 cycles: 89820521 heartbeat IPC: 1.30372 cumulative IPC: 1.28365 (Simulation time: 1 hr 25 min 51 sec) 
Heartbeat CPU 0 instructions: 139000000 cycles: 90607634 heartbeat IPC: 1.27047 cumulative IPC: 1.2835 (Simulation time: 1 hr 26 min 22 sec) 
Heartbeat CPU 0 instructions: 140000000 cycles: 91397816 heartbeat IPC: 1.26553 cumulative IPC: 1.2833 (Simulation time: 1 hr 26 min 54 sec) 
Heartbeat CPU 0 instructions: 141000000 cycles: 92173375 heartbeat IPC: 1.28939 cumulative IPC: 1.28336 (Simulation time: 1 hr 27 min 26 sec) 
Heartbeat CPU 0 instructions: 142000003 cycles: 92953107 heartbeat IPC: 1.2825 cumulative IPC: 1.28335 (Simulation time: 1 hr 27 min 56 sec) 
Heartbeat CPU 0 instructions: 143000001 cycles: 93739574 heartbeat IPC: 1.27151 cumulative IPC: 1.28323 (Simulation time: 1 hr 28 min 25 sec) 
Heartbeat CPU 0 instructions: 144000000 cycles: 94520206 heartbeat IPC: 1.28101 cumulative IPC: 1.2832 (Simulation time: 1 hr 28 min 53 sec) 
Heartbeat CPU 0 instructions: 145000001 cycles: 95302638 heartbeat IPC: 1.27807 cumulative IPC: 1.28315 (Simulation time: 1 hr 29 min 20 sec) 
Heartbeat CPU 0 instructions: 146000000 cycles: 96089299 heartbeat IPC: 1.27119 cumulative IPC: 1.28302 (Simulation time: 1 hr 29 min 46 sec) 
Heartbeat CPU 0 instructions: 147000000 cycles: 96872391 heartbeat IPC: 1.27699 cumulative IPC: 1.28296 (Simulation time: 1 hr 30 min 12 sec) 
Heartbeat CPU 0 instructions: 148000000 cycles: 97651454 heartbeat IPC: 1.28359 cumulative IPC: 1.28297 (Simulation time: 1 hr 30 min 37 sec) 
Heartbeat CPU 0 instructions: 149000001 cycles: 98425418 heartbeat IPC: 1.29205 cumulative IPC: 1.28306 (Simulation time: 1 hr 31 min 3 sec) 
Heartbeat CPU 0 instructions: 150000000 cycles: 99208626 heartbeat IPC: 1.2768 cumulative IPC: 1.28299 (Simulation time: 1 hr 31 min 28 sec) 
Finished CPU 0 instructions: 100000003 cycles: 77942651 cummulative IPC: 1.28299 (Simulation time: 1 hr 31 min 28 sec) 

ChampSim completed all CPUs

Region of Interest Statistics

CPU 0 cummulative IPC: 1.28299 instructions: 100000003 cycles: 77942651
LLC TOTAL     ACCESS:     381302  HIT:      61784  MISS:     319518
LLC LOAD      ACCESS:      29209  HIT:         70  MISS:      29139
LLC RFO       ACCESS:          0  HIT:          0  MISS:          0
LLC PREFETCH  ACCESS:     288335  HIT:        890  MISS:     287445
LLC WRITEBACK ACCESS:      63758  HIT:      60824  MISS:       2934
OPTgen accesses: 473
OPTgen hits: 53
OPTgen hit rate: 11.2051


