
*** ChampSim Multicore Out-of-Order Simulator ***

Warmup Instructions: 50000000
Simulation Instructions: 100000000
Configuration: 2
Number of CPUs: 1
LLC sets: 2048
LLC ways: 16
Off-chip DRAM Channels: 1 Width: 64-bit Data Rate: 1600 MT/s

CPU 0 runs /datasets/cs240c-wi22-a00-public/data/Assignment2-gz/bzip2_183B.trace.gz
CPU 0 L1D next line prefetcher
CPU 0 L2C IP-based stride prefetcher
Initialize Hawkeye state
Heartbeat CPU 0 instructions: 1000000 cycles: 447972 heartbeat IPC: 2.23228 cumulative IPC: 2.23228 (Simulation time: 0 hr 0 min 41 sec) 
Heartbeat CPU 0 instructions: 2000001 cycles: 951246 heartbeat IPC: 1.98699 cumulative IPC: 2.10251 (Simulation time: 0 hr 1 min 18 sec) 
Heartbeat CPU 0 instructions: 3000001 cycles: 1457934 heartbeat IPC: 1.9736 cumulative IPC: 2.05771 (Simulation time: 0 hr 2 min 3 sec) 
Heartbeat CPU 0 instructions: 4000000 cycles: 1928638 heartbeat IPC: 2.12448 cumulative IPC: 2.074 (Simulation time: 0 hr 2 min 40 sec) 
Heartbeat CPU 0 instructions: 5000000 cycles: 2425967 heartbeat IPC: 2.01074 cumulative IPC: 2.06103 (Simulation time: 0 hr 3 min 14 sec) 
Heartbeat CPU 0 instructions: 6000001 cycles: 2887581 heartbeat IPC: 2.16631 cumulative IPC: 2.07786 (Simulation time: 0 hr 3 min 49 sec) 
Heartbeat CPU 0 instructions: 7000002 cycles: 3343461 heartbeat IPC: 2.19356 cumulative IPC: 2.09364 (Simulation time: 0 hr 4 min 28 sec) 
Heartbeat CPU 0 instructions: 8000000 cycles: 3813054 heartbeat IPC: 2.1295 cumulative IPC: 2.09806 (Simulation time: 0 hr 5 min 4 sec) 
Heartbeat CPU 0 instructions: 9000003 cycles: 4278337 heartbeat IPC: 2.14924 cumulative IPC: 2.10362 (Simulation time: 0 hr 5 min 38 sec) 
Heartbeat CPU 0 instructions: 10000000 cycles: 4746846 heartbeat IPC: 2.13442 cumulative IPC: 2.10666 (Simulation time: 0 hr 6 min 15 sec) 
Heartbeat CPU 0 instructions: 11000000 cycles: 5209578 heartbeat IPC: 2.16108 cumulative IPC: 2.1115 (Simulation time: 0 hr 6 min 49 sec) 
Heartbeat CPU 0 instructions: 12000000 cycles: 5685193 heartbeat IPC: 2.10254 cumulative IPC: 2.11075 (Simulation time: 0 hr 7 min 24 sec) 
Heartbeat CPU 0 instructions: 13000003 cycles: 6152344 heartbeat IPC: 2.14064 cumulative IPC: 2.11302 (Simulation time: 0 hr 8 min 1 sec) 
Heartbeat CPU 0 instructions: 14000003 cycles: 6651710 heartbeat IPC: 2.00254 cumulative IPC: 2.10472 (Simulation time: 0 hr 8 min 38 sec) 
Heartbeat CPU 0 instructions: 15000002 cycles: 7120868 heartbeat IPC: 2.13148 cumulative IPC: 2.10649 (Simulation time: 0 hr 9 min 18 sec) 
Heartbeat CPU 0 instructions: 16000000 cycles: 7634944 heartbeat IPC: 1.94523 cumulative IPC: 2.09563 (Simulation time: 0 hr 9 min 56 sec) 
Heartbeat CPU 0 instructions: 17000000 cycles: 8128960 heartbeat IPC: 2.02423 cumulative IPC: 2.09129 (Simulation time: 0 hr 10 min 36 sec) 
Heartbeat CPU 0 instructions: 18000001 cycles: 8693171 heartbeat IPC: 1.77239 cumulative IPC: 2.07059 (Simulation time: 0 hr 11 min 12 sec) 
Heartbeat CPU 0 instructions: 19000000 cycles: 9204758 heartbeat IPC: 1.9547 cumulative IPC: 2.06415 (Simulation time: 0 hr 11 min 47 sec) 
Heartbeat CPU 0 instructions: 20000000 cycles: 9694757 heartbeat IPC: 2.04082 cumulative IPC: 2.06297 (Simulation time: 0 hr 12 min 21 sec) 
Heartbeat CPU 0 instructions: 21000003 cycles: 10143583 heartbeat IPC: 2.22804 cumulative IPC: 2.07027 (Simulation time: 0 hr 12 min 54 sec) 
Heartbeat CPU 0 instructions: 22000003 cycles: 10608539 heartbeat IPC: 2.15074 cumulative IPC: 2.0738 (Simulation time: 0 hr 13 min 28 sec) 
Heartbeat CPU 0 instructions: 23000002 cycles: 11089811 heartbeat IPC: 2.07783 cumulative IPC: 2.07398 (Simulation time: 0 hr 13 min 58 sec) 
Heartbeat CPU 0 instructions: 24000000 cycles: 11586197 heartbeat IPC: 2.01456 cumulative IPC: 2.07143 (Simulation time: 0 hr 14 min 30 sec) 
Heartbeat CPU 0 instructions: 25000001 cycles: 12038823 heartbeat IPC: 2.20933 cumulative IPC: 2.07662 (Simulation time: 0 hr 15 min 2 sec) 
Heartbeat CPU 0 instructions: 26000003 cycles: 12531283 heartbeat IPC: 2.03063 cumulative IPC: 2.07481 (Simulation time: 0 hr 15 min 33 sec) 
Heartbeat CPU 0 instructions: 27000000 cycles: 13048409 heartbeat IPC: 1.93376 cumulative IPC: 2.06922 (Simulation time: 0 hr 16 min 7 sec) 
Heartbeat CPU 0 instructions: 28000000 cycles: 13507949 heartbeat IPC: 2.17609 cumulative IPC: 2.07285 (Simulation time: 0 hr 16 min 41 sec) 
Heartbeat CPU 0 instructions: 29000000 cycles: 13996780 heartbeat IPC: 2.0457 cumulative IPC: 2.07191 (Simulation time: 0 hr 17 min 22 sec) 
Heartbeat CPU 0 instructions: 30000000 cycles: 14450109 heartbeat IPC: 2.2059 cumulative IPC: 2.07611 (Simulation time: 0 hr 17 min 55 sec) 
Heartbeat CPU 0 instructions: 31000002 cycles: 14909158 heartbeat IPC: 2.17842 cumulative IPC: 2.07926 (Simulation time: 0 hr 18 min 24 sec) 
Heartbeat CPU 0 instructions: 32000000 cycles: 15367879 heartbeat IPC: 2.17997 cumulative IPC: 2.08227 (Simulation time: 0 hr 18 min 59 sec) 
Heartbeat CPU 0 instructions: 33000001 cycles: 15838718 heartbeat IPC: 2.12387 cumulative IPC: 2.0835 (Simulation time: 0 hr 19 min 35 sec) 
Heartbeat CPU 0 instructions: 34000001 cycles: 16348622 heartbeat IPC: 1.96115 cumulative IPC: 2.07969 (Simulation time: 0 hr 20 min 8 sec) 
Heartbeat CPU 0 instructions: 35000002 cycles: 16857486 heartbeat IPC: 1.96516 cumulative IPC: 2.07623 (Simulation time: 0 hr 20 min 46 sec) 
Heartbeat CPU 0 instructions: 36000000 cycles: 17330127 heartbeat IPC: 2.11577 cumulative IPC: 2.07731 (Simulation time: 0 hr 21 min 18 sec) 
Heartbeat CPU 0 instructions: 37000002 cycles: 17806439 heartbeat IPC: 2.09947 cumulative IPC: 2.0779 (Simulation time: 0 hr 21 min 54 sec) 
Heartbeat CPU 0 instructions: 38000001 cycles: 18249452 heartbeat IPC: 2.25727 cumulative IPC: 2.08225 (Simulation time: 0 hr 22 min 26 sec) 
Heartbeat CPU 0 instructions: 39000001 cycles: 18714234 heartbeat IPC: 2.15155 cumulative IPC: 2.08398 (Simulation time: 0 hr 23 min 0 sec) 
Heartbeat CPU 0 instructions: 40000000 cycles: 19224189 heartbeat IPC: 1.96096 cumulative IPC: 2.08071 (Simulation time: 0 hr 23 min 44 sec) 
Heartbeat CPU 0 instructions: 41000000 cycles: 19683484 heartbeat IPC: 2.17725 cumulative IPC: 2.08296 (Simulation time: 0 hr 24 min 16 sec) 
Heartbeat CPU 0 instructions: 42000000 cycles: 20163588 heartbeat IPC: 2.08288 cumulative IPC: 2.08296 (Simulation time: 0 hr 24 min 47 sec) 
Heartbeat CPU 0 instructions: 43000001 cycles: 20623082 heartbeat IPC: 2.17631 cumulative IPC: 2.08504 (Simulation time: 0 hr 25 min 19 sec) 
Heartbeat CPU 0 instructions: 44000000 cycles: 21114123 heartbeat IPC: 2.03649 cumulative IPC: 2.08391 (Simulation time: 0 hr 25 min 58 sec) 
Heartbeat CPU 0 instructions: 45000000 cycles: 21572944 heartbeat IPC: 2.1795 cumulative IPC: 2.08595 (Simulation time: 0 hr 26 min 40 sec) 
Heartbeat CPU 0 instructions: 46000000 cycles: 22064786 heartbeat IPC: 2.03317 cumulative IPC: 2.08477 (Simulation time: 0 hr 27 min 19 sec) 
Heartbeat CPU 0 instructions: 47000002 cycles: 22566756 heartbeat IPC: 1.99215 cumulative IPC: 2.08271 (Simulation time: 0 hr 27 min 58 sec) 
Heartbeat CPU 0 instructions: 48000000 cycles: 22999345 heartbeat IPC: 2.31166 cumulative IPC: 2.08702 (Simulation time: 0 hr 28 min 33 sec) 
Heartbeat CPU 0 instructions: 49000003 cycles: 23457665 heartbeat IPC: 2.18189 cumulative IPC: 2.08887 (Simulation time: 0 hr 29 min 20 sec) 
Heartbeat CPU 0 instructions: 50000001 cycles: 23889229 heartbeat IPC: 2.31715 cumulative IPC: 2.09299 (Simulation time: 0 hr 30 min 3 sec) 

Warmup complete CPU 0 instructions: 50000001 cycles: 23889229 (Simulation time: 0 hr 30 min 3 sec) 

Heartbeat CPU 0 instructions: 51000000 cycles: 24918546 heartbeat IPC: 0.971517 cumulative IPC: 0.971517 (Simulation time: 0 hr 30 min 38 sec) 
Heartbeat CPU 0 instructions: 52000000 cycles: 25937464 heartbeat IPC: 0.981433 cumulative IPC: 0.97645 (Simulation time: 0 hr 31 min 16 sec) 
Heartbeat CPU 0 instructions: 53000001 cycles: 26905724 heartbeat IPC: 1.03278 cumulative IPC: 0.994532 (Simulation time: 0 hr 31 min 53 sec) 
Heartbeat CPU 0 instructions: 54000001 cycles: 27912463 heartbeat IPC: 0.993306 cumulative IPC: 0.994225 (Simulation time: 0 hr 32 min 26 sec) 
Heartbeat CPU 0 instructions: 55000001 cycles: 29129920 heartbeat IPC: 0.821384 cumulative IPC: 0.954073 (Simulation time: 0 hr 33 min 5 sec) 
Heartbeat CPU 0 instructions: 56000000 cycles: 30313991 heartbeat IPC: 0.844543 cumulative IPC: 0.933887 (Simulation time: 0 hr 33 min 43 sec) 
Heartbeat CPU 0 instructions: 57000003 cycles: 31685520 heartbeat IPC: 0.729115 cumulative IPC: 0.897863 (Simulation time: 0 hr 34 min 21 sec) 
Heartbeat CPU 0 instructions: 58000001 cycles: 33264162 heartbeat IPC: 0.633455 cumulative IPC: 0.853339 (Simulation time: 0 hr 34 min 55 sec) 
Heartbeat CPU 0 instructions: 59000003 cycles: 34570306 heartbeat IPC: 0.765614 cumulative IPC: 0.842612 (Simulation time: 0 hr 35 min 30 sec) 
Heartbeat CPU 0 instructions: 60000000 cycles: 36144563 heartbeat IPC: 0.635218 cumulative IPC: 0.815971 (Simulation time: 0 hr 36 min 7 sec) 
Heartbeat CPU 0 instructions: 61000003 cycles: 37858298 heartbeat IPC: 0.583523 cumulative IPC: 0.787454 (Simulation time: 0 hr 36 min 42 sec) 
Heartbeat CPU 0 instructions: 62000002 cycles: 39404300 heartbeat IPC: 0.646829 cumulative IPC: 0.773442 (Simulation time: 0 hr 37 min 16 sec) 
Heartbeat CPU 0 instructions: 63000003 cycles: 40782629 heartbeat IPC: 0.725517 cumulative IPC: 0.769531 (Simulation time: 0 hr 37 min 56 sec) 
Heartbeat CPU 0 instructions: 64000000 cycles: 42348854 heartbeat IPC: 0.638476 cumulative IPC: 0.758412 (Simulation time: 0 hr 38 min 35 sec) 
Heartbeat CPU 0 instructions: 65000003 cycles: 43609163 heartbeat IPC: 0.793459 cumulative IPC: 0.760652 (Simulation time: 0 hr 39 min 15 sec) 
Heartbeat CPU 0 instructions: 66000000 cycles: 44924967 heartbeat IPC: 0.759989 cumulative IPC: 0.76061 (Simulation time: 0 hr 39 min 51 sec) 
Heartbeat CPU 0 instructions: 67000000 cycles: 45860709 heartbeat IPC: 1.06867 cumulative IPC: 0.77373 (Simulation time: 0 hr 40 min 25 sec) 
Heartbeat CPU 0 instructions: 68000000 cycles: 47261690 heartbeat IPC: 0.713786 cumulative IPC: 0.770137 (Simulation time: 0 hr 41 min 0 sec) 
Heartbeat CPU 0 instructions: 69000000 cycles: 48835697 heartbeat IPC: 0.635321 cumulative IPC: 0.761631 (Simulation time: 0 hr 41 min 35 sec) 
Heartbeat CPU 0 instructions: 70000002 cycles: 50288213 heartbeat IPC: 0.688462 cumulative IPC: 0.757605 (Simulation time: 0 hr 42 min 17 sec) 
Heartbeat CPU 0 instructions: 71000000 cycles: 51847452 heartbeat IPC: 0.641337 cumulative IPC: 0.751121 (Simulation time: 0 hr 42 min 55 sec) 
Heartbeat CPU 0 instructions: 72000000 cycles: 53218793 heartbeat IPC: 0.729213 cumulative IPC: 0.750096 (Simulation time: 0 hr 43 min 32 sec) 
Heartbeat CPU 0 instructions: 73000001 cycles: 54503571 heartbeat IPC: 0.778345 cumulative IPC: 0.751282 (Simulation time: 0 hr 44 min 14 sec) 
Heartbeat CPU 0 instructions: 74000000 cycles: 55647409 heartbeat IPC: 0.874249 cumulative IPC: 0.755711 (Simulation time: 0 hr 45 min 7 sec) 
Heartbeat CPU 0 instructions: 75000001 cycles: 57060531 heartbeat IPC: 0.707654 cumulative IPC: 0.753664 (Simulation time: 0 hr 45 min 54 sec) 
Heartbeat CPU 0 instructions: 76000000 cycles: 58196621 heartbeat IPC: 0.880211 cumulative IPC: 0.757854 (Simulation time: 0 hr 46 min 36 sec) 
Heartbeat CPU 0 instructions: 77000003 cycles: 59373752 heartbeat IPC: 0.849526 cumulative IPC: 0.760895 (Simulation time: 0 hr 47 min 17 sec) 
Heartbeat CPU 0 instructions: 78000000 cycles: 60705192 heartbeat IPC: 0.751064 cumulative IPC: 0.76054 (Simulation time: 0 hr 48 min 1 sec) 
Heartbeat CPU 0 instructions: 79000000 cycles: 62050692 heartbeat IPC: 0.743218 cumulative IPC: 0.759929 (Simulation time: 0 hr 48 min 59 sec) 
Heartbeat CPU 0 instructions: 80000000 cycles: 63437534 heartbeat IPC: 0.721063 cumulative IPC: 0.758566 (Simulation time: 0 hr 49 min 47 sec) 
Heartbeat CPU 0 instructions: 81000000 cycles: 65126968 heartbeat IPC: 0.591914 cumulative IPC: 0.751739 (Simulation time: 0 hr 50 min 33 sec) 
Heartbeat CPU 0 instructions: 82000002 cycles: 66673024 heartbeat IPC: 0.646808 cumulative IPC: 0.747947 (Simulation time: 0 hr 51 min 23 sec) 
Heartbeat CPU 0 instructions: 83000000 cycles: 67831064 heartbeat IPC: 0.863526 cumulative IPC: 0.750993 (Simulation time: 0 hr 52 min 15 sec) 
Heartbeat CPU 0 instructions: 84000000 cycles: 68791954 heartbeat IPC: 1.0407 cumulative IPC: 0.757192 (Simulation time: 0 hr 52 min 58 sec) 
Heartbeat CPU 0 instructions: 85000002 cycles: 69840114 heartbeat IPC: 0.954055 cumulative IPC: 0.761683 (Simulation time: 0 hr 53 min 34 sec) 
Heartbeat CPU 0 instructions: 86000002 cycles: 70815800 heartbeat IPC: 1.02492 cumulative IPC: 0.767156 (Simulation time: 0 hr 54 min 11 sec) 
Heartbeat CPU 0 instructions: 87000001 cycles: 71827200 heartbeat IPC: 0.988728 cumulative IPC: 0.771831 (Simulation time: 0 hr 54 min 54 sec) 
Heartbeat CPU 0 instructions: 88000000 cycles: 73125132 heartbeat IPC: 0.770456 cumulative IPC: 0.771794 (Simulation time: 0 hr 55 min 32 sec) 
Heartbeat CPU 0 instructions: 89000000 cycles: 74675102 heartbeat IPC: 0.645174 cumulative IPC: 0.76793 (Simulation time: 0 hr 56 min 16 sec) 
Heartbeat CPU 0 instructions: 90000002 cycles: 76167536 heartbeat IPC: 0.670048 cumulative IPC: 0.765136 (Simulation time: 0 hr 56 min 52 sec) 
Heartbeat CPU 0 instructions: 91000000 cycles: 77868625 heartbeat IPC: 0.587858 cumulative IPC: 0.759549 (Simulation time: 0 hr 57 min 25 sec) 
Heartbeat CPU 0 instructions: 92000000 cycles: 79367405 heartbeat IPC: 0.667209 cumulative IPC: 0.757054 (Simulation time: 0 hr 58 min 1 sec) 
Heartbeat CPU 0 instructions: 93000001 cycles: 80644657 heartbeat IPC: 0.782932 cumulative IPC: 0.757637 (Simulation time: 0 hr 58 min 36 sec) 
Heartbeat CPU 0 instructions: 94000000 cycles: 82381679 heartbeat IPC: 0.575697 cumulative IPC: 0.752234 (Simulation time: 0 hr 59 min 13 sec) 
Heartbeat CPU 0 instructions: 95000002 cycles: 83992901 heartbeat IPC: 0.620648 cumulative IPC: 0.748706 (Simulation time: 0 hr 59 min 43 sec) 
Heartbeat CPU 0 instructions: 96000000 cycles: 85600378 heartbeat IPC: 0.622092 cumulative IPC: 0.745408 (Simulation time: 1 hr 0 min 19 sec) 
Heartbeat CPU 0 instructions: 97000000 cycles: 87003467 heartbeat IPC: 0.712713 cumulative IPC: 0.744681 (Simulation time: 1 hr 0 min 55 sec) 
Heartbeat CPU 0 instructions: 98000000 cycles: 88286730 heartbeat IPC: 0.779263 cumulative IPC: 0.745371 (Simulation time: 1 hr 1 min 34 sec) 
Heartbeat CPU 0 instructions: 99000003 cycles: 89412800 heartbeat IPC: 0.888047 cumulative IPC: 0.747823 (Simulation time: 1 hr 2 min 16 sec) 
Heartbeat CPU 0 instructions: 100000000 cycles: 90887361 heartbeat IPC: 0.678166 cumulative IPC: 0.746289 (Simulation time: 1 hr 2 min 54 sec) 
Heartbeat CPU 0 instructions: 101000000 cycles: 92394760 heartbeat IPC: 0.663394 cumulative IPC: 0.744465 (Simulation time: 1 hr 3 min 30 sec) 
Heartbeat CPU 0 instructions: 102000001 cycles: 94092253 heartbeat IPC: 0.589105 cumulative IPC: 0.740709 (Simulation time: 1 hr 4 min 5 sec) 
Heartbeat CPU 0 instructions: 103000002 cycles: 95415186 heartbeat IPC: 0.755897 cumulative IPC: 0.74099 (Simulation time: 1 hr 4 min 46 sec) 
Heartbeat CPU 0 instructions: 104000000 cycles: 97120726 heartbeat IPC: 0.586323 cumulative IPC: 0.737388 (Simulation time: 1 hr 5 min 23 sec) 
Heartbeat CPU 0 instructions: 105000002 cycles: 98101480 heartbeat IPC: 1.01963 cumulative IPC: 0.741118 (Simulation time: 1 hr 5 min 57 sec) 
Heartbeat CPU 0 instructions: 106000000 cycles: 99636186 heartbeat IPC: 0.651589 cumulative IPC: 0.739304 (Simulation time: 1 hr 6 min 34 sec) 
Heartbeat CPU 0 instructions: 107000002 cycles: 101197820 heartbeat IPC: 0.640356 cumulative IPC: 0.737305 (Simulation time: 1 hr 7 min 9 sec) 
Heartbeat CPU 0 instructions: 108000000 cycles: 102532566 heartbeat IPC: 0.749205 cumulative IPC: 0.737507 (Simulation time: 1 hr 7 min 48 sec) 
Heartbeat CPU 0 instructions: 109000002 cycles: 104235819 heartbeat IPC: 0.587113 cumulative IPC: 0.734319 (Simulation time: 1 hr 8 min 24 sec) 
Heartbeat CPU 0 instructions: 110000000 cycles: 105468381 heartbeat IPC: 0.811317 cumulative IPC: 0.735482 (Simulation time: 1 hr 9 min 1 sec) 
Heartbeat CPU 0 instructions: 111000001 cycles: 106929136 heartbeat IPC: 0.684578 cumulative IPC: 0.734587 (Simulation time: 1 hr 9 min 37 sec) 
Heartbeat CPU 0 instructions: 112000000 cycles: 108035749 heartbeat IPC: 0.903657 cumulative IPC: 0.73681 (Simulation time: 1 hr 10 min 14 sec) 
Heartbeat CPU 0 instructions: 113000001 cycles: 109039122 heartbeat IPC: 0.996639 cumulative IPC: 0.739872 (Simulation time: 1 hr 10 min 46 sec) 
Heartbeat CPU 0 instructions: 114000001 cycles: 109935091 heartbeat IPC: 1.11611 cumulative IPC: 0.743789 (Simulation time: 1 hr 11 min 18 sec) 
Heartbeat CPU 0 instructions: 115000002 cycles: 110861764 heartbeat IPC: 1.07913 cumulative IPC: 0.747362 (Simulation time: 1 hr 11 min 50 sec) 
Heartbeat CPU 0 instructions: 116000000 cycles: 111976739 heartbeat IPC: 0.896879 cumulative IPC: 0.749255 (Simulation time: 1 hr 12 min 27 sec) 
Heartbeat CPU 0 instructions: 117000003 cycles: 113577289 heartbeat IPC: 0.624787 cumulative IPC: 0.747034 (Simulation time: 1 hr 12 min 57 sec) 
Heartbeat CPU 0 instructions: 118000003 cycles: 114912795 heartbeat IPC: 0.74878 cumulative IPC: 0.747059 (Simulation time: 1 hr 13 min 28 sec) 
Heartbeat CPU 0 instructions: 119000000 cycles: 115904919 heartbeat IPC: 1.00794 cumulative IPC: 0.749872 (Simulation time: 1 hr 14 min 0 sec) 
Heartbeat CPU 0 instructions: 120000000 cycles: 116968878 heartbeat IPC: 0.939886 cumulative IPC: 0.752044 (Simulation time: 1 hr 14 min 30 sec) 
Heartbeat CPU 0 instructions: 121000001 cycles: 118520300 heartbeat IPC: 0.644571 cumulative IPC: 0.750282 (Simulation time: 1 hr 15 min 2 sec) 
Heartbeat CPU 0 instructions: 122000002 cycles: 119769892 heartbeat IPC: 0.800262 cumulative IPC: 0.750933 (Simulation time: 1 hr 15 min 36 sec) 
Heartbeat CPU 0 instructions: 123000000 cycles: 121406910 heartbeat IPC: 0.610866 cumulative IPC: 0.748582 (Simulation time: 1 hr 16 min 5 sec) 
Heartbeat CPU 0 instructions: 124000000 cycles: 122825469 heartbeat IPC: 0.704941 cumulative IPC: 0.747956 (Simulation time: 1 hr 16 min 36 sec) 
Heartbeat CPU 0 instructions: 125000003 cycles: 124168319 heartbeat IPC: 0.744687 cumulative IPC: 0.747913 (Simulation time: 1 hr 17 min 7 sec) 
Heartbeat CPU 0 instructions: 126000000 cycles: 125187220 heartbeat IPC: 0.981447 cumulative IPC: 0.750262 (Simulation time: 1 hr 17 min 44 sec) 
Heartbeat CPU 0 instructions: 127000001 cycles: 126800904 heartbeat IPC: 0.619701 cumulative IPC: 0.748214 (Simulation time: 1 hr 18 min 14 sec) 
Heartbeat CPU 0 instructions: 128000000 cycles: 128430318 heartbeat IPC: 0.613717 cumulative IPC: 0.746118 (Simulation time: 1 hr 18 min 45 sec) 
Heartbeat CPU 0 instructions: 129000000 cycles: 130108070 heartbeat IPC: 0.596036 cumulative IPC: 0.743748 (Simulation time: 1 hr 19 min 16 sec) 
Heartbeat CPU 0 instructions: 130000002 cycles: 131354826 heartbeat IPC: 0.802083 cumulative IPC: 0.744424 (Simulation time: 1 hr 19 min 57 sec) 
Heartbeat CPU 0 instructions: 131000000 cycles: 132388460 heartbeat IPC: 0.967458 cumulative IPC: 0.746549 (Simulation time: 1 hr 20 min 32 sec) 
Heartbeat CPU 0 instructions: 132000000 cycles: 133590933 heartbeat IPC: 0.83162 cumulative IPC: 0.747482 (Simulation time: 1 hr 21 min 11 sec) 
Heartbeat CPU 0 instructions: 133000001 cycles: 134534675 heartbeat IPC: 1.05961 cumulative IPC: 0.750144 (Simulation time: 1 hr 21 min 45 sec) 
Heartbeat CPU 0 instructions: 134000000 cycles: 135601322 heartbeat IPC: 0.937516 cumulative IPC: 0.751933 (Simulation time: 1 hr 22 min 21 sec) 
Heartbeat CPU 0 instructions: 135000002 cycles: 136513320 heartbeat IPC: 1.0965 cumulative IPC: 0.754723 (Simulation time: 1 hr 22 min 52 sec) 
Heartbeat CPU 0 instructions: 136000000 cycles: 137419513 heartbeat IPC: 1.10352 cumulative IPC: 0.757507 (Simulation time: 1 hr 23 min 24 sec) 
Heartbeat CPU 0 instructions: 137000000 cycles: 138325855 heartbeat IPC: 1.10334 cumulative IPC: 0.760246 (Simulation time: 1 hr 23 min 53 sec) 
Heartbeat CPU 0 instructions: 138000000 cycles: 139143026 heartbeat IPC: 1.22373 cumulative IPC: 0.763532 (Simulation time: 1 hr 24 min 19 sec) 
Heartbeat CPU 0 instructions: 139000002 cycles: 139920434 heartbeat IPC: 1.28633 cumulative IPC: 0.767035 (Simulation time: 1 hr 24 min 45 sec) 
Heartbeat CPU 0 instructions: 140000000 cycles: 140673453 heartbeat IPC: 1.32799 cumulative IPC: 0.770652 (Simulation time: 1 hr 25 min 14 sec) 
Heartbeat CPU 0 instructions: 141000003 cycles: 141467876 heartbeat IPC: 1.25878 cumulative IPC: 0.77395 (Simulation time: 1 hr 25 min 44 sec) 
Heartbeat CPU 0 instructions: 142000003 cycles: 142262252 heartbeat IPC: 1.25885 cumulative IPC: 0.777204 (Simulation time: 1 hr 26 min 16 sec) 
Heartbeat CPU 0 instructions: 143000002 cycles: 143051320 heartbeat IPC: 1.26732 cumulative IPC: 0.78045 (Simulation time: 1 hr 26 min 42 sec) 
Heartbeat CPU 0 instructions: 144000000 cycles: 143818804 heartbeat IPC: 1.30296 cumulative IPC: 0.783793 (Simulation time: 1 hr 27 min 13 sec) 
Heartbeat CPU 0 instructions: 145000002 cycles: 144538311 heartbeat IPC: 1.38984 cumulative IPC: 0.787408 (Simulation time: 1 hr 27 min 43 sec) 
Heartbeat CPU 0 instructions: 146000002 cycles: 145263339 heartbeat IPC: 1.37926 cumulative IPC: 0.790943 (Simulation time: 1 hr 28 min 14 sec) 
Heartbeat CPU 0 instructions: 147000003 cycles: 145988435 heartbeat IPC: 1.37913 cumulative IPC: 0.794436 (Simulation time: 1 hr 28 min 44 sec) 
Heartbeat CPU 0 instructions: 148000000 cycles: 146722782 heartbeat IPC: 1.36175 cumulative IPC: 0.797828 (Simulation time: 1 hr 29 min 14 sec) 
Heartbeat CPU 0 instructions: 149000003 cycles: 147476934 heartbeat IPC: 1.326 cumulative IPC: 0.801051 (Simulation time: 1 hr 29 min 44 sec) 
Heartbeat CPU 0 instructions: 150000000 cycles: 148309123 heartbeat IPC: 1.20165 cumulative IPC: 0.80373 (Simulation time: 1 hr 30 min 17 sec) 
Finished CPU 0 instructions: 100000003 cycles: 124419896 cummulative IPC: 0.80373 (Simulation time: 1 hr 30 min 17 sec) 

ChampSim completed all CPUs

Region of Interest Statistics

CPU 0 cummulative IPC: 0.80373 instructions: 100000003 cycles: 124419896
LLC TOTAL     ACCESS:    1933423  HIT:    1764247  MISS:     169176
LLC LOAD      ACCESS:     554427  HIT:     533907  MISS:      20520
LLC RFO       ACCESS:     322498  HIT:     259089  MISS:      63409
LLC PREFETCH  ACCESS:     708169  HIT:     624710  MISS:      83459
LLC WRITEBACK ACCESS:     348329  HIT:     346541  MISS:       1788
OPTgen accesses: 8851
OPTgen hits: 10368
OPTgen hit rate: 117.139


