
*** ChampSim Multicore Out-of-Order Simulator ***

Warmup Instructions: 50000000
Simulation Instructions: 100000000
Configuration: 2
Number of CPUs: 1
LLC sets: 2048
LLC ways: 16
Off-chip DRAM Channels: 1 Width: 64-bit Data Rate: 1600 MT/s

CPU 0 runs /datasets/cs240c-wi22-a00-public/data/Assignment2-gz/libquantum_964B.trace.gz
CPU 0 L1D next line prefetcher
CPU 0 L2C IP-based stride prefetcher
Initialize Hawkeye state
Heartbeat CPU 0 instructions: 1000002 cycles: 333341 heartbeat IPC: 2.99994 cumulative IPC: 2.99994 (Simulation time: 0 hr 0 min 22 sec) 
Heartbeat CPU 0 instructions: 2000001 cycles: 666674 heartbeat IPC: 3 cumulative IPC: 2.99997 (Simulation time: 0 hr 0 min 45 sec) 
Heartbeat CPU 0 instructions: 3000000 cycles: 1000007 heartbeat IPC: 3 cumulative IPC: 2.99998 (Simulation time: 0 hr 1 min 7 sec) 
Heartbeat CPU 0 instructions: 4000000 cycles: 1333341 heartbeat IPC: 2.99999 cumulative IPC: 2.99998 (Simulation time: 0 hr 1 min 28 sec) 
Heartbeat CPU 0 instructions: 5000000 cycles: 1666674 heartbeat IPC: 3 cumulative IPC: 2.99999 (Simulation time: 0 hr 1 min 46 sec) 
Heartbeat CPU 0 instructions: 6000002 cycles: 2000008 heartbeat IPC: 3 cumulative IPC: 2.99999 (Simulation time: 0 hr 2 min 5 sec) 
Heartbeat CPU 0 instructions: 7000001 cycles: 2331518 heartbeat IPC: 3.0165 cumulative IPC: 3.00234 (Simulation time: 0 hr 2 min 23 sec) 
Heartbeat CPU 0 instructions: 8000000 cycles: 2662240 heartbeat IPC: 3.02368 cumulative IPC: 3.00499 (Simulation time: 0 hr 2 min 42 sec) 
Heartbeat CPU 0 instructions: 9000001 cycles: 2992962 heartbeat IPC: 3.02369 cumulative IPC: 3.00705 (Simulation time: 0 hr 3 min 5 sec) 
Heartbeat CPU 0 instructions: 10000001 cycles: 3323684 heartbeat IPC: 3.02369 cumulative IPC: 3.00871 (Simulation time: 0 hr 3 min 27 sec) 
Heartbeat CPU 0 instructions: 11000000 cycles: 3654406 heartbeat IPC: 3.02368 cumulative IPC: 3.01007 (Simulation time: 0 hr 3 min 49 sec) 
Heartbeat CPU 0 instructions: 12000000 cycles: 3985113 heartbeat IPC: 3.02382 cumulative IPC: 3.01121 (Simulation time: 0 hr 4 min 7 sec) 
Heartbeat CPU 0 instructions: 13000001 cycles: 4315818 heartbeat IPC: 3.02385 cumulative IPC: 3.01218 (Simulation time: 0 hr 4 min 25 sec) 
Heartbeat CPU 0 instructions: 14000000 cycles: 4646523 heartbeat IPC: 3.02384 cumulative IPC: 3.01301 (Simulation time: 0 hr 4 min 45 sec) 
Heartbeat CPU 0 instructions: 15000003 cycles: 4977229 heartbeat IPC: 3.02384 cumulative IPC: 3.01373 (Simulation time: 0 hr 5 min 5 sec) 
Heartbeat CPU 0 instructions: 16000000 cycles: 5307934 heartbeat IPC: 3.02383 cumulative IPC: 3.01436 (Simulation time: 0 hr 5 min 26 sec) 
Heartbeat CPU 0 instructions: 17000000 cycles: 5638642 heartbeat IPC: 3.02382 cumulative IPC: 3.01491 (Simulation time: 0 hr 5 min 47 sec) 
Heartbeat CPU 0 instructions: 18000003 cycles: 5969365 heartbeat IPC: 3.02369 cumulative IPC: 3.0154 (Simulation time: 0 hr 6 min 8 sec) 
Heartbeat CPU 0 instructions: 19000002 cycles: 6300087 heartbeat IPC: 3.02368 cumulative IPC: 3.01583 (Simulation time: 0 hr 6 min 28 sec) 
Heartbeat CPU 0 instructions: 20000000 cycles: 6630808 heartbeat IPC: 3.02369 cumulative IPC: 3.01622 (Simulation time: 0 hr 6 min 45 sec) 
Heartbeat CPU 0 instructions: 21000003 cycles: 6961531 heartbeat IPC: 3.02369 cumulative IPC: 3.01658 (Simulation time: 0 hr 7 min 2 sec) 
Heartbeat CPU 0 instructions: 22000002 cycles: 7292253 heartbeat IPC: 3.02368 cumulative IPC: 3.0169 (Simulation time: 0 hr 7 min 18 sec) 
Heartbeat CPU 0 instructions: 23000000 cycles: 7622968 heartbeat IPC: 3.02375 cumulative IPC: 3.0172 (Simulation time: 0 hr 7 min 35 sec) 
Heartbeat CPU 0 instructions: 24000000 cycles: 7953674 heartbeat IPC: 3.02383 cumulative IPC: 3.01747 (Simulation time: 0 hr 7 min 53 sec) 
Heartbeat CPU 0 instructions: 25000000 cycles: 8284379 heartbeat IPC: 3.02384 cumulative IPC: 3.01773 (Simulation time: 0 hr 8 min 12 sec) 
Heartbeat CPU 0 instructions: 26000002 cycles: 8675744 heartbeat IPC: 2.55516 cumulative IPC: 2.99686 (Simulation time: 0 hr 8 min 40 sec) 
Heartbeat CPU 0 instructions: 27000000 cycles: 9096050 heartbeat IPC: 2.37921 cumulative IPC: 2.96832 (Simulation time: 0 hr 9 min 9 sec) 
Heartbeat CPU 0 instructions: 28000000 cycles: 9516352 heartbeat IPC: 2.37924 cumulative IPC: 2.9423 (Simulation time: 0 hr 9 min 36 sec) 
Heartbeat CPU 0 instructions: 29000002 cycles: 9936683 heartbeat IPC: 2.37908 cumulative IPC: 2.91848 (Simulation time: 0 hr 10 min 2 sec) 
Heartbeat CPU 0 instructions: 30000002 cycles: 10356994 heartbeat IPC: 2.37919 cumulative IPC: 2.89659 (Simulation time: 0 hr 10 min 35 sec) 
Heartbeat CPU 0 instructions: 31000000 cycles: 10777300 heartbeat IPC: 2.37921 cumulative IPC: 2.87642 (Simulation time: 0 hr 11 min 3 sec) 
Heartbeat CPU 0 instructions: 32000000 cycles: 11197602 heartbeat IPC: 2.37924 cumulative IPC: 2.85775 (Simulation time: 0 hr 11 min 36 sec) 
Heartbeat CPU 0 instructions: 33000002 cycles: 11617933 heartbeat IPC: 2.37908 cumulative IPC: 2.84044 (Simulation time: 0 hr 12 min 7 sec) 
Heartbeat CPU 0 instructions: 34000002 cycles: 12038244 heartbeat IPC: 2.37919 cumulative IPC: 2.82433 (Simulation time: 0 hr 12 min 37 sec) 
Heartbeat CPU 0 instructions: 35000000 cycles: 12458550 heartbeat IPC: 2.37921 cumulative IPC: 2.80932 (Simulation time: 0 hr 13 min 3 sec) 
Heartbeat CPU 0 instructions: 36000000 cycles: 12862260 heartbeat IPC: 2.47703 cumulative IPC: 2.79889 (Simulation time: 0 hr 13 min 28 sec) 
Heartbeat CPU 0 instructions: 37000001 cycles: 13195593 heartbeat IPC: 3.00001 cumulative IPC: 2.80397 (Simulation time: 0 hr 13 min 48 sec) 
Heartbeat CPU 0 instructions: 38000000 cycles: 13528926 heartbeat IPC: 3 cumulative IPC: 2.8088 (Simulation time: 0 hr 14 min 6 sec) 
Heartbeat CPU 0 instructions: 39000003 cycles: 13862260 heartbeat IPC: 3 cumulative IPC: 2.81339 (Simulation time: 0 hr 14 min 23 sec) 
Heartbeat CPU 0 instructions: 40000000 cycles: 14195593 heartbeat IPC: 2.99999 cumulative IPC: 2.81778 (Simulation time: 0 hr 14 min 41 sec) 
Heartbeat CPU 0 instructions: 41000001 cycles: 14528926 heartbeat IPC: 3.00001 cumulative IPC: 2.82196 (Simulation time: 0 hr 15 min 2 sec) 
Heartbeat CPU 0 instructions: 42000000 cycles: 14862259 heartbeat IPC: 3 cumulative IPC: 2.82595 (Simulation time: 0 hr 15 min 21 sec) 
Heartbeat CPU 0 instructions: 43000001 cycles: 15195593 heartbeat IPC: 3 cumulative IPC: 2.82977 (Simulation time: 0 hr 15 min 41 sec) 
Heartbeat CPU 0 instructions: 44000000 cycles: 15528926 heartbeat IPC: 3 cumulative IPC: 2.83342 (Simulation time: 0 hr 15 min 59 sec) 
Heartbeat CPU 0 instructions: 45000002 cycles: 15862260 heartbeat IPC: 3 cumulative IPC: 2.83692 (Simulation time: 0 hr 16 min 19 sec) 
Heartbeat CPU 0 instructions: 46000001 cycles: 16195593 heartbeat IPC: 3 cumulative IPC: 2.84028 (Simulation time: 0 hr 16 min 39 sec) 
Heartbeat CPU 0 instructions: 47000000 cycles: 16528926 heartbeat IPC: 3 cumulative IPC: 2.8435 (Simulation time: 0 hr 16 min 56 sec) 
Heartbeat CPU 0 instructions: 48000000 cycles: 16862260 heartbeat IPC: 2.99999 cumulative IPC: 2.84659 (Simulation time: 0 hr 17 min 18 sec) 
Heartbeat CPU 0 instructions: 49000003 cycles: 17195596 heartbeat IPC: 2.99998 cumulative IPC: 2.84957 (Simulation time: 0 hr 17 min 34 sec) 
Heartbeat CPU 0 instructions: 50000001 cycles: 17528926 heartbeat IPC: 3.00002 cumulative IPC: 2.85243 (Simulation time: 0 hr 17 min 52 sec) 

Warmup complete CPU 0 instructions: 50000001 cycles: 17528926 (Simulation time: 0 hr 17 min 52 sec) 

Heartbeat CPU 0 instructions: 51000000 cycles: 18995168 heartbeat IPC: 0.682015 cumulative IPC: 0.682015 (Simulation time: 0 hr 18 min 22 sec) 
Heartbeat CPU 0 instructions: 52000000 cycles: 20461433 heartbeat IPC: 0.682005 cumulative IPC: 0.68201 (Simulation time: 0 hr 18 min 52 sec) 
Heartbeat CPU 0 instructions: 53000000 cycles: 21927639 heartbeat IPC: 0.682032 cumulative IPC: 0.682017 (Simulation time: 0 hr 19 min 21 sec) 
Heartbeat CPU 0 instructions: 54000002 cycles: 23387137 heartbeat IPC: 0.685168 cumulative IPC: 0.682802 (Simulation time: 0 hr 19 min 52 sec) 
Heartbeat CPU 0 instructions: 55000002 cycles: 24763230 heartbeat IPC: 0.726695 cumulative IPC: 0.691152 (Simulation time: 0 hr 20 min 22 sec) 
Heartbeat CPU 0 instructions: 56000000 cycles: 26502414 heartbeat IPC: 0.574981 cumulative IPC: 0.668636 (Simulation time: 0 hr 20 min 49 sec) 
Heartbeat CPU 0 instructions: 57000001 cycles: 28256515 heartbeat IPC: 0.570093 cumulative IPC: 0.652523 (Simulation time: 0 hr 21 min 18 sec) 
Heartbeat CPU 0 instructions: 58000000 cycles: 30003407 heartbeat IPC: 0.572445 cumulative IPC: 0.641309 (Simulation time: 0 hr 21 min 45 sec) 
Heartbeat CPU 0 instructions: 59000003 cycles: 31755886 heartbeat IPC: 0.570622 cumulative IPC: 0.632602 (Simulation time: 0 hr 22 min 16 sec) 
Heartbeat CPU 0 instructions: 60000000 cycles: 33504616 heartbeat IPC: 0.571842 cumulative IPC: 0.625951 (Simulation time: 0 hr 22 min 51 sec) 
Heartbeat CPU 0 instructions: 61000002 cycles: 35251277 heartbeat IPC: 0.572522 cumulative IPC: 0.620685 (Simulation time: 0 hr 23 min 23 sec) 
Heartbeat CPU 0 instructions: 62000001 cycles: 37001267 heartbeat IPC: 0.571431 cumulative IPC: 0.616259 (Simulation time: 0 hr 23 min 53 sec) 
Heartbeat CPU 0 instructions: 63000001 cycles: 38745469 heartbeat IPC: 0.573328 cumulative IPC: 0.612729 (Simulation time: 0 hr 24 min 24 sec) 
Heartbeat CPU 0 instructions: 64000000 cycles: 40499370 heartbeat IPC: 0.570157 cumulative IPC: 0.609479 (Simulation time: 0 hr 25 min 2 sec) 
Heartbeat CPU 0 instructions: 65000002 cycles: 41807137 heartbeat IPC: 0.764664 cumulative IPC: 0.617838 (Simulation time: 0 hr 25 min 36 sec) 
Heartbeat CPU 0 instructions: 66000002 cycles: 43413168 heartbeat IPC: 0.622653 cumulative IPC: 0.618137 (Simulation time: 0 hr 26 min 11 sec) 
Heartbeat CPU 0 instructions: 67000000 cycles: 45164491 heartbeat IPC: 0.570996 cumulative IPC: 0.615149 (Simulation time: 0 hr 26 min 48 sec) 
Heartbeat CPU 0 instructions: 68000000 cycles: 46912934 heartbeat IPC: 0.571937 cumulative IPC: 0.612578 (Simulation time: 0 hr 27 min 26 sec) 
Heartbeat CPU 0 instructions: 69000000 cycles: 48665692 heartbeat IPC: 0.570529 cumulative IPC: 0.610211 (Simulation time: 0 hr 28 min 6 sec) 
Heartbeat CPU 0 instructions: 70000002 cycles: 50414573 heartbeat IPC: 0.571795 cumulative IPC: 0.608168 (Simulation time: 0 hr 28 min 42 sec) 
Heartbeat CPU 0 instructions: 71000001 cycles: 52165118 heartbeat IPC: 0.57125 cumulative IPC: 0.606302 (Simulation time: 0 hr 29 min 19 sec) 
Heartbeat CPU 0 instructions: 72000000 cycles: 53914532 heartbeat IPC: 0.571619 cumulative IPC: 0.604635 (Simulation time: 0 hr 29 min 55 sec) 
Heartbeat CPU 0 instructions: 73000000 cycles: 55640221 heartbeat IPC: 0.579479 cumulative IPC: 0.603496 (Simulation time: 0 hr 30 min 30 sec) 
Heartbeat CPU 0 instructions: 74000000 cycles: 57251235 heartbeat IPC: 0.620727 cumulative IPC: 0.604194 (Simulation time: 0 hr 31 min 8 sec) 
Heartbeat CPU 0 instructions: 75000000 cycles: 59583472 heartbeat IPC: 0.428773 cumulative IPC: 0.594466 (Simulation time: 0 hr 31 min 53 sec) 
Heartbeat CPU 0 instructions: 76000000 cycles: 61924452 heartbeat IPC: 0.427172 cumulative IPC: 0.585645 (Simulation time: 0 hr 32 min 42 sec) 
Heartbeat CPU 0 instructions: 77000000 cycles: 64261113 heartbeat IPC: 0.427961 cumulative IPC: 0.57776 (Simulation time: 0 hr 33 min 25 sec) 
Heartbeat CPU 0 instructions: 78000000 cycles: 66623911 heartbeat IPC: 0.423227 cumulative IPC: 0.570323 (Simulation time: 0 hr 34 min 7 sec) 
Heartbeat CPU 0 instructions: 79000000 cycles: 68960166 heartbeat IPC: 0.428035 cumulative IPC: 0.56386 (Simulation time: 0 hr 34 min 49 sec) 
Heartbeat CPU 0 instructions: 80000000 cycles: 70721380 heartbeat IPC: 0.56779 cumulative IPC: 0.56399 (Simulation time: 0 hr 35 min 27 sec) 
Heartbeat CPU 0 instructions: 81000000 cycles: 73057299 heartbeat IPC: 0.428097 cumulative IPC: 0.558273 (Simulation time: 0 hr 36 min 16 sec) 
Heartbeat CPU 0 instructions: 82000000 cycles: 75387834 heartbeat IPC: 0.429086 cumulative IPC: 0.55307 (Simulation time: 0 hr 37 min 4 sec) 
Heartbeat CPU 0 instructions: 83000000 cycles: 77734405 heartbeat IPC: 0.426154 cumulative IPC: 0.548123 (Simulation time: 0 hr 37 min 52 sec) 
Heartbeat CPU 0 instructions: 84000000 cycles: 79969282 heartbeat IPC: 0.447452 cumulative IPC: 0.54452 (Simulation time: 0 hr 38 min 36 sec) 
Heartbeat CPU 0 instructions: 85000001 cycles: 81474781 heartbeat IPC: 0.664232 cumulative IPC: 0.547338 (Simulation time: 0 hr 39 min 9 sec) 
Heartbeat CPU 0 instructions: 86000000 cycles: 82984930 heartbeat IPC: 0.662186 cumulative IPC: 0.549988 (Simulation time: 0 hr 39 min 46 sec) 
Heartbeat CPU 0 instructions: 87000003 cycles: 84494858 heartbeat IPC: 0.662285 cumulative IPC: 0.55252 (Simulation time: 0 hr 40 min 24 sec) 
Heartbeat CPU 0 instructions: 88000000 cycles: 86004850 heartbeat IPC: 0.662253 cumulative IPC: 0.55494 (Simulation time: 0 hr 41 min 2 sec) 
Heartbeat CPU 0 instructions: 89000001 cycles: 87514897 heartbeat IPC: 0.662232 cumulative IPC: 0.557255 (Simulation time: 0 hr 41 min 39 sec) 
Heartbeat CPU 0 instructions: 90000000 cycles: 89025017 heartbeat IPC: 0.662198 cumulative IPC: 0.559471 (Simulation time: 0 hr 42 min 19 sec) 
Heartbeat CPU 0 instructions: 91000001 cycles: 90534940 heartbeat IPC: 0.662286 cumulative IPC: 0.561598 (Simulation time: 0 hr 42 min 58 sec) 
Heartbeat CPU 0 instructions: 92000000 cycles: 92045048 heartbeat IPC: 0.662204 cumulative IPC: 0.563636 (Simulation time: 0 hr 43 min 36 sec) 
Heartbeat CPU 0 instructions: 93000002 cycles: 93555202 heartbeat IPC: 0.662185 cumulative IPC: 0.565594 (Simulation time: 0 hr 44 min 13 sec) 
Heartbeat CPU 0 instructions: 94000001 cycles: 94953210 heartbeat IPC: 0.715303 cumulative IPC: 0.568297 (Simulation time: 0 hr 44 min 50 sec) 
Heartbeat CPU 0 instructions: 95000000 cycles: 96097870 heartbeat IPC: 0.873621 cumulative IPC: 0.572745 (Simulation time: 0 hr 45 min 26 sec) 
Heartbeat CPU 0 instructions: 96000000 cycles: 97607864 heartbeat IPC: 0.662254 cumulative IPC: 0.574433 (Simulation time: 0 hr 46 min 7 sec) 
Heartbeat CPU 0 instructions: 97000002 cycles: 99115518 heartbeat IPC: 0.663283 cumulative IPC: 0.576075 (Simulation time: 0 hr 46 min 47 sec) 
Heartbeat CPU 0 instructions: 98000001 cycles: 100612192 heartbeat IPC: 0.668148 cumulative IPC: 0.577734 (Simulation time: 0 hr 47 min 24 sec) 
Heartbeat CPU 0 instructions: 99000000 cycles: 102122186 heartbeat IPC: 0.662254 cumulative IPC: 0.579242 (Simulation time: 0 hr 48 min 1 sec) 
Heartbeat CPU 0 instructions: 100000000 cycles: 103632107 heartbeat IPC: 0.662286 cumulative IPC: 0.580699 (Simulation time: 0 hr 48 min 39 sec) 
Heartbeat CPU 0 instructions: 101000000 cycles: 105142152 heartbeat IPC: 0.662232 cumulative IPC: 0.582104 (Simulation time: 0 hr 49 min 18 sec) 
Heartbeat CPU 0 instructions: 102000002 cycles: 106649087 heartbeat IPC: 0.6636 cumulative IPC: 0.583482 (Simulation time: 0 hr 49 min 57 sec) 
Heartbeat CPU 0 instructions: 103000001 cycles: 107970636 heartbeat IPC: 0.756687 cumulative IPC: 0.586013 (Simulation time: 0 hr 50 min 34 sec) 
Heartbeat CPU 0 instructions: 104000000 cycles: 110182210 heartbeat IPC: 0.452166 cumulative IPC: 0.582818 (Simulation time: 0 hr 51 min 23 sec) 
Heartbeat CPU 0 instructions: 105000000 cycles: 112526940 heartbeat IPC: 0.426488 cumulative IPC: 0.578959 (Simulation time: 0 hr 52 min 10 sec) 
Heartbeat CPU 0 instructions: 106000000 cycles: 114879636 heartbeat IPC: 0.425044 cumulative IPC: 0.57524 (Simulation time: 0 hr 53 min 0 sec) 
Heartbeat CPU 0 instructions: 107000000 cycles: 117236609 heartbeat IPC: 0.424273 cumulative IPC: 0.571671 (Simulation time: 0 hr 53 min 49 sec) 
Heartbeat CPU 0 instructions: 108000000 cycles: 119596484 heartbeat IPC: 0.423751 cumulative IPC: 0.568251 (Simulation time: 0 hr 54 min 39 sec) 
Heartbeat CPU 0 instructions: 109000000 cycles: 121354828 heartbeat IPC: 0.568717 cumulative IPC: 0.568259 (Simulation time: 0 hr 55 min 24 sec) 
Heartbeat CPU 0 instructions: 110000000 cycles: 123685645 heartbeat IPC: 0.429034 cumulative IPC: 0.565202 (Simulation time: 0 hr 56 min 11 sec) 
Heartbeat CPU 0 instructions: 111000000 cycles: 126035524 heartbeat IPC: 0.425554 cumulative IPC: 0.562178 (Simulation time: 0 hr 56 min 59 sec) 
Heartbeat CPU 0 instructions: 112000000 cycles: 128389268 heartbeat IPC: 0.424855 cumulative IPC: 0.559262 (Simulation time: 0 hr 57 min 47 sec) 
Heartbeat CPU 0 instructions: 113000000 cycles: 130737650 heartbeat IPC: 0.425825 cumulative IPC: 0.556494 (Simulation time: 0 hr 58 min 35 sec) 
Heartbeat CPU 0 instructions: 114000002 cycles: 132578974 heartbeat IPC: 0.543089 cumulative IPC: 0.55628 (Simulation time: 0 hr 59 min 15 sec) 
Heartbeat CPU 0 instructions: 115000001 cycles: 134323136 heartbeat IPC: 0.573341 cumulative IPC: 0.556534 (Simulation time: 0 hr 59 min 51 sec) 
Heartbeat CPU 0 instructions: 116000000 cycles: 136067239 heartbeat IPC: 0.57336 cumulative IPC: 0.556782 (Simulation time: 1 hr 0 min 27 sec) 
Heartbeat CPU 0 instructions: 117000002 cycles: 137819021 heartbeat IPC: 0.570848 cumulative IPC: 0.556987 (Simulation time: 1 hr 1 min 1 sec) 
Heartbeat CPU 0 instructions: 118000002 cycles: 139567589 heartbeat IPC: 0.571897 cumulative IPC: 0.5572 (Simulation time: 1 hr 1 min 38 sec) 
Heartbeat CPU 0 instructions: 119000002 cycles: 141318103 heartbeat IPC: 0.571261 cumulative IPC: 0.557399 (Simulation time: 1 hr 2 min 13 sec) 
Heartbeat CPU 0 instructions: 120000000 cycles: 143068421 heartbeat IPC: 0.571324 cumulative IPC: 0.557593 (Simulation time: 1 hr 2 min 50 sec) 
Heartbeat CPU 0 instructions: 121000000 cycles: 144820582 heartbeat IPC: 0.570724 cumulative IPC: 0.557774 (Simulation time: 1 hr 3 min 26 sec) 
Heartbeat CPU 0 instructions: 122000001 cycles: 146570979 heartbeat IPC: 0.5713 cumulative IPC: 0.557958 (Simulation time: 1 hr 4 min 2 sec) 
Heartbeat CPU 0 instructions: 123000000 cycles: 148319829 heartbeat IPC: 0.571804 cumulative IPC: 0.558143 (Simulation time: 1 hr 4 min 36 sec) 
Heartbeat CPU 0 instructions: 124000000 cycles: 149551958 heartbeat IPC: 0.811603 cumulative IPC: 0.560508 (Simulation time: 1 hr 5 min 10 sec) 
Heartbeat CPU 0 instructions: 125000001 cycles: 151259530 heartbeat IPC: 0.585627 cumulative IPC: 0.560829 (Simulation time: 1 hr 5 min 42 sec) 
Heartbeat CPU 0 instructions: 126000000 cycles: 153012523 heartbeat IPC: 0.570452 cumulative IPC: 0.560953 (Simulation time: 1 hr 6 min 15 sec) 
Heartbeat CPU 0 instructions: 127000003 cycles: 154761128 heartbeat IPC: 0.571886 cumulative IPC: 0.561093 (Simulation time: 1 hr 6 min 50 sec) 
Heartbeat CPU 0 instructions: 128000000 cycles: 156509144 heartbeat IPC: 0.572075 cumulative IPC: 0.561231 (Simulation time: 1 hr 7 min 28 sec) 
Heartbeat CPU 0 instructions: 129000000 cycles: 158260933 heartbeat IPC: 0.570845 cumulative IPC: 0.561351 (Simulation time: 1 hr 8 min 6 sec) 
Heartbeat CPU 0 instructions: 130000001 cycles: 160009023 heartbeat IPC: 0.572053 cumulative IPC: 0.561482 (Simulation time: 1 hr 8 min 45 sec) 
Heartbeat CPU 0 instructions: 131000000 cycles: 161760875 heartbeat IPC: 0.570824 cumulative IPC: 0.561595 (Simulation time: 1 hr 9 min 21 sec) 
Heartbeat CPU 0 instructions: 132000000 cycles: 163469179 heartbeat IPC: 0.585376 cumulative IPC: 0.561874 (Simulation time: 1 hr 9 min 57 sec) 
Heartbeat CPU 0 instructions: 133000000 cycles: 165181400 heartbeat IPC: 0.584037 cumulative IPC: 0.562131 (Simulation time: 1 hr 10 min 35 sec) 
Heartbeat CPU 0 instructions: 134000000 cycles: 167483052 heartbeat IPC: 0.434471 cumulative IPC: 0.560171 (Simulation time: 1 hr 11 min 25 sec) 
Heartbeat CPU 0 instructions: 135000000 cycles: 169797539 heartbeat IPC: 0.432061 cumulative IPC: 0.558224 (Simulation time: 1 hr 12 min 13 sec) 
Heartbeat CPU 0 instructions: 136000000 cycles: 172117081 heartbeat IPC: 0.43112 cumulative IPC: 0.556317 (Simulation time: 1 hr 13 min 0 sec) 
Heartbeat CPU 0 instructions: 137000000 cycles: 174441468 heartbeat IPC: 0.430221 cumulative IPC: 0.554449 (Simulation time: 1 hr 13 min 48 sec) 
Heartbeat CPU 0 instructions: 138000000 cycles: 176652030 heartbeat IPC: 0.452374 cumulative IPC: 0.553031 (Simulation time: 1 hr 14 min 36 sec) 
Heartbeat CPU 0 instructions: 139000000 cycles: 178468386 heartbeat IPC: 0.550553 cumulative IPC: 0.553003 (Simulation time: 1 hr 15 min 21 sec) 
Heartbeat CPU 0 instructions: 140000000 cycles: 180775261 heartbeat IPC: 0.433487 cumulative IPC: 0.551314 (Simulation time: 1 hr 16 min 10 sec) 
Heartbeat CPU 0 instructions: 141000000 cycles: 183085374 heartbeat IPC: 0.432879 cumulative IPC: 0.549661 (Simulation time: 1 hr 16 min 57 sec) 
Heartbeat CPU 0 instructions: 142000000 cycles: 185399922 heartbeat IPC: 0.43205 cumulative IPC: 0.54804 (Simulation time: 1 hr 17 min 40 sec) 
Heartbeat CPU 0 instructions: 143000000 cycles: 187495805 heartbeat IPC: 0.477126 cumulative IPC: 0.547165 (Simulation time: 1 hr 18 min 22 sec) 
Heartbeat CPU 0 instructions: 144000000 cycles: 189256936 heartbeat IPC: 0.567817 cumulative IPC: 0.547377 (Simulation time: 1 hr 18 min 55 sec) 
Heartbeat CPU 0 instructions: 145000002 cycles: 191006279 heartbeat IPC: 0.571644 cumulative IPC: 0.547622 (Simulation time: 1 hr 19 min 29 sec) 
Heartbeat CPU 0 instructions: 146000001 cycles: 192753420 heartbeat IPC: 0.572363 cumulative IPC: 0.547869 (Simulation time: 1 hr 19 min 59 sec) 
Heartbeat CPU 0 instructions: 147000000 cycles: 194503052 heartbeat IPC: 0.571548 cumulative IPC: 0.548103 (Simulation time: 1 hr 20 min 28 sec) 
Heartbeat CPU 0 instructions: 148000000 cycles: 196253364 heartbeat IPC: 0.571327 cumulative IPC: 0.54833 (Simulation time: 1 hr 20 min 59 sec) 
Heartbeat CPU 0 instructions: 149000002 cycles: 198002424 heartbeat IPC: 0.571737 cumulative IPC: 0.548557 (Simulation time: 1 hr 21 min 31 sec) 
Heartbeat CPU 0 instructions: 150000000 cycles: 199751602 heartbeat IPC: 0.571696 cumulative IPC: 0.548779 (Simulation time: 1 hr 22 min 2 sec) 
Finished CPU 0 instructions: 100000001 cycles: 182222677 cummulative IPC: 0.548779 (Simulation time: 1 hr 22 min 2 sec) 

ChampSim completed all CPUs

Region of Interest Statistics

CPU 0 cummulative IPC: 0.548779 instructions: 100000001 cycles: 182222677
LLC TOTAL     ACCESS:    5216164  HIT:     326223  MISS:    4889941
LLC LOAD      ACCESS:    1223508  HIT:      77674  MISS:    1145834
LLC RFO       ACCESS:         28  HIT:         24  MISS:          4
LLC PREFETCH  ACCESS:    2243575  HIT:     115801  MISS:    2127774
LLC WRITEBACK ACCESS:    1749053  HIT:     132724  MISS:    1616329
OPTgen accesses: 10687
OPTgen hits: 68
OPTgen hit rate: 0.636287


