
*** ChampSim Multicore Out-of-Order Simulator ***

Warmup Instructions: 50000000
Simulation Instructions: 100000000
Configuration: 2
Number of CPUs: 1
LLC sets: 2048
LLC ways: 16
Off-chip DRAM Channels: 1 Width: 64-bit Data Rate: 1600 MT/s

CPU 0 runs /datasets/cs240c-wi22-a00-public/data/Assignment2-gz/gcc_39B.trace.gz
CPU 0 L1D next line prefetcher
CPU 0 L2C IP-based stride prefetcher
Initialize Hawkeye state
Heartbeat CPU 0 instructions: 1000000 cycles: 510415 heartbeat IPC: 1.95919 cumulative IPC: 1.95919 (Simulation time: 0 hr 0 min 43 sec) 
Heartbeat CPU 0 instructions: 2000002 cycles: 1020477 heartbeat IPC: 1.96055 cumulative IPC: 1.95987 (Simulation time: 0 hr 1 min 22 sec) 
Heartbeat CPU 0 instructions: 3000002 cycles: 1529254 heartbeat IPC: 1.9655 cumulative IPC: 1.96174 (Simulation time: 0 hr 1 min 56 sec) 
Heartbeat CPU 0 instructions: 4000000 cycles: 2038229 heartbeat IPC: 1.96473 cumulative IPC: 1.96249 (Simulation time: 0 hr 2 min 30 sec) 
Heartbeat CPU 0 instructions: 5000003 cycles: 2547014 heartbeat IPC: 1.96547 cumulative IPC: 1.96308 (Simulation time: 0 hr 3 min 8 sec) 
Heartbeat CPU 0 instructions: 6000000 cycles: 3057390 heartbeat IPC: 1.95933 cumulative IPC: 1.96246 (Simulation time: 0 hr 3 min 51 sec) 
Heartbeat CPU 0 instructions: 7000001 cycles: 3565359 heartbeat IPC: 1.96863 cumulative IPC: 1.96334 (Simulation time: 0 hr 4 min 27 sec) 
Heartbeat CPU 0 instructions: 8000000 cycles: 4078805 heartbeat IPC: 1.94762 cumulative IPC: 1.96136 (Simulation time: 0 hr 5 min 13 sec) 
Heartbeat CPU 0 instructions: 9000002 cycles: 4590941 heartbeat IPC: 1.95261 cumulative IPC: 1.96038 (Simulation time: 0 hr 5 min 49 sec) 
Heartbeat CPU 0 instructions: 10000000 cycles: 5101490 heartbeat IPC: 1.95867 cumulative IPC: 1.96021 (Simulation time: 0 hr 6 min 25 sec) 
Heartbeat CPU 0 instructions: 11000002 cycles: 5610505 heartbeat IPC: 1.96458 cumulative IPC: 1.96061 (Simulation time: 0 hr 7 min 0 sec) 
Heartbeat CPU 0 instructions: 12000000 cycles: 6120531 heartbeat IPC: 1.96068 cumulative IPC: 1.96061 (Simulation time: 0 hr 7 min 35 sec) 
Heartbeat CPU 0 instructions: 13000003 cycles: 6631187 heartbeat IPC: 1.95827 cumulative IPC: 1.96043 (Simulation time: 0 hr 8 min 17 sec) 
Heartbeat CPU 0 instructions: 14000003 cycles: 7142092 heartbeat IPC: 1.95731 cumulative IPC: 1.96021 (Simulation time: 0 hr 8 min 53 sec) 
Heartbeat CPU 0 instructions: 15000001 cycles: 7652522 heartbeat IPC: 1.95913 cumulative IPC: 1.96014 (Simulation time: 0 hr 9 min 30 sec) 
Heartbeat CPU 0 instructions: 16000000 cycles: 8161882 heartbeat IPC: 1.96325 cumulative IPC: 1.96033 (Simulation time: 0 hr 10 min 2 sec) 
Heartbeat CPU 0 instructions: 17000000 cycles: 8673439 heartbeat IPC: 1.95482 cumulative IPC: 1.96001 (Simulation time: 0 hr 10 min 40 sec) 
Heartbeat CPU 0 instructions: 18000000 cycles: 9182360 heartbeat IPC: 1.96494 cumulative IPC: 1.96028 (Simulation time: 0 hr 11 min 17 sec) 
Heartbeat CPU 0 instructions: 19000001 cycles: 9694546 heartbeat IPC: 1.95242 cumulative IPC: 1.95986 (Simulation time: 0 hr 12 min 0 sec) 
Heartbeat CPU 0 instructions: 20000000 cycles: 10205237 heartbeat IPC: 1.95813 cumulative IPC: 1.95978 (Simulation time: 0 hr 12 min 37 sec) 
Heartbeat CPU 0 instructions: 21000003 cycles: 10720665 heartbeat IPC: 1.94014 cumulative IPC: 1.95883 (Simulation time: 0 hr 13 min 10 sec) 
Heartbeat CPU 0 instructions: 22000003 cycles: 11230806 heartbeat IPC: 1.96024 cumulative IPC: 1.9589 (Simulation time: 0 hr 13 min 44 sec) 
Heartbeat CPU 0 instructions: 23000003 cycles: 11739123 heartbeat IPC: 1.96728 cumulative IPC: 1.95926 (Simulation time: 0 hr 14 min 28 sec) 
Heartbeat CPU 0 instructions: 24000000 cycles: 12249287 heartbeat IPC: 1.96015 cumulative IPC: 1.9593 (Simulation time: 0 hr 15 min 3 sec) 
Heartbeat CPU 0 instructions: 25000002 cycles: 12758679 heartbeat IPC: 1.96313 cumulative IPC: 1.95945 (Simulation time: 0 hr 15 min 40 sec) 
Heartbeat CPU 0 instructions: 26000001 cycles: 13266889 heartbeat IPC: 1.96769 cumulative IPC: 1.95977 (Simulation time: 0 hr 16 min 21 sec) 
Heartbeat CPU 0 instructions: 27000000 cycles: 13776716 heartbeat IPC: 1.96145 cumulative IPC: 1.95983 (Simulation time: 0 hr 17 min 1 sec) 
Heartbeat CPU 0 instructions: 28000000 cycles: 14286176 heartbeat IPC: 1.96286 cumulative IPC: 1.95994 (Simulation time: 0 hr 17 min 38 sec) 
Heartbeat CPU 0 instructions: 29000001 cycles: 14795515 heartbeat IPC: 1.96333 cumulative IPC: 1.96005 (Simulation time: 0 hr 18 min 14 sec) 
Heartbeat CPU 0 instructions: 30000003 cycles: 15306401 heartbeat IPC: 1.95739 cumulative IPC: 1.95996 (Simulation time: 0 hr 18 min 49 sec) 
Heartbeat CPU 0 instructions: 31000003 cycles: 15821636 heartbeat IPC: 1.94086 cumulative IPC: 1.95934 (Simulation time: 0 hr 19 min 29 sec) 
Heartbeat CPU 0 instructions: 32000000 cycles: 16331092 heartbeat IPC: 1.96287 cumulative IPC: 1.95945 (Simulation time: 0 hr 20 min 4 sec) 
Heartbeat CPU 0 instructions: 33000000 cycles: 16840929 heartbeat IPC: 1.96141 cumulative IPC: 1.95951 (Simulation time: 0 hr 20 min 40 sec) 
Heartbeat CPU 0 instructions: 34000003 cycles: 17351980 heartbeat IPC: 1.95676 cumulative IPC: 1.95943 (Simulation time: 0 hr 21 min 19 sec) 
Heartbeat CPU 0 instructions: 35000001 cycles: 17862389 heartbeat IPC: 1.95921 cumulative IPC: 1.95942 (Simulation time: 0 hr 21 min 52 sec) 
Heartbeat CPU 0 instructions: 36000000 cycles: 18371902 heartbeat IPC: 1.96266 cumulative IPC: 1.95951 (Simulation time: 0 hr 22 min 29 sec) 
Heartbeat CPU 0 instructions: 37000000 cycles: 18884671 heartbeat IPC: 1.9502 cumulative IPC: 1.95926 (Simulation time: 0 hr 23 min 3 sec) 
Heartbeat CPU 0 instructions: 38000001 cycles: 19393410 heartbeat IPC: 1.96565 cumulative IPC: 1.95943 (Simulation time: 0 hr 23 min 40 sec) 
Heartbeat CPU 0 instructions: 39000000 cycles: 19905657 heartbeat IPC: 1.95218 cumulative IPC: 1.95924 (Simulation time: 0 hr 24 min 17 sec) 
Heartbeat CPU 0 instructions: 40000000 cycles: 20415179 heartbeat IPC: 1.96262 cumulative IPC: 1.95933 (Simulation time: 0 hr 24 min 48 sec) 
Heartbeat CPU 0 instructions: 41000001 cycles: 20926967 heartbeat IPC: 1.95394 cumulative IPC: 1.95919 (Simulation time: 0 hr 25 min 26 sec) 
Heartbeat CPU 0 instructions: 42000001 cycles: 21438199 heartbeat IPC: 1.95606 cumulative IPC: 1.95912 (Simulation time: 0 hr 26 min 11 sec) 
Heartbeat CPU 0 instructions: 43000003 cycles: 21952930 heartbeat IPC: 1.94277 cumulative IPC: 1.95874 (Simulation time: 0 hr 26 min 51 sec) 
Heartbeat CPU 0 instructions: 44000000 cycles: 22464905 heartbeat IPC: 1.95321 cumulative IPC: 1.95861 (Simulation time: 0 hr 27 min 32 sec) 
Heartbeat CPU 0 instructions: 45000002 cycles: 22973601 heartbeat IPC: 1.96581 cumulative IPC: 1.95877 (Simulation time: 0 hr 28 min 13 sec) 
Heartbeat CPU 0 instructions: 46000002 cycles: 23484248 heartbeat IPC: 1.9583 cumulative IPC: 1.95876 (Simulation time: 0 hr 28 min 54 sec) 
Heartbeat CPU 0 instructions: 47000000 cycles: 23993880 heartbeat IPC: 1.9622 cumulative IPC: 1.95883 (Simulation time: 0 hr 29 min 36 sec) 
Heartbeat CPU 0 instructions: 48000000 cycles: 24502182 heartbeat IPC: 1.96733 cumulative IPC: 1.95901 (Simulation time: 0 hr 30 min 15 sec) 
Heartbeat CPU 0 instructions: 49000000 cycles: 25012237 heartbeat IPC: 1.96057 cumulative IPC: 1.95904 (Simulation time: 0 hr 30 min 56 sec) 
Heartbeat CPU 0 instructions: 50000000 cycles: 25527631 heartbeat IPC: 1.94026 cumulative IPC: 1.95866 (Simulation time: 0 hr 31 min 37 sec) 

Warmup complete CPU 0 instructions: 50000001 cycles: 25527632 (Simulation time: 0 hr 31 min 37 sec) 

Heartbeat CPU 0 instructions: 51000000 cycles: 26898787 heartbeat IPC: 0.729312 cumulative IPC: 0.729311 (Simulation time: 0 hr 32 min 25 sec) 
Heartbeat CPU 0 instructions: 52000000 cycles: 28280238 heartbeat IPC: 0.723877 cumulative IPC: 0.726584 (Simulation time: 0 hr 33 min 15 sec) 
Heartbeat CPU 0 instructions: 53000003 cycles: 29657675 heartbeat IPC: 0.725988 cumulative IPC: 0.726385 (Simulation time: 0 hr 34 min 6 sec) 
Heartbeat CPU 0 instructions: 54000000 cycles: 31037980 heartbeat IPC: 0.724475 cumulative IPC: 0.725907 (Simulation time: 0 hr 34 min 57 sec) 
Heartbeat CPU 0 instructions: 55000002 cycles: 32417142 heartbeat IPC: 0.725079 cumulative IPC: 0.725741 (Simulation time: 0 hr 35 min 45 sec) 
Heartbeat CPU 0 instructions: 56000000 cycles: 33795184 heartbeat IPC: 0.725666 cumulative IPC: 0.725729 (Simulation time: 0 hr 36 min 36 sec) 
Heartbeat CPU 0 instructions: 57000000 cycles: 35178153 heartbeat IPC: 0.723082 cumulative IPC: 0.725349 (Simulation time: 0 hr 37 min 22 sec) 
Heartbeat CPU 0 instructions: 58000000 cycles: 36561259 heartbeat IPC: 0.72301 cumulative IPC: 0.725056 (Simulation time: 0 hr 38 min 13 sec) 
Heartbeat CPU 0 instructions: 59000000 cycles: 37944274 heartbeat IPC: 0.723058 cumulative IPC: 0.724834 (Simulation time: 0 hr 39 min 10 sec) 
Heartbeat CPU 0 instructions: 60000000 cycles: 39326348 heartbeat IPC: 0.72355 cumulative IPC: 0.724705 (Simulation time: 0 hr 39 min 56 sec) 
Heartbeat CPU 0 instructions: 61000000 cycles: 40705738 heartbeat IPC: 0.724958 cumulative IPC: 0.724728 (Simulation time: 0 hr 40 min 47 sec) 
Heartbeat CPU 0 instructions: 62000000 cycles: 42089736 heartbeat IPC: 0.722544 cumulative IPC: 0.724546 (Simulation time: 0 hr 41 min 38 sec) 
Heartbeat CPU 0 instructions: 63000001 cycles: 43478426 heartbeat IPC: 0.720104 cumulative IPC: 0.724202 (Simulation time: 0 hr 42 min 30 sec) 
Heartbeat CPU 0 instructions: 64000000 cycles: 44869473 heartbeat IPC: 0.718882 cumulative IPC: 0.723819 (Simulation time: 0 hr 43 min 18 sec) 
Heartbeat CPU 0 instructions: 65000000 cycles: 46242910 heartbeat IPC: 0.7281 cumulative IPC: 0.724103 (Simulation time: 0 hr 44 min 7 sec) 
Heartbeat CPU 0 instructions: 66000001 cycles: 47627692 heartbeat IPC: 0.722136 cumulative IPC: 0.72398 (Simulation time: 0 hr 44 min 55 sec) 
Heartbeat CPU 0 instructions: 67000001 cycles: 48995388 heartbeat IPC: 0.731157 cumulative IPC: 0.724398 (Simulation time: 0 hr 45 min 43 sec) 
Heartbeat CPU 0 instructions: 68000000 cycles: 50360544 heartbeat IPC: 0.732516 cumulative IPC: 0.724844 (Simulation time: 0 hr 46 min 32 sec) 
Heartbeat CPU 0 instructions: 69000000 cycles: 51746594 heartbeat IPC: 0.721475 cumulative IPC: 0.724666 (Simulation time: 0 hr 47 min 19 sec) 
Heartbeat CPU 0 instructions: 70000002 cycles: 53113755 heartbeat IPC: 0.731444 cumulative IPC: 0.725002 (Simulation time: 0 hr 48 min 8 sec) 
Heartbeat CPU 0 instructions: 71000000 cycles: 54486765 heartbeat IPC: 0.728325 cumulative IPC: 0.72516 (Simulation time: 0 hr 49 min 0 sec) 
Heartbeat CPU 0 instructions: 72000000 cycles: 55849995 heartbeat IPC: 0.733552 cumulative IPC: 0.725537 (Simulation time: 0 hr 49 min 52 sec) 
Heartbeat CPU 0 instructions: 73000000 cycles: 57215574 heartbeat IPC: 0.73229 cumulative IPC: 0.725828 (Simulation time: 0 hr 50 min 42 sec) 
Heartbeat CPU 0 instructions: 74000000 cycles: 58592609 heartbeat IPC: 0.726198 cumulative IPC: 0.725843 (Simulation time: 0 hr 51 min 34 sec) 
Heartbeat CPU 0 instructions: 75000001 cycles: 59959175 heartbeat IPC: 0.731762 cumulative IPC: 0.726078 (Simulation time: 0 hr 52 min 23 sec) 
Heartbeat CPU 0 instructions: 76000000 cycles: 61345339 heartbeat IPC: 0.721415 cumulative IPC: 0.725898 (Simulation time: 0 hr 53 min 12 sec) 
Heartbeat CPU 0 instructions: 77000003 cycles: 62712067 heartbeat IPC: 0.731677 cumulative IPC: 0.72611 (Simulation time: 0 hr 54 min 4 sec) 
Heartbeat CPU 0 instructions: 78000000 cycles: 64089582 heartbeat IPC: 0.725943 cumulative IPC: 0.726104 (Simulation time: 0 hr 55 min 1 sec) 
Heartbeat CPU 0 instructions: 79000002 cycles: 65467628 heartbeat IPC: 0.725667 cumulative IPC: 0.726089 (Simulation time: 0 hr 55 min 52 sec) 
Heartbeat CPU 0 instructions: 80000000 cycles: 66851577 heartbeat IPC: 0.722569 cumulative IPC: 0.725971 (Simulation time: 0 hr 56 min 42 sec) 
Heartbeat CPU 0 instructions: 81000000 cycles: 68239885 heartbeat IPC: 0.720301 cumulative IPC: 0.725787 (Simulation time: 0 hr 57 min 30 sec) 
Heartbeat CPU 0 instructions: 82000000 cycles: 69621174 heartbeat IPC: 0.723961 cumulative IPC: 0.72573 (Simulation time: 0 hr 58 min 22 sec) 
Heartbeat CPU 0 instructions: 83000000 cycles: 71005623 heartbeat IPC: 0.722309 cumulative IPC: 0.725626 (Simulation time: 0 hr 59 min 13 sec) 
Heartbeat CPU 0 instructions: 84000000 cycles: 72387203 heartbeat IPC: 0.723809 cumulative IPC: 0.725572 (Simulation time: 1 hr 0 min 3 sec) 
Heartbeat CPU 0 instructions: 85000000 cycles: 73763427 heartbeat IPC: 0.726626 cumulative IPC: 0.725602 (Simulation time: 1 hr 0 min 53 sec) 
Heartbeat CPU 0 instructions: 86000001 cycles: 75145522 heartbeat IPC: 0.72354 cumulative IPC: 0.725545 (Simulation time: 1 hr 1 min 44 sec) 
Heartbeat CPU 0 instructions: 87000001 cycles: 76527750 heartbeat IPC: 0.72347 cumulative IPC: 0.725489 (Simulation time: 1 hr 2 min 34 sec) 
Heartbeat CPU 0 instructions: 88000000 cycles: 77907879 heartbeat IPC: 0.724569 cumulative IPC: 0.725464 (Simulation time: 1 hr 3 min 25 sec) 
Heartbeat CPU 0 instructions: 89000003 cycles: 79290878 heartbeat IPC: 0.723068 cumulative IPC: 0.725403 (Simulation time: 1 hr 4 min 15 sec) 
Heartbeat CPU 0 instructions: 90000000 cycles: 80668179 heartbeat IPC: 0.726056 cumulative IPC: 0.725419 (Simulation time: 1 hr 5 min 4 sec) 
Heartbeat CPU 0 instructions: 91000001 cycles: 82060348 heartbeat IPC: 0.718304 cumulative IPC: 0.725244 (Simulation time: 1 hr 5 min 51 sec) 
Heartbeat CPU 0 instructions: 92000000 cycles: 83445508 heartbeat IPC: 0.721938 cumulative IPC: 0.725165 (Simulation time: 1 hr 6 min 38 sec) 
Heartbeat CPU 0 instructions: 93000000 cycles: 84828474 heartbeat IPC: 0.723084 cumulative IPC: 0.725116 (Simulation time: 1 hr 7 min 28 sec) 
Heartbeat CPU 0 instructions: 94000002 cycles: 86207966 heartbeat IPC: 0.724906 cumulative IPC: 0.725111 (Simulation time: 1 hr 8 min 19 sec) 
Heartbeat CPU 0 instructions: 95000001 cycles: 87587569 heartbeat IPC: 0.724845 cumulative IPC: 0.725105 (Simulation time: 1 hr 9 min 13 sec) 
Heartbeat CPU 0 instructions: 96000000 cycles: 88956011 heartbeat IPC: 0.730757 cumulative IPC: 0.725227 (Simulation time: 1 hr 10 min 3 sec) 
Heartbeat CPU 0 instructions: 97000000 cycles: 90326020 heartbeat IPC: 0.729922 cumulative IPC: 0.725327 (Simulation time: 1 hr 10 min 52 sec) 
Heartbeat CPU 0 instructions: 98000003 cycles: 91695070 heartbeat IPC: 0.730436 cumulative IPC: 0.725432 (Simulation time: 1 hr 11 min 43 sec) 
Heartbeat CPU 0 instructions: 99000000 cycles: 93063810 heartbeat IPC: 0.730597 cumulative IPC: 0.725537 (Simulation time: 1 hr 12 min 33 sec) 
Heartbeat CPU 0 instructions: 100000000 cycles: 94426196 heartbeat IPC: 0.734006 cumulative IPC: 0.725704 (Simulation time: 1 hr 13 min 23 sec) 
Heartbeat CPU 0 instructions: 101000000 cycles: 95791363 heartbeat IPC: 0.732511 cumulative IPC: 0.725837 (Simulation time: 1 hr 14 min 15 sec) 
Heartbeat CPU 0 instructions: 102000002 cycles: 97170289 heartbeat IPC: 0.725204 cumulative IPC: 0.725825 (Simulation time: 1 hr 15 min 7 sec) 
Heartbeat CPU 0 instructions: 103000003 cycles: 98539243 heartbeat IPC: 0.730485 cumulative IPC: 0.725912 (Simulation time: 1 hr 15 min 57 sec) 
Heartbeat CPU 0 instructions: 104000000 cycles: 99916336 heartbeat IPC: 0.726165 cumulative IPC: 0.725917 (Simulation time: 1 hr 16 min 47 sec) 
Heartbeat CPU 0 instructions: 105000000 cycles: 101279945 heartbeat IPC: 0.733348 cumulative IPC: 0.72605 (Simulation time: 1 hr 17 min 36 sec) 
Heartbeat CPU 0 instructions: 106000001 cycles: 102661888 heartbeat IPC: 0.72362 cumulative IPC: 0.726007 (Simulation time: 1 hr 18 min 28 sec) 
Heartbeat CPU 0 instructions: 107000000 cycles: 104047041 heartbeat IPC: 0.721941 cumulative IPC: 0.725935 (Simulation time: 1 hr 19 min 19 sec) 
Heartbeat CPU 0 instructions: 108000000 cycles: 105429900 heartbeat IPC: 0.72314 cumulative IPC: 0.725887 (Simulation time: 1 hr 20 min 8 sec) 
Heartbeat CPU 0 instructions: 109000003 cycles: 106824318 heartbeat IPC: 0.717147 cumulative IPC: 0.725737 (Simulation time: 1 hr 20 min 58 sec) 
Heartbeat CPU 0 instructions: 110000001 cycles: 108206995 heartbeat IPC: 0.723233 cumulative IPC: 0.725695 (Simulation time: 1 hr 21 min 48 sec) 
Heartbeat CPU 0 instructions: 111000001 cycles: 109589301 heartbeat IPC: 0.723429 cumulative IPC: 0.725658 (Simulation time: 1 hr 22 min 36 sec) 
Heartbeat CPU 0 instructions: 112000000 cycles: 110971445 heartbeat IPC: 0.723513 cumulative IPC: 0.725623 (Simulation time: 1 hr 23 min 26 sec) 
Heartbeat CPU 0 instructions: 113000003 cycles: 112351210 heartbeat IPC: 0.724763 cumulative IPC: 0.725609 (Simulation time: 1 hr 24 min 14 sec) 
Heartbeat CPU 0 instructions: 114000000 cycles: 113736338 heartbeat IPC: 0.721953 cumulative IPC: 0.725552 (Simulation time: 1 hr 24 min 59 sec) 
Heartbeat CPU 0 instructions: 115000001 cycles: 115123641 heartbeat IPC: 0.720824 cumulative IPC: 0.725479 (Simulation time: 1 hr 25 min 41 sec) 
Heartbeat CPU 0 instructions: 116000000 cycles: 116506232 heartbeat IPC: 0.723279 cumulative IPC: 0.725445 (Simulation time: 1 hr 26 min 25 sec) 
Heartbeat CPU 0 instructions: 117000001 cycles: 117889958 heartbeat IPC: 0.722687 cumulative IPC: 0.725404 (Simulation time: 1 hr 27 min 9 sec) 
Heartbeat CPU 0 instructions: 118000001 cycles: 119270895 heartbeat IPC: 0.724146 cumulative IPC: 0.725385 (Simulation time: 1 hr 27 min 52 sec) 
Heartbeat CPU 0 instructions: 119000001 cycles: 120663911 heartbeat IPC: 0.717867 cumulative IPC: 0.725275 (Simulation time: 1 hr 28 min 33 sec) 
Heartbeat CPU 0 instructions: 120000000 cycles: 122049211 heartbeat IPC: 0.721865 cumulative IPC: 0.725226 (Simulation time: 1 hr 29 min 10 sec) 
Heartbeat CPU 0 instructions: 121000001 cycles: 123432280 heartbeat IPC: 0.72303 cumulative IPC: 0.725195 (Simulation time: 1 hr 29 min 43 sec) 
Heartbeat CPU 0 instructions: 122000001 cycles: 124819912 heartbeat IPC: 0.720652 cumulative IPC: 0.725132 (Simulation time: 1 hr 30 min 20 sec) 
Heartbeat CPU 0 instructions: 123000001 cycles: 126202085 heartbeat IPC: 0.723498 cumulative IPC: 0.725109 (Simulation time: 1 hr 30 min 55 sec) 
Heartbeat CPU 0 instructions: 124000000 cycles: 127578717 heartbeat IPC: 0.72641 cumulative IPC: 0.725127 (Simulation time: 1 hr 31 min 30 sec) 
Heartbeat CPU 0 instructions: 125000000 cycles: 128965154 heartbeat IPC: 0.721273 cumulative IPC: 0.725075 (Simulation time: 1 hr 32 min 3 sec) 
Heartbeat CPU 0 instructions: 126000000 cycles: 130346338 heartbeat IPC: 0.724016 cumulative IPC: 0.725061 (Simulation time: 1 hr 32 min 33 sec) 
Heartbeat CPU 0 instructions: 127000001 cycles: 131721963 heartbeat IPC: 0.726943 cumulative IPC: 0.725086 (Simulation time: 1 hr 33 min 5 sec) 
Heartbeat CPU 0 instructions: 128000000 cycles: 133113528 heartbeat IPC: 0.718615 cumulative IPC: 0.725002 (Simulation time: 1 hr 33 min 35 sec) 
Heartbeat CPU 0 instructions: 129000003 cycles: 134496379 heartbeat IPC: 0.723146 cumulative IPC: 0.724979 (Simulation time: 1 hr 34 min 5 sec) 
Heartbeat CPU 0 instructions: 130000003 cycles: 135876704 heartbeat IPC: 0.724467 cumulative IPC: 0.724972 (Simulation time: 1 hr 34 min 34 sec) 
Heartbeat CPU 0 instructions: 131000002 cycles: 137258608 heartbeat IPC: 0.723639 cumulative IPC: 0.724956 (Simulation time: 1 hr 35 min 5 sec) 
Heartbeat CPU 0 instructions: 132000000 cycles: 138637579 heartbeat IPC: 0.725177 cumulative IPC: 0.724958 (Simulation time: 1 hr 35 min 33 sec) 
Heartbeat CPU 0 instructions: 133000000 cycles: 140018587 heartbeat IPC: 0.724109 cumulative IPC: 0.724948 (Simulation time: 1 hr 36 min 2 sec) 
Heartbeat CPU 0 instructions: 134000000 cycles: 141409581 heartbeat IPC: 0.71891 cumulative IPC: 0.724876 (Simulation time: 1 hr 36 min 31 sec) 
Heartbeat CPU 0 instructions: 135000001 cycles: 142787737 heartbeat IPC: 0.725608 cumulative IPC: 0.724884 (Simulation time: 1 hr 37 min 1 sec) 
Heartbeat CPU 0 instructions: 136000000 cycles: 144170958 heartbeat IPC: 0.72295 cumulative IPC: 0.724862 (Simulation time: 1 hr 37 min 28 sec) 
Heartbeat CPU 0 instructions: 137000000 cycles: 145564289 heartbeat IPC: 0.717705 cumulative IPC: 0.724779 (Simulation time: 1 hr 37 min 55 sec) 
Heartbeat CPU 0 instructions: 138000000 cycles: 146949287 heartbeat IPC: 0.722023 cumulative IPC: 0.724747 (Simulation time: 1 hr 38 min 22 sec) 
Heartbeat CPU 0 instructions: 139000000 cycles: 148333895 heartbeat IPC: 0.722226 cumulative IPC: 0.724719 (Simulation time: 1 hr 38 min 50 sec) 
Heartbeat CPU 0 instructions: 140000000 cycles: 149714767 heartbeat IPC: 0.72418 cumulative IPC: 0.724713 (Simulation time: 1 hr 39 min 15 sec) 
Heartbeat CPU 0 instructions: 141000003 cycles: 151105798 heartbeat IPC: 0.718893 cumulative IPC: 0.724648 (Simulation time: 1 hr 39 min 38 sec) 
Heartbeat CPU 0 instructions: 142000002 cycles: 152480953 heartbeat IPC: 0.72719 cumulative IPC: 0.724676 (Simulation time: 1 hr 39 min 58 sec) 
Heartbeat CPU 0 instructions: 143000001 cycles: 153856696 heartbeat IPC: 0.726879 cumulative IPC: 0.724699 (Simulation time: 1 hr 40 min 19 sec) 
Heartbeat CPU 0 instructions: 144000000 cycles: 155232020 heartbeat IPC: 0.727101 cumulative IPC: 0.724725 (Simulation time: 1 hr 40 min 39 sec) 
Heartbeat CPU 0 instructions: 145000001 cycles: 156595992 heartbeat IPC: 0.733154 cumulative IPC: 0.724813 (Simulation time: 1 hr 40 min 58 sec) 
Heartbeat CPU 0 instructions: 146000001 cycles: 157965701 heartbeat IPC: 0.730082 cumulative IPC: 0.724867 (Simulation time: 1 hr 41 min 17 sec) 
Heartbeat CPU 0 instructions: 147000001 cycles: 159348121 heartbeat IPC: 0.723369 cumulative IPC: 0.724852 (Simulation time: 1 hr 41 min 36 sec) 
Heartbeat CPU 0 instructions: 148000000 cycles: 160717550 heartbeat IPC: 0.730231 cumulative IPC: 0.724906 (Simulation time: 1 hr 41 min 53 sec) 
Heartbeat CPU 0 instructions: 149000000 cycles: 162097002 heartbeat IPC: 0.724926 cumulative IPC: 0.724906 (Simulation time: 1 hr 42 min 10 sec) 
Heartbeat CPU 0 instructions: 150000001 cycles: 163458195 heartbeat IPC: 0.73465 cumulative IPC: 0.725002 (Simulation time: 1 hr 42 min 24 sec) 
Finished CPU 0 instructions: 100000000 cycles: 137930563 cummulative IPC: 0.725002 (Simulation time: 1 hr 42 min 24 sec) 

ChampSim completed all CPUs

Region of Interest Statistics

CPU 0 cummulative IPC: 0.725002 instructions: 100000000 cycles: 137930563
LLC TOTAL     ACCESS:      43227  HIT:       6022  MISS:      37205
LLC LOAD      ACCESS:      13845  HIT:        497  MISS:      13348
LLC RFO       ACCESS:       3359  HIT:          7  MISS:       3352
LLC PREFETCH  ACCESS:      17995  HIT:        611  MISS:      17384
LLC WRITEBACK ACCESS:       8028  HIT:       4907  MISS:       3121
OPTgen accesses: 197
OPTgen hits: 8
OPTgen hit rate: 4.06091


