
*** ChampSim Multicore Out-of-Order Simulator ***

Warmup Instructions: 50000000
Simulation Instructions: 100000000
Configuration: 2
Number of CPUs: 1
LLC sets: 2048
LLC ways: 16
Off-chip DRAM Channels: 1 Width: 64-bit Data Rate: 1600 MT/s

CPU 0 runs /datasets/cs240c-wi22-a00-public/data/Assignment2-gz/lbm_94B.trace.gz
CPU 0 L1D next line prefetcher
CPU 0 L2C IP-based stride prefetcher
Initialize Hawkeye state
Heartbeat CPU 0 instructions: 1000000 cycles: 422068 heartbeat IPC: 2.36929 cumulative IPC: 2.36929 (Simulation time: 0 hr 0 min 47 sec) 
Heartbeat CPU 0 instructions: 2000000 cycles: 812399 heartbeat IPC: 2.56193 cumulative IPC: 2.46184 (Simulation time: 0 hr 1 min 36 sec) 
Heartbeat CPU 0 instructions: 3000000 cycles: 1211539 heartbeat IPC: 2.50539 cumulative IPC: 2.47619 (Simulation time: 0 hr 2 min 29 sec) 
Heartbeat CPU 0 instructions: 4000000 cycles: 1631529 heartbeat IPC: 2.38101 cumulative IPC: 2.45169 (Simulation time: 0 hr 3 min 23 sec) 
Heartbeat CPU 0 instructions: 5000001 cycles: 2021780 heartbeat IPC: 2.56246 cumulative IPC: 2.47307 (Simulation time: 0 hr 4 min 13 sec) 
Heartbeat CPU 0 instructions: 6000000 cycles: 2422455 heartbeat IPC: 2.49579 cumulative IPC: 2.47683 (Simulation time: 0 hr 5 min 4 sec) 
Heartbeat CPU 0 instructions: 7000001 cycles: 2840596 heartbeat IPC: 2.39154 cumulative IPC: 2.46427 (Simulation time: 0 hr 5 min 56 sec) 
Heartbeat CPU 0 instructions: 8000000 cycles: 3230809 heartbeat IPC: 2.5627 cumulative IPC: 2.47616 (Simulation time: 0 hr 6 min 48 sec) 
Heartbeat CPU 0 instructions: 9000003 cycles: 3631843 heartbeat IPC: 2.49356 cumulative IPC: 2.47808 (Simulation time: 0 hr 7 min 44 sec) 
Heartbeat CPU 0 instructions: 10000000 cycles: 4048419 heartbeat IPC: 2.40052 cumulative IPC: 2.4701 (Simulation time: 0 hr 8 min 37 sec) 
Heartbeat CPU 0 instructions: 11000003 cycles: 4438622 heartbeat IPC: 2.56278 cumulative IPC: 2.47825 (Simulation time: 0 hr 9 min 32 sec) 
Heartbeat CPU 0 instructions: 12000000 cycles: 4839170 heartbeat IPC: 2.49657 cumulative IPC: 2.47976 (Simulation time: 0 hr 10 min 25 sec) 
Heartbeat CPU 0 instructions: 13000000 cycles: 5254560 heartbeat IPC: 2.40738 cumulative IPC: 2.47404 (Simulation time: 0 hr 11 min 23 sec) 
Heartbeat CPU 0 instructions: 14000003 cycles: 5644820 heartbeat IPC: 2.5624 cumulative IPC: 2.48015 (Simulation time: 0 hr 12 min 16 sec) 
Heartbeat CPU 0 instructions: 15000001 cycles: 6045195 heartbeat IPC: 2.49765 cumulative IPC: 2.48131 (Simulation time: 0 hr 13 min 8 sec) 
Heartbeat CPU 0 instructions: 16000000 cycles: 6459592 heartbeat IPC: 2.41314 cumulative IPC: 2.47694 (Simulation time: 0 hr 14 min 1 sec) 
Heartbeat CPU 0 instructions: 17000001 cycles: 6849852 heartbeat IPC: 2.5624 cumulative IPC: 2.48181 (Simulation time: 0 hr 14 min 43 sec) 
Heartbeat CPU 0 instructions: 18000001 cycles: 7248711 heartbeat IPC: 2.50715 cumulative IPC: 2.4832 (Simulation time: 0 hr 15 min 32 sec) 
Heartbeat CPU 0 instructions: 19000000 cycles: 7663246 heartbeat IPC: 2.41234 cumulative IPC: 2.47937 (Simulation time: 0 hr 16 min 28 sec) 
Heartbeat CPU 0 instructions: 20000000 cycles: 8053510 heartbeat IPC: 2.56237 cumulative IPC: 2.48339 (Simulation time: 0 hr 17 min 17 sec) 
Heartbeat CPU 0 instructions: 21000003 cycles: 8451588 heartbeat IPC: 2.51208 cumulative IPC: 2.48474 (Simulation time: 0 hr 18 min 9 sec) 
Heartbeat CPU 0 instructions: 22000000 cycles: 8865764 heartbeat IPC: 2.41443 cumulative IPC: 2.48146 (Simulation time: 0 hr 19 min 6 sec) 
Heartbeat CPU 0 instructions: 23000000 cycles: 9255950 heartbeat IPC: 2.56288 cumulative IPC: 2.48489 (Simulation time: 0 hr 19 min 56 sec) 
Heartbeat CPU 0 instructions: 24000000 cycles: 9652037 heartbeat IPC: 2.5247 cumulative IPC: 2.48652 (Simulation time: 0 hr 20 min 47 sec) 
Heartbeat CPU 0 instructions: 25000000 cycles: 10065698 heartbeat IPC: 2.41744 cumulative IPC: 2.48368 (Simulation time: 0 hr 21 min 46 sec) 
Heartbeat CPU 0 instructions: 26000003 cycles: 10455948 heartbeat IPC: 2.56247 cumulative IPC: 2.48662 (Simulation time: 0 hr 22 min 39 sec) 
Heartbeat CPU 0 instructions: 27000002 cycles: 10851009 heartbeat IPC: 2.53125 cumulative IPC: 2.48825 (Simulation time: 0 hr 23 min 29 sec) 
Heartbeat CPU 0 instructions: 28000000 cycles: 11264452 heartbeat IPC: 2.41871 cumulative IPC: 2.4857 (Simulation time: 0 hr 24 min 28 sec) 
Heartbeat CPU 0 instructions: 29000000 cycles: 11654635 heartbeat IPC: 2.5629 cumulative IPC: 2.48828 (Simulation time: 0 hr 25 min 17 sec) 
Heartbeat CPU 0 instructions: 30000000 cycles: 12049665 heartbeat IPC: 2.53145 cumulative IPC: 2.4897 (Simulation time: 0 hr 26 min 8 sec) 
Heartbeat CPU 0 instructions: 31000003 cycles: 12460597 heartbeat IPC: 2.4335 cumulative IPC: 2.48784 (Simulation time: 0 hr 27 min 4 sec) 
Heartbeat CPU 0 instructions: 32000000 cycles: 12850872 heartbeat IPC: 2.56229 cumulative IPC: 2.4901 (Simulation time: 0 hr 28 min 1 sec) 
Heartbeat CPU 0 instructions: 33000002 cycles: 13245991 heartbeat IPC: 2.53089 cumulative IPC: 2.49132 (Simulation time: 0 hr 28 min 50 sec) 
Heartbeat CPU 0 instructions: 34000003 cycles: 13653519 heartbeat IPC: 2.45382 cumulative IPC: 2.4902 (Simulation time: 0 hr 29 min 36 sec) 
Heartbeat CPU 0 instructions: 35000002 cycles: 14045154 heartbeat IPC: 2.5534 cumulative IPC: 2.49196 (Simulation time: 0 hr 30 min 14 sec) 
Heartbeat CPU 0 instructions: 36000000 cycles: 14440163 heartbeat IPC: 2.53158 cumulative IPC: 2.49305 (Simulation time: 0 hr 30 min 50 sec) 
Heartbeat CPU 0 instructions: 37000003 cycles: 14842375 heartbeat IPC: 2.48626 cumulative IPC: 2.49286 (Simulation time: 0 hr 31 min 27 sec) 
Heartbeat CPU 0 instructions: 38000002 cycles: 15236895 heartbeat IPC: 2.53472 cumulative IPC: 2.49395 (Simulation time: 0 hr 32 min 3 sec) 
Heartbeat CPU 0 instructions: 39000000 cycles: 15627105 heartbeat IPC: 2.56272 cumulative IPC: 2.49566 (Simulation time: 0 hr 32 min 39 sec) 
Heartbeat CPU 0 instructions: 40000000 cycles: 16027426 heartbeat IPC: 2.498 cumulative IPC: 2.49572 (Simulation time: 0 hr 33 min 17 sec) 
Heartbeat CPU 0 instructions: 41000003 cycles: 16426098 heartbeat IPC: 2.50834 cumulative IPC: 2.49603 (Simulation time: 0 hr 33 min 53 sec) 
Heartbeat CPU 0 instructions: 42000003 cycles: 16816359 heartbeat IPC: 2.56239 cumulative IPC: 2.49757 (Simulation time: 0 hr 34 min 31 sec) 
Heartbeat CPU 0 instructions: 43000003 cycles: 17211642 heartbeat IPC: 2.52983 cumulative IPC: 2.49831 (Simulation time: 0 hr 35 min 5 sec) 
Heartbeat CPU 0 instructions: 44000000 cycles: 17612622 heartbeat IPC: 2.49388 cumulative IPC: 2.49821 (Simulation time: 0 hr 35 min 40 sec) 
Heartbeat CPU 0 instructions: 45000002 cycles: 18002874 heartbeat IPC: 2.56245 cumulative IPC: 2.4996 (Simulation time: 0 hr 36 min 15 sec) 
Heartbeat CPU 0 instructions: 46000001 cycles: 18398024 heartbeat IPC: 2.53068 cumulative IPC: 2.50027 (Simulation time: 0 hr 36 min 52 sec) 
Heartbeat CPU 0 instructions: 47000003 cycles: 18796419 heartbeat IPC: 2.51008 cumulative IPC: 2.50048 (Simulation time: 0 hr 37 min 30 sec) 
Heartbeat CPU 0 instructions: 48000000 cycles: 19186561 heartbeat IPC: 2.56316 cumulative IPC: 2.50175 (Simulation time: 0 hr 38 min 5 sec) 
Heartbeat CPU 0 instructions: 49000000 cycles: 19581638 heartbeat IPC: 2.53115 cumulative IPC: 2.50234 (Simulation time: 0 hr 38 min 41 sec) 
Heartbeat CPU 0 instructions: 50000003 cycles: 19975945 heartbeat IPC: 2.5361 cumulative IPC: 2.50301 (Simulation time: 0 hr 39 min 17 sec) 

Warmup complete CPU 0 instructions: 50000003 cycles: 19975945 (Simulation time: 0 hr 39 min 17 sec) 

Heartbeat CPU 0 instructions: 51000003 cycles: 21432224 heartbeat IPC: 0.686682 cumulative IPC: 0.686682 (Simulation time: 0 hr 39 min 59 sec) 
Heartbeat CPU 0 instructions: 52000000 cycles: 22910869 heartbeat IPC: 0.676293 cumulative IPC: 0.681448 (Simulation time: 0 hr 40 min 41 sec) 
Heartbeat CPU 0 instructions: 53000001 cycles: 24443975 heartbeat IPC: 0.652271 cumulative IPC: 0.671436 (Simulation time: 0 hr 41 min 25 sec) 
Heartbeat CPU 0 instructions: 54000000 cycles: 25880730 heartbeat IPC: 0.696012 cumulative IPC: 0.677416 (Simulation time: 0 hr 42 min 8 sec) 
Heartbeat CPU 0 instructions: 55000003 cycles: 27265428 heartbeat IPC: 0.722181 cumulative IPC: 0.68592 (Simulation time: 0 hr 42 min 50 sec) 
Heartbeat CPU 0 instructions: 56000000 cycles: 28752242 heartbeat IPC: 0.672577 cumulative IPC: 0.683659 (Simulation time: 0 hr 43 min 31 sec) 
Heartbeat CPU 0 instructions: 57000003 cycles: 30192405 heartbeat IPC: 0.694368 cumulative IPC: 0.685169 (Simulation time: 0 hr 44 min 15 sec) 
Heartbeat CPU 0 instructions: 58000003 cycles: 31613173 heartbeat IPC: 0.703845 cumulative IPC: 0.687449 (Simulation time: 0 hr 44 min 58 sec) 
Heartbeat CPU 0 instructions: 59000002 cycles: 33036377 heartbeat IPC: 0.702639 cumulative IPC: 0.689104 (Simulation time: 0 hr 45 min 39 sec) 
Heartbeat CPU 0 instructions: 60000000 cycles: 34457319 heartbeat IPC: 0.703757 cumulative IPC: 0.690542 (Simulation time: 0 hr 46 min 19 sec) 
Heartbeat CPU 0 instructions: 61000000 cycles: 35887613 heartbeat IPC: 0.699157 cumulative IPC: 0.691316 (Simulation time: 0 hr 46 min 59 sec) 
Heartbeat CPU 0 instructions: 62000000 cycles: 37328669 heartbeat IPC: 0.693936 cumulative IPC: 0.691534 (Simulation time: 0 hr 47 min 40 sec) 
Heartbeat CPU 0 instructions: 63000003 cycles: 38800309 heartbeat IPC: 0.679516 cumulative IPC: 0.690594 (Simulation time: 0 hr 48 min 20 sec) 
Heartbeat CPU 0 instructions: 64000000 cycles: 40203863 heartbeat IPC: 0.712475 cumulative IPC: 0.692113 (Simulation time: 0 hr 49 min 3 sec) 
Heartbeat CPU 0 instructions: 65000003 cycles: 41609695 heartbeat IPC: 0.711325 cumulative IPC: 0.693361 (Simulation time: 0 hr 49 min 45 sec) 
Heartbeat CPU 0 instructions: 66000002 cycles: 43094626 heartbeat IPC: 0.673431 cumulative IPC: 0.692081 (Simulation time: 0 hr 50 min 29 sec) 
Heartbeat CPU 0 instructions: 67000002 cycles: 44534656 heartbeat IPC: 0.69443 cumulative IPC: 0.692219 (Simulation time: 0 hr 51 min 12 sec) 
Heartbeat CPU 0 instructions: 68000000 cycles: 45943087 heartbeat IPC: 0.710009 cumulative IPC: 0.693184 (Simulation time: 0 hr 51 min 54 sec) 
Heartbeat CPU 0 instructions: 69000000 cycles: 47378353 heartbeat IPC: 0.696735 cumulative IPC: 0.69337 (Simulation time: 0 hr 52 min 36 sec) 
Heartbeat CPU 0 instructions: 70000001 cycles: 48797388 heartbeat IPC: 0.704705 cumulative IPC: 0.693928 (Simulation time: 0 hr 53 min 21 sec) 
Heartbeat CPU 0 instructions: 71000001 cycles: 50189614 heartbeat IPC: 0.718274 cumulative IPC: 0.69505 (Simulation time: 0 hr 54 min 4 sec) 
Heartbeat CPU 0 instructions: 72000000 cycles: 51565585 heartbeat IPC: 0.726759 cumulative IPC: 0.696431 (Simulation time: 0 hr 54 min 47 sec) 
Heartbeat CPU 0 instructions: 73000001 cycles: 53055822 heartbeat IPC: 0.671035 cumulative IPC: 0.695287 (Simulation time: 0 hr 55 min 32 sec) 
Heartbeat CPU 0 instructions: 74000001 cycles: 54507907 heartbeat IPC: 0.688665 cumulative IPC: 0.695008 (Simulation time: 0 hr 56 min 16 sec) 
Heartbeat CPU 0 instructions: 75000000 cycles: 55911830 heartbeat IPC: 0.712289 cumulative IPC: 0.695683 (Simulation time: 0 hr 57 min 0 sec) 
Heartbeat CPU 0 instructions: 76000000 cycles: 57333449 heartbeat IPC: 0.703423 cumulative IPC: 0.695978 (Simulation time: 0 hr 57 min 43 sec) 
Heartbeat CPU 0 instructions: 77000002 cycles: 58710085 heartbeat IPC: 0.72641 cumulative IPC: 0.697059 (Simulation time: 0 hr 58 min 24 sec) 
Heartbeat CPU 0 instructions: 78000003 cycles: 60140292 heartbeat IPC: 0.6992 cumulative IPC: 0.697136 (Simulation time: 0 hr 59 min 5 sec) 
Heartbeat CPU 0 instructions: 79000000 cycles: 61572825 heartbeat IPC: 0.698062 cumulative IPC: 0.697168 (Simulation time: 0 hr 59 min 47 sec) 
Heartbeat CPU 0 instructions: 80000000 cycles: 63063568 heartbeat IPC: 0.670806 cumulative IPC: 0.696256 (Simulation time: 1 hr 0 min 29 sec) 
Heartbeat CPU 0 instructions: 81000000 cycles: 64505343 heartbeat IPC: 0.69359 cumulative IPC: 0.696169 (Simulation time: 1 hr 1 min 10 sec) 
Heartbeat CPU 0 instructions: 82000000 cycles: 65957059 heartbeat IPC: 0.68884 cumulative IPC: 0.695938 (Simulation time: 1 hr 1 min 55 sec) 
Heartbeat CPU 0 instructions: 83000003 cycles: 67448420 heartbeat IPC: 0.67053 cumulative IPC: 0.69514 (Simulation time: 1 hr 2 min 41 sec) 
Heartbeat CPU 0 instructions: 84000000 cycles: 68847059 heartbeat IPC: 0.714979 cumulative IPC: 0.695707 (Simulation time: 1 hr 3 min 23 sec) 
Heartbeat CPU 0 instructions: 85000001 cycles: 70242807 heartbeat IPC: 0.716462 cumulative IPC: 0.696284 (Simulation time: 1 hr 4 min 7 sec) 
Heartbeat CPU 0 instructions: 86000003 cycles: 71680533 heartbeat IPC: 0.695544 cumulative IPC: 0.696263 (Simulation time: 1 hr 4 min 48 sec) 
Heartbeat CPU 0 instructions: 87000000 cycles: 73055170 heartbeat IPC: 0.727463 cumulative IPC: 0.697071 (Simulation time: 1 hr 5 min 27 sec) 
Heartbeat CPU 0 instructions: 88000000 cycles: 74423701 heartbeat IPC: 0.730711 cumulative IPC: 0.697917 (Simulation time: 1 hr 6 min 8 sec) 
Heartbeat CPU 0 instructions: 89000003 cycles: 75848232 heartbeat IPC: 0.701988 cumulative IPC: 0.69802 (Simulation time: 1 hr 6 min 50 sec) 
Heartbeat CPU 0 instructions: 90000003 cycles: 77334020 heartbeat IPC: 0.673044 cumulative IPC: 0.697373 (Simulation time: 1 hr 7 min 32 sec) 
Heartbeat CPU 0 instructions: 91000002 cycles: 78751535 heartbeat IPC: 0.705459 cumulative IPC: 0.697568 (Simulation time: 1 hr 8 min 14 sec) 
Heartbeat CPU 0 instructions: 92000000 cycles: 80162318 heartbeat IPC: 0.708825 cumulative IPC: 0.697832 (Simulation time: 1 hr 8 min 58 sec) 
Heartbeat CPU 0 instructions: 93000003 cycles: 81593897 heartbeat IPC: 0.698532 cumulative IPC: 0.697849 (Simulation time: 1 hr 9 min 41 sec) 
Heartbeat CPU 0 instructions: 94000001 cycles: 82987162 heartbeat IPC: 0.717737 cumulative IPC: 0.698288 (Simulation time: 1 hr 10 min 24 sec) 
Heartbeat CPU 0 instructions: 95000001 cycles: 84390643 heartbeat IPC: 0.712514 cumulative IPC: 0.698598 (Simulation time: 1 hr 11 min 5 sec) 
Heartbeat CPU 0 instructions: 96000000 cycles: 85786339 heartbeat IPC: 0.716488 cumulative IPC: 0.698978 (Simulation time: 1 hr 11 min 46 sec) 
Heartbeat CPU 0 instructions: 97000000 cycles: 87292965 heartbeat IPC: 0.663735 cumulative IPC: 0.698189 (Simulation time: 1 hr 12 min 28 sec) 
Heartbeat CPU 0 instructions: 98000002 cycles: 88718647 heartbeat IPC: 0.70142 cumulative IPC: 0.698256 (Simulation time: 1 hr 13 min 11 sec) 
Heartbeat CPU 0 instructions: 99000001 cycles: 90149681 heartbeat IPC: 0.698795 cumulative IPC: 0.698267 (Simulation time: 1 hr 13 min 52 sec) 
Heartbeat CPU 0 instructions: 100000000 cycles: 91618826 heartbeat IPC: 0.680667 cumulative IPC: 0.697906 (Simulation time: 1 hr 14 min 33 sec) 
Heartbeat CPU 0 instructions: 101000003 cycles: 93024747 heartbeat IPC: 0.71128 cumulative IPC: 0.698163 (Simulation time: 1 hr 15 min 11 sec) 
Heartbeat CPU 0 instructions: 102000002 cycles: 94436716 heartbeat IPC: 0.70823 cumulative IPC: 0.698354 (Simulation time: 1 hr 15 min 53 sec) 
Heartbeat CPU 0 instructions: 103000000 cycles: 95896553 heartbeat IPC: 0.685007 cumulative IPC: 0.698098 (Simulation time: 1 hr 16 min 36 sec) 
Heartbeat CPU 0 instructions: 104000000 cycles: 97324231 heartbeat IPC: 0.700438 cumulative IPC: 0.698141 (Simulation time: 1 hr 17 min 20 sec) 
Heartbeat CPU 0 instructions: 105000002 cycles: 98774945 heartbeat IPC: 0.689317 cumulative IPC: 0.697978 (Simulation time: 1 hr 18 min 2 sec) 
Heartbeat CPU 0 instructions: 106000001 cycles: 100166143 heartbeat IPC: 0.718804 cumulative IPC: 0.69834 (Simulation time: 1 hr 18 min 44 sec) 
Heartbeat CPU 0 instructions: 107000000 cycles: 101585566 heartbeat IPC: 0.704511 cumulative IPC: 0.698447 (Simulation time: 1 hr 19 min 26 sec) 
Heartbeat CPU 0 instructions: 108000000 cycles: 103032618 heartbeat IPC: 0.69106 cumulative IPC: 0.698318 (Simulation time: 1 hr 20 min 9 sec) 
Heartbeat CPU 0 instructions: 109000002 cycles: 104491801 heartbeat IPC: 0.685316 cumulative IPC: 0.698094 (Simulation time: 1 hr 20 min 48 sec) 
Heartbeat CPU 0 instructions: 110000000 cycles: 105983590 heartbeat IPC: 0.670335 cumulative IPC: 0.697612 (Simulation time: 1 hr 21 min 25 sec) 
Heartbeat CPU 0 instructions: 111000003 cycles: 107373348 heartbeat IPC: 0.719552 cumulative IPC: 0.697961 (Simulation time: 1 hr 22 min 2 sec) 
Heartbeat CPU 0 instructions: 112000000 cycles: 108766668 heartbeat IPC: 0.717708 cumulative IPC: 0.698271 (Simulation time: 1 hr 22 min 42 sec) 
Heartbeat CPU 0 instructions: 113000001 cycles: 110195974 heartbeat IPC: 0.699641 cumulative IPC: 0.698293 (Simulation time: 1 hr 23 min 20 sec) 
Heartbeat CPU 0 instructions: 114000003 cycles: 111576878 heartbeat IPC: 0.724165 cumulative IPC: 0.698683 (Simulation time: 1 hr 23 min 57 sec) 
Heartbeat CPU 0 instructions: 115000003 cycles: 112987568 heartbeat IPC: 0.708873 cumulative IPC: 0.698837 (Simulation time: 1 hr 24 min 37 sec) 
Heartbeat CPU 0 instructions: 116000000 cycles: 114362547 heartbeat IPC: 0.727282 cumulative IPC: 0.699252 (Simulation time: 1 hr 25 min 14 sec) 
Heartbeat CPU 0 instructions: 117000003 cycles: 115827062 heartbeat IPC: 0.682822 cumulative IPC: 0.699001 (Simulation time: 1 hr 25 min 48 sec) 
Heartbeat CPU 0 instructions: 118000003 cycles: 117244482 heartbeat IPC: 0.705507 cumulative IPC: 0.699096 (Simulation time: 1 hr 26 min 23 sec) 
Heartbeat CPU 0 instructions: 119000000 cycles: 118690206 heartbeat IPC: 0.691693 cumulative IPC: 0.698987 (Simulation time: 1 hr 26 min 56 sec) 
Heartbeat CPU 0 instructions: 120000000 cycles: 120139026 heartbeat IPC: 0.690217 cumulative IPC: 0.69886 (Simulation time: 1 hr 27 min 29 sec) 
Heartbeat CPU 0 instructions: 121000002 cycles: 121520255 heartbeat IPC: 0.723994 cumulative IPC: 0.699202 (Simulation time: 1 hr 27 min 59 sec) 
Heartbeat CPU 0 instructions: 122000003 cycles: 122921849 heartbeat IPC: 0.713474 cumulative IPC: 0.699396 (Simulation time: 1 hr 28 min 29 sec) 
Heartbeat CPU 0 instructions: 123000002 cycles: 124353456 heartbeat IPC: 0.698515 cumulative IPC: 0.699384 (Simulation time: 1 hr 28 min 57 sec) 
Heartbeat CPU 0 instructions: 124000000 cycles: 125805646 heartbeat IPC: 0.688614 cumulative IPC: 0.699237 (Simulation time: 1 hr 29 min 26 sec) 
Heartbeat CPU 0 instructions: 125000001 cycles: 127215130 heartbeat IPC: 0.70948 cumulative IPC: 0.699371 (Simulation time: 1 hr 29 min 53 sec) 
Heartbeat CPU 0 instructions: 126000003 cycles: 128620011 heartbeat IPC: 0.711805 cumulative IPC: 0.699532 (Simulation time: 1 hr 30 min 22 sec) 
Heartbeat CPU 0 instructions: 127000002 cycles: 130104530 heartbeat IPC: 0.673618 cumulative IPC: 0.699183 (Simulation time: 1 hr 30 min 49 sec) 
Heartbeat CPU 0 instructions: 128000000 cycles: 131463938 heartbeat IPC: 0.735613 cumulative IPC: 0.699627 (Simulation time: 1 hr 31 min 18 sec) 
Heartbeat CPU 0 instructions: 129000003 cycles: 132777014 heartbeat IPC: 0.761573 cumulative IPC: 0.700348 (Simulation time: 1 hr 31 min 42 sec) 
Heartbeat CPU 0 instructions: 130000000 cycles: 134165362 heartbeat IPC: 0.720278 cumulative IPC: 0.70059 (Simulation time: 1 hr 32 min 6 sec) 
Heartbeat CPU 0 instructions: 131000001 cycles: 135573686 heartbeat IPC: 0.710065 cumulative IPC: 0.700706 (Simulation time: 1 hr 32 min 31 sec) 
Heartbeat CPU 0 instructions: 132000000 cycles: 137018176 heartbeat IPC: 0.692285 cumulative IPC: 0.700602 (Simulation time: 1 hr 32 min 56 sec) 
Heartbeat CPU 0 instructions: 133000003 cycles: 138428868 heartbeat IPC: 0.708874 cumulative IPC: 0.7007 (Simulation time: 1 hr 33 min 19 sec) 
Heartbeat CPU 0 instructions: 134000001 cycles: 139947334 heartbeat IPC: 0.658558 cumulative IPC: 0.700167 (Simulation time: 1 hr 33 min 43 sec) 
Heartbeat CPU 0 instructions: 135000000 cycles: 141363780 heartbeat IPC: 0.705992 cumulative IPC: 0.700235 (Simulation time: 1 hr 34 min 7 sec) 
Heartbeat CPU 0 instructions: 136000000 cycles: 142777905 heartbeat IPC: 0.707151 cumulative IPC: 0.700315 (Simulation time: 1 hr 34 min 30 sec) 
Heartbeat CPU 0 instructions: 137000002 cycles: 144245327 heartbeat IPC: 0.681469 cumulative IPC: 0.700092 (Simulation time: 1 hr 34 min 53 sec) 
Heartbeat CPU 0 instructions: 138000001 cycles: 145682179 heartbeat IPC: 0.695965 cumulative IPC: 0.700045 (Simulation time: 1 hr 35 min 14 sec) 
Heartbeat CPU 0 instructions: 139000000 cycles: 147082304 heartbeat IPC: 0.714221 cumulative IPC: 0.700201 (Simulation time: 1 hr 35 min 35 sec) 
Heartbeat CPU 0 instructions: 140000000 cycles: 148504367 heartbeat IPC: 0.703204 cumulative IPC: 0.700234 (Simulation time: 1 hr 35 min 58 sec) 
Heartbeat CPU 0 instructions: 141000001 cycles: 149952146 heartbeat IPC: 0.690714 cumulative IPC: 0.700128 (Simulation time: 1 hr 36 min 20 sec) 
Heartbeat CPU 0 instructions: 142000003 cycles: 151372165 heartbeat IPC: 0.704217 cumulative IPC: 0.700172 (Simulation time: 1 hr 36 min 41 sec) 
Heartbeat CPU 0 instructions: 143000003 cycles: 152850903 heartbeat IPC: 0.676252 cumulative IPC: 0.699906 (Simulation time: 1 hr 37 min 5 sec) 
Heartbeat CPU 0 instructions: 144000000 cycles: 154343900 heartbeat IPC: 0.669792 cumulative IPC: 0.699572 (Simulation time: 1 hr 37 min 29 sec) 
Heartbeat CPU 0 instructions: 145000002 cycles: 155753992 heartbeat IPC: 0.709175 cumulative IPC: 0.699671 (Simulation time: 1 hr 37 min 52 sec) 
Heartbeat CPU 0 instructions: 146000000 cycles: 157171108 heartbeat IPC: 0.705657 cumulative IPC: 0.699733 (Simulation time: 1 hr 38 min 15 sec) 
Heartbeat CPU 0 instructions: 147000000 cycles: 158620385 heartbeat IPC: 0.689999 cumulative IPC: 0.699631 (Simulation time: 1 hr 38 min 38 sec) 
Heartbeat CPU 0 instructions: 148000000 cycles: 160041981 heartbeat IPC: 0.703435 cumulative IPC: 0.69967 (Simulation time: 1 hr 39 min 1 sec) 
Heartbeat CPU 0 instructions: 149000001 cycles: 161437828 heartbeat IPC: 0.716412 cumulative IPC: 0.699835 (Simulation time: 1 hr 39 min 21 sec) 
Heartbeat CPU 0 instructions: 150000003 cycles: 162837779 heartbeat IPC: 0.714312 cumulative IPC: 0.699977 (Simulation time: 1 hr 39 min 40 sec) 
Finished CPU 0 instructions: 100000000 cycles: 142861834 cummulative IPC: 0.699977 (Simulation time: 1 hr 39 min 40 sec) 

ChampSim completed all CPUs

Region of Interest Statistics

CPU 0 cummulative IPC: 0.699977 instructions: 100000000 cycles: 142861834
LLC TOTAL     ACCESS:    5318312  HIT:    1738314  MISS:    3579998
LLC LOAD      ACCESS:     374721  HIT:      16270  MISS:     358451
LLC RFO       ACCESS:    2270800  HIT:     609409  MISS:    1661391
LLC PREFETCH  ACCESS:     402049  HIT:      20722  MISS:     381327
LLC WRITEBACK ACCESS:    2270742  HIT:    1091913  MISS:    1178829
OPTgen accesses: 31970
OPTgen hits: 10419
OPTgen hit rate: 32.5899


