
*** ChampSim Multicore Out-of-Order Simulator ***

Warmup Instructions: 50000000
Simulation Instructions: 100000000
Configuration: 2
Number of CPUs: 1
LLC sets: 2048
LLC ways: 16
Off-chip DRAM Channels: 1 Width: 64-bit Data Rate: 1600 MT/s

CPU 0 runs /datasets/cs240c-wi22-a00-public/data/Assignment2-gz/perlbench_105B.trace.gz
CPU 0 L1D next line prefetcher
CPU 0 L2C IP-based stride prefetcher
Initialize Hawkeye state
Heartbeat CPU 0 instructions: 1000000 cycles: 578016 heartbeat IPC: 1.73006 cumulative IPC: 1.73006 (Simulation time: 0 hr 0 min 45 sec) 
Heartbeat CPU 0 instructions: 2000001 cycles: 1164321 heartbeat IPC: 1.7056 cumulative IPC: 1.71774 (Simulation time: 0 hr 1 min 26 sec) 
Heartbeat CPU 0 instructions: 3000001 cycles: 1726557 heartbeat IPC: 1.77861 cumulative IPC: 1.73756 (Simulation time: 0 hr 2 min 0 sec) 
Heartbeat CPU 0 instructions: 4000000 cycles: 2305993 heartbeat IPC: 1.72581 cumulative IPC: 1.73461 (Simulation time: 0 hr 2 min 39 sec) 
Heartbeat CPU 0 instructions: 5000003 cycles: 2884260 heartbeat IPC: 1.72931 cumulative IPC: 1.73355 (Simulation time: 0 hr 3 min 16 sec) 
Heartbeat CPU 0 instructions: 6000003 cycles: 3447519 heartbeat IPC: 1.77538 cumulative IPC: 1.74038 (Simulation time: 0 hr 3 min 53 sec) 
Heartbeat CPU 0 instructions: 7000000 cycles: 4019987 heartbeat IPC: 1.74682 cumulative IPC: 1.7413 (Simulation time: 0 hr 4 min 33 sec) 
Heartbeat CPU 0 instructions: 8000000 cycles: 4598049 heartbeat IPC: 1.72992 cumulative IPC: 1.73987 (Simulation time: 0 hr 5 min 6 sec) 
Heartbeat CPU 0 instructions: 9000000 cycles: 5176571 heartbeat IPC: 1.72854 cumulative IPC: 1.7386 (Simulation time: 0 hr 5 min 41 sec) 
Heartbeat CPU 0 instructions: 10000002 cycles: 5745489 heartbeat IPC: 1.75773 cumulative IPC: 1.7405 (Simulation time: 0 hr 6 min 15 sec) 
Heartbeat CPU 0 instructions: 11000002 cycles: 6325420 heartbeat IPC: 1.72434 cumulative IPC: 1.73902 (Simulation time: 0 hr 6 min 57 sec) 
Heartbeat CPU 0 instructions: 12000000 cycles: 6904640 heartbeat IPC: 1.72646 cumulative IPC: 1.73796 (Simulation time: 0 hr 7 min 38 sec) 
Heartbeat CPU 0 instructions: 13000000 cycles: 7466406 heartbeat IPC: 1.7801 cumulative IPC: 1.74113 (Simulation time: 0 hr 8 min 17 sec) 
Heartbeat CPU 0 instructions: 14000000 cycles: 8041757 heartbeat IPC: 1.73807 cumulative IPC: 1.74091 (Simulation time: 0 hr 8 min 56 sec) 
Heartbeat CPU 0 instructions: 15000000 cycles: 8620508 heartbeat IPC: 1.72786 cumulative IPC: 1.74004 (Simulation time: 0 hr 9 min 35 sec) 
Heartbeat CPU 0 instructions: 16000000 cycles: 9184059 heartbeat IPC: 1.77446 cumulative IPC: 1.74215 (Simulation time: 0 hr 10 min 14 sec) 
Heartbeat CPU 0 instructions: 17000003 cycles: 9766692 heartbeat IPC: 1.71635 cumulative IPC: 1.74061 (Simulation time: 0 hr 10 min 57 sec) 
Heartbeat CPU 0 instructions: 18000001 cycles: 10370637 heartbeat IPC: 1.65578 cumulative IPC: 1.73567 (Simulation time: 0 hr 11 min 37 sec) 
Heartbeat CPU 0 instructions: 19000000 cycles: 10920618 heartbeat IPC: 1.81824 cumulative IPC: 1.73983 (Simulation time: 0 hr 12 min 29 sec) 
Heartbeat CPU 0 instructions: 20000000 cycles: 11470881 heartbeat IPC: 1.81731 cumulative IPC: 1.74355 (Simulation time: 0 hr 13 min 26 sec) 
Heartbeat CPU 0 instructions: 21000000 cycles: 12021676 heartbeat IPC: 1.81556 cumulative IPC: 1.74684 (Simulation time: 0 hr 14 min 7 sec) 
Heartbeat CPU 0 instructions: 22000001 cycles: 12572889 heartbeat IPC: 1.81418 cumulative IPC: 1.7498 (Simulation time: 0 hr 14 min 53 sec) 
Heartbeat CPU 0 instructions: 23000000 cycles: 13124776 heartbeat IPC: 1.81196 cumulative IPC: 1.75241 (Simulation time: 0 hr 15 min 50 sec) 
Heartbeat CPU 0 instructions: 24000000 cycles: 13678280 heartbeat IPC: 1.80667 cumulative IPC: 1.75461 (Simulation time: 0 hr 16 min 35 sec) 
Heartbeat CPU 0 instructions: 25000001 cycles: 14234470 heartbeat IPC: 1.79795 cumulative IPC: 1.7563 (Simulation time: 0 hr 17 min 25 sec) 
Heartbeat CPU 0 instructions: 26000001 cycles: 14838190 heartbeat IPC: 1.6564 cumulative IPC: 1.75224 (Simulation time: 0 hr 18 min 17 sec) 
Heartbeat CPU 0 instructions: 27000003 cycles: 15391842 heartbeat IPC: 1.80619 cumulative IPC: 1.75418 (Simulation time: 0 hr 19 min 8 sec) 
Heartbeat CPU 0 instructions: 28000000 cycles: 15942079 heartbeat IPC: 1.81739 cumulative IPC: 1.75636 (Simulation time: 0 hr 20 min 5 sec) 
Heartbeat CPU 0 instructions: 29000001 cycles: 16492470 heartbeat IPC: 1.81689 cumulative IPC: 1.75838 (Simulation time: 0 hr 21 min 4 sec) 
Heartbeat CPU 0 instructions: 30000001 cycles: 17043379 heartbeat IPC: 1.81518 cumulative IPC: 1.76021 (Simulation time: 0 hr 22 min 1 sec) 
Heartbeat CPU 0 instructions: 31000000 cycles: 17595215 heartbeat IPC: 1.81213 cumulative IPC: 1.76184 (Simulation time: 0 hr 22 min 53 sec) 
Heartbeat CPU 0 instructions: 32000000 cycles: 18147816 heartbeat IPC: 1.80962 cumulative IPC: 1.7633 (Simulation time: 0 hr 23 min 50 sec) 
Heartbeat CPU 0 instructions: 33000001 cycles: 18703042 heartbeat IPC: 1.80107 cumulative IPC: 1.76442 (Simulation time: 0 hr 24 min 37 sec) 
Heartbeat CPU 0 instructions: 34000002 cycles: 19267468 heartbeat IPC: 1.77171 cumulative IPC: 1.76463 (Simulation time: 0 hr 25 min 32 sec) 
Heartbeat CPU 0 instructions: 35000002 cycles: 19833113 heartbeat IPC: 1.76789 cumulative IPC: 1.76473 (Simulation time: 0 hr 26 min 23 sec) 
Heartbeat CPU 0 instructions: 36000000 cycles: 20373357 heartbeat IPC: 1.85101 cumulative IPC: 1.76701 (Simulation time: 0 hr 27 min 18 sec) 
Heartbeat CPU 0 instructions: 37000001 cycles: 21094634 heartbeat IPC: 1.38643 cumulative IPC: 1.754 (Simulation time: 0 hr 28 min 22 sec) 
Heartbeat CPU 0 instructions: 38000000 cycles: 21678249 heartbeat IPC: 1.71346 cumulative IPC: 1.75291 (Simulation time: 0 hr 29 min 20 sec) 
Heartbeat CPU 0 instructions: 39000001 cycles: 22326029 heartbeat IPC: 1.54374 cumulative IPC: 1.74684 (Simulation time: 0 hr 30 min 23 sec) 
Heartbeat CPU 0 instructions: 40000000 cycles: 22964990 heartbeat IPC: 1.56504 cumulative IPC: 1.74178 (Simulation time: 0 hr 31 min 27 sec) 
Heartbeat CPU 0 instructions: 41000000 cycles: 23601948 heartbeat IPC: 1.56996 cumulative IPC: 1.73714 (Simulation time: 0 hr 32 min 18 sec) 
Heartbeat CPU 0 instructions: 42000001 cycles: 24240548 heartbeat IPC: 1.56593 cumulative IPC: 1.73263 (Simulation time: 0 hr 33 min 4 sec) 
Heartbeat CPU 0 instructions: 43000000 cycles: 24878454 heartbeat IPC: 1.56763 cumulative IPC: 1.7284 (Simulation time: 0 hr 33 min 51 sec) 
Heartbeat CPU 0 instructions: 44000000 cycles: 25513736 heartbeat IPC: 1.5741 cumulative IPC: 1.72456 (Simulation time: 0 hr 34 min 40 sec) 
Heartbeat CPU 0 instructions: 45000001 cycles: 26155636 heartbeat IPC: 1.55788 cumulative IPC: 1.72047 (Simulation time: 0 hr 35 min 27 sec) 
Heartbeat CPU 0 instructions: 46000002 cycles: 26792892 heartbeat IPC: 1.56923 cumulative IPC: 1.71687 (Simulation time: 0 hr 36 min 11 sec) 
Heartbeat CPU 0 instructions: 47000002 cycles: 27427592 heartbeat IPC: 1.57555 cumulative IPC: 1.7136 (Simulation time: 0 hr 36 min 57 sec) 
Heartbeat CPU 0 instructions: 48000000 cycles: 28061717 heartbeat IPC: 1.57697 cumulative IPC: 1.71052 (Simulation time: 0 hr 37 min 47 sec) 
Heartbeat CPU 0 instructions: 49000001 cycles: 28697107 heartbeat IPC: 1.57384 cumulative IPC: 1.70749 (Simulation time: 0 hr 38 min 36 sec) 
Heartbeat CPU 0 instructions: 50000002 cycles: 29331067 heartbeat IPC: 1.57739 cumulative IPC: 1.70468 (Simulation time: 0 hr 39 min 22 sec) 

Warmup complete CPU 0 instructions: 50000002 cycles: 29331067 (Simulation time: 0 hr 39 min 22 sec) 

Heartbeat CPU 0 instructions: 51000003 cycles: 31940710 heartbeat IPC: 0.383195 cumulative IPC: 0.383195 (Simulation time: 0 hr 40 min 18 sec) 
Heartbeat CPU 0 instructions: 52000000 cycles: 34528858 heartbeat IPC: 0.386376 cumulative IPC: 0.384778 (Simulation time: 0 hr 41 min 7 sec) 
Heartbeat CPU 0 instructions: 53000000 cycles: 37107023 heartbeat IPC: 0.387873 cumulative IPC: 0.385804 (Simulation time: 0 hr 41 min 55 sec) 
Heartbeat CPU 0 instructions: 54000000 cycles: 39723614 heartbeat IPC: 0.382177 cumulative IPC: 0.384891 (Simulation time: 0 hr 42 min 43 sec) 
Heartbeat CPU 0 instructions: 55000003 cycles: 42284739 heartbeat IPC: 0.390455 cumulative IPC: 0.385991 (Simulation time: 0 hr 43 min 35 sec) 
Heartbeat CPU 0 instructions: 56000000 cycles: 44663079 heartbeat IPC: 0.42046 cumulative IPC: 0.391338 (Simulation time: 0 hr 44 min 28 sec) 
Heartbeat CPU 0 instructions: 57000002 cycles: 46938418 heartbeat IPC: 0.439496 cumulative IPC: 0.397561 (Simulation time: 0 hr 45 min 25 sec) 
Heartbeat CPU 0 instructions: 58000001 cycles: 48260034 heartbeat IPC: 0.756649 cumulative IPC: 0.422633 (Simulation time: 0 hr 46 min 5 sec) 
Heartbeat CPU 0 instructions: 59000002 cycles: 50492385 heartbeat IPC: 0.447959 cumulative IPC: 0.425304 (Simulation time: 0 hr 46 min 57 sec) 
Heartbeat CPU 0 instructions: 60000000 cycles: 52841136 heartbeat IPC: 0.425757 cumulative IPC: 0.42535 (Simulation time: 0 hr 47 min 54 sec) 
Heartbeat CPU 0 instructions: 61000002 cycles: 55290626 heartbeat IPC: 0.408249 cumulative IPC: 0.423736 (Simulation time: 0 hr 48 min 52 sec) 
Heartbeat CPU 0 instructions: 62000000 cycles: 57656914 heartbeat IPC: 0.422602 cumulative IPC: 0.423641 (Simulation time: 0 hr 49 min 55 sec) 
Heartbeat CPU 0 instructions: 63000000 cycles: 60019431 heartbeat IPC: 0.423277 cumulative IPC: 0.423613 (Simulation time: 0 hr 50 min 52 sec) 
Heartbeat CPU 0 instructions: 64000000 cycles: 62438925 heartbeat IPC: 0.41331 cumulative IPC: 0.42286 (Simulation time: 0 hr 51 min 52 sec) 
Heartbeat CPU 0 instructions: 65000003 cycles: 64763179 heartbeat IPC: 0.430247 cumulative IPC: 0.423345 (Simulation time: 0 hr 52 min 47 sec) 
Heartbeat CPU 0 instructions: 66000002 cycles: 67106412 heartbeat IPC: 0.42676 cumulative IPC: 0.423557 (Simulation time: 0 hr 53 min 49 sec) 
Heartbeat CPU 0 instructions: 67000001 cycles: 69461812 heartbeat IPC: 0.424556 cumulative IPC: 0.423615 (Simulation time: 0 hr 54 min 51 sec) 
Heartbeat CPU 0 instructions: 68000000 cycles: 71910003 heartbeat IPC: 0.408464 cumulative IPC: 0.422744 (Simulation time: 0 hr 55 min 53 sec) 
Heartbeat CPU 0 instructions: 69000001 cycles: 74262285 heartbeat IPC: 0.42512 cumulative IPC: 0.422869 (Simulation time: 0 hr 56 min 53 sec) 
Heartbeat CPU 0 instructions: 70000000 cycles: 76678123 heartbeat IPC: 0.413935 cumulative IPC: 0.422413 (Simulation time: 0 hr 57 min 50 sec) 
Heartbeat CPU 0 instructions: 71000000 cycles: 79064413 heartbeat IPC: 0.419061 cumulative IPC: 0.422252 (Simulation time: 0 hr 58 min 51 sec) 
Heartbeat CPU 0 instructions: 72000000 cycles: 81393235 heartbeat IPC: 0.429402 cumulative IPC: 0.422572 (Simulation time: 0 hr 59 min 47 sec) 
Heartbeat CPU 0 instructions: 73000000 cycles: 83725918 heartbeat IPC: 0.428691 cumulative IPC: 0.422834 (Simulation time: 1 hr 0 min 47 sec) 
Heartbeat CPU 0 instructions: 74000002 cycles: 86111057 heartbeat IPC: 0.419264 cumulative IPC: 0.422684 (Simulation time: 1 hr 1 min 50 sec) 
Heartbeat CPU 0 instructions: 75000000 cycles: 88534506 heartbeat IPC: 0.412634 cumulative IPC: 0.422273 (Simulation time: 1 hr 2 min 55 sec) 
Heartbeat CPU 0 instructions: 76000000 cycles: 90893788 heartbeat IPC: 0.423858 cumulative IPC: 0.422333 (Simulation time: 1 hr 3 min 58 sec) 
Heartbeat CPU 0 instructions: 77000000 cycles: 93328283 heartbeat IPC: 0.410763 cumulative IPC: 0.421893 (Simulation time: 1 hr 4 min 58 sec) 
Heartbeat CPU 0 instructions: 78000002 cycles: 95693387 heartbeat IPC: 0.422815 cumulative IPC: 0.421926 (Simulation time: 1 hr 5 min 56 sec) 
Heartbeat CPU 0 instructions: 79000001 cycles: 98029869 heartbeat IPC: 0.427993 cumulative IPC: 0.422133 (Simulation time: 1 hr 6 min 59 sec) 
Heartbeat CPU 0 instructions: 80000000 cycles: 100361102 heartbeat IPC: 0.428957 cumulative IPC: 0.422357 (Simulation time: 1 hr 7 min 58 sec) 
Heartbeat CPU 0 instructions: 81000000 cycles: 102784786 heartbeat IPC: 0.412595 cumulative IPC: 0.422034 (Simulation time: 1 hr 8 min 56 sec) 
Heartbeat CPU 0 instructions: 82000000 cycles: 105147824 heartbeat IPC: 0.423184 cumulative IPC: 0.42207 (Simulation time: 1 hr 9 min 57 sec) 
Heartbeat CPU 0 instructions: 83000002 cycles: 107468566 heartbeat IPC: 0.430898 cumulative IPC: 0.422332 (Simulation time: 1 hr 10 min 52 sec) 
Heartbeat CPU 0 instructions: 84000000 cycles: 109891118 heartbeat IPC: 0.412787 cumulative IPC: 0.422045 (Simulation time: 1 hr 11 min 50 sec) 
Heartbeat CPU 0 instructions: 85000000 cycles: 112265486 heartbeat IPC: 0.421165 cumulative IPC: 0.42202 (Simulation time: 1 hr 12 min 47 sec) 
Heartbeat CPU 0 instructions: 86000000 cycles: 114615140 heartbeat IPC: 0.425595 cumulative IPC: 0.422119 (Simulation time: 1 hr 13 min 41 sec) 
Heartbeat CPU 0 instructions: 87000001 cycles: 117061459 heartbeat IPC: 0.408778 cumulative IPC: 0.421747 (Simulation time: 1 hr 14 min 34 sec) 
Heartbeat CPU 0 instructions: 88000000 cycles: 119427113 heartbeat IPC: 0.422716 cumulative IPC: 0.421772 (Simulation time: 1 hr 15 min 26 sec) 
Heartbeat CPU 0 instructions: 89000002 cycles: 121752263 heartbeat IPC: 0.430081 cumulative IPC: 0.421981 (Simulation time: 1 hr 16 min 21 sec) 
Heartbeat CPU 0 instructions: 90000002 cycles: 124115914 heartbeat IPC: 0.423074 cumulative IPC: 0.422008 (Simulation time: 1 hr 17 min 14 sec) 
Heartbeat CPU 0 instructions: 91000003 cycles: 126532477 heartbeat IPC: 0.413811 cumulative IPC: 0.421805 (Simulation time: 1 hr 18 min 8 sec) 
Heartbeat CPU 0 instructions: 92000000 cycles: 128891159 heartbeat IPC: 0.423964 cumulative IPC: 0.421856 (Simulation time: 1 hr 18 min 56 sec) 
Heartbeat CPU 0 instructions: 93000001 cycles: 131237899 heartbeat IPC: 0.426123 cumulative IPC: 0.421954 (Simulation time: 1 hr 19 min 48 sec) 
Heartbeat CPU 0 instructions: 94000002 cycles: 133690361 heartbeat IPC: 0.407754 cumulative IPC: 0.42162 (Simulation time: 1 hr 20 min 40 sec) 
Heartbeat CPU 0 instructions: 95000000 cycles: 136051193 heartbeat IPC: 0.423579 cumulative IPC: 0.421664 (Simulation time: 1 hr 21 min 32 sec) 
Heartbeat CPU 0 instructions: 96000000 cycles: 138374484 heartbeat IPC: 0.430424 cumulative IPC: 0.42185 (Simulation time: 1 hr 22 min 22 sec) 
Heartbeat CPU 0 instructions: 97000000 cycles: 140761315 heartbeat IPC: 0.418966 cumulative IPC: 0.421789 (Simulation time: 1 hr 23 min 14 sec) 
Heartbeat CPU 0 instructions: 98000001 cycles: 143161328 heartbeat IPC: 0.416665 cumulative IPC: 0.42168 (Simulation time: 1 hr 24 min 8 sec) 
Heartbeat CPU 0 instructions: 99000002 cycles: 145519917 heartbeat IPC: 0.423983 cumulative IPC: 0.421727 (Simulation time: 1 hr 24 min 56 sec) 
Heartbeat CPU 0 instructions: 100000000 cycles: 147871943 heartbeat IPC: 0.425165 cumulative IPC: 0.421795 (Simulation time: 1 hr 25 min 42 sec) 
Heartbeat CPU 0 instructions: 101000000 cycles: 150287503 heartbeat IPC: 0.413983 cumulative IPC: 0.421639 (Simulation time: 1 hr 26 min 27 sec) 
Heartbeat CPU 0 instructions: 102000000 cycles: 152520081 heartbeat IPC: 0.447913 cumulative IPC: 0.422116 (Simulation time: 1 hr 27 min 13 sec) 
Heartbeat CPU 0 instructions: 103000001 cycles: 155024681 heartbeat IPC: 0.399266 cumulative IPC: 0.42166 (Simulation time: 1 hr 27 min 56 sec) 
Heartbeat CPU 0 instructions: 104000000 cycles: 157527201 heartbeat IPC: 0.399597 cumulative IPC: 0.42123 (Simulation time: 1 hr 28 min 37 sec) 
Heartbeat CPU 0 instructions: 105000000 cycles: 160027074 heartbeat IPC: 0.40002 cumulative IPC: 0.420824 (Simulation time: 1 hr 29 min 16 sec) 
Heartbeat CPU 0 instructions: 106000000 cycles: 162523279 heartbeat IPC: 0.400608 cumulative IPC: 0.420445 (Simulation time: 1 hr 29 min 54 sec) 
Heartbeat CPU 0 instructions: 107000001 cycles: 165013871 heartbeat IPC: 0.401511 cumulative IPC: 0.420097 (Simulation time: 1 hr 30 min 34 sec) 
Heartbeat CPU 0 instructions: 108000000 cycles: 167494277 heartbeat IPC: 0.403159 cumulative IPC: 0.419793 (Simulation time: 1 hr 31 min 11 sec) 
Heartbeat CPU 0 instructions: 109000002 cycles: 169950426 heartbeat IPC: 0.407142 cumulative IPC: 0.419572 (Simulation time: 1 hr 31 min 49 sec) 
Heartbeat CPU 0 instructions: 110000000 cycles: 172270057 heartbeat IPC: 0.431102 cumulative IPC: 0.419759 (Simulation time: 1 hr 32 min 22 sec) 
Heartbeat CPU 0 instructions: 111000001 cycles: 174703658 heartbeat IPC: 0.410914 cumulative IPC: 0.419611 (Simulation time: 1 hr 32 min 56 sec) 
Heartbeat CPU 0 instructions: 112000000 cycles: 177071839 heartbeat IPC: 0.422265 cumulative IPC: 0.419654 (Simulation time: 1 hr 33 min 28 sec) 
Heartbeat CPU 0 instructions: 113000002 cycles: 179404329 heartbeat IPC: 0.428727 cumulative IPC: 0.419795 (Simulation time: 1 hr 34 min 3 sec) 
Heartbeat CPU 0 instructions: 114000003 cycles: 181741882 heartbeat IPC: 0.427798 cumulative IPC: 0.419918 (Simulation time: 1 hr 34 min 34 sec) 
Heartbeat CPU 0 instructions: 115000000 cycles: 184157099 heartbeat IPC: 0.41404 cumulative IPC: 0.419826 (Simulation time: 1 hr 35 min 4 sec) 
Heartbeat CPU 0 instructions: 116000000 cycles: 186546938 heartbeat IPC: 0.418438 cumulative IPC: 0.419805 (Simulation time: 1 hr 35 min 37 sec) 
Heartbeat CPU 0 instructions: 117000000 cycles: 188899283 heartbeat IPC: 0.425108 cumulative IPC: 0.419883 (Simulation time: 1 hr 36 min 7 sec) 
Heartbeat CPU 0 instructions: 118000002 cycles: 191341292 heartbeat IPC: 0.4095 cumulative IPC: 0.419727 (Simulation time: 1 hr 36 min 37 sec) 
Heartbeat CPU 0 instructions: 119000001 cycles: 193679906 heartbeat IPC: 0.427603 cumulative IPC: 0.419839 (Simulation time: 1 hr 37 min 8 sec) 
Heartbeat CPU 0 instructions: 120000000 cycles: 196007351 heartbeat IPC: 0.429655 cumulative IPC: 0.419976 (Simulation time: 1 hr 37 min 39 sec) 
Heartbeat CPU 0 instructions: 121000000 cycles: 198364306 heartbeat IPC: 0.424276 cumulative IPC: 0.420036 (Simulation time: 1 hr 38 min 10 sec) 
Heartbeat CPU 0 instructions: 122000003 cycles: 200777480 heartbeat IPC: 0.414393 cumulative IPC: 0.419956 (Simulation time: 1 hr 38 min 39 sec) 
Heartbeat CPU 0 instructions: 123000003 cycles: 203148288 heartbeat IPC: 0.421797 cumulative IPC: 0.419981 (Simulation time: 1 hr 39 min 9 sec) 
Heartbeat CPU 0 instructions: 124000000 cycles: 205496814 heartbeat IPC: 0.425798 cumulative IPC: 0.420059 (Simulation time: 1 hr 39 min 37 sec) 
Heartbeat CPU 0 instructions: 125000000 cycles: 207946507 heartbeat IPC: 0.408214 cumulative IPC: 0.419897 (Simulation time: 1 hr 40 min 1 sec) 
Heartbeat CPU 0 instructions: 126000000 cycles: 210300385 heartbeat IPC: 0.424831 cumulative IPC: 0.419961 (Simulation time: 1 hr 40 min 24 sec) 
Heartbeat CPU 0 instructions: 127000002 cycles: 212614499 heartbeat IPC: 0.432132 cumulative IPC: 0.420114 (Simulation time: 1 hr 40 min 47 sec) 
Heartbeat CPU 0 instructions: 128000000 cycles: 214989499 heartbeat IPC: 0.421052 cumulative IPC: 0.420126 (Simulation time: 1 hr 41 min 9 sec) 
Heartbeat CPU 0 instructions: 129000002 cycles: 217379710 heartbeat IPC: 0.418374 cumulative IPC: 0.420104 (Simulation time: 1 hr 41 min 30 sec) 
Heartbeat CPU 0 instructions: 130000000 cycles: 219723977 heartbeat IPC: 0.426572 cumulative IPC: 0.420184 (Simulation time: 1 hr 41 min 50 sec) 
Heartbeat CPU 0 instructions: 131000002 cycles: 222073598 heartbeat IPC: 0.425601 cumulative IPC: 0.42025 (Simulation time: 1 hr 42 min 9 sec) 
Heartbeat CPU 0 instructions: 132000000 cycles: 224515824 heartbeat IPC: 0.409462 cumulative IPC: 0.420115 (Simulation time: 1 hr 42 min 26 sec) 
Heartbeat CPU 0 instructions: 133000001 cycles: 226883038 heartbeat IPC: 0.422438 cumulative IPC: 0.420143 (Simulation time: 1 hr 42 min 42 sec) 
Heartbeat CPU 0 instructions: 134000001 cycles: 229229338 heartbeat IPC: 0.426203 cumulative IPC: 0.420214 (Simulation time: 1 hr 42 min 57 sec) 
Heartbeat CPU 0 instructions: 135000000 cycles: 231649030 heartbeat IPC: 0.413275 cumulative IPC: 0.420131 (Simulation time: 1 hr 43 min 12 sec) 
Heartbeat CPU 0 instructions: 136000000 cycles: 233980396 heartbeat IPC: 0.428933 cumulative IPC: 0.420231 (Simulation time: 1 hr 43 min 28 sec) 
Heartbeat CPU 0 instructions: 137000003 cycles: 236320903 heartbeat IPC: 0.427259 cumulative IPC: 0.42031 (Simulation time: 1 hr 43 min 43 sec) 
Heartbeat CPU 0 instructions: 138000002 cycles: 238665841 heartbeat IPC: 0.42645 cumulative IPC: 0.420379 (Simulation time: 1 hr 43 min 57 sec) 
Heartbeat CPU 0 instructions: 139000001 cycles: 241117235 heartbeat IPC: 0.407931 cumulative IPC: 0.420235 (Simulation time: 1 hr 44 min 8 sec) 
Heartbeat CPU 0 instructions: 140000000 cycles: 243475959 heartbeat IPC: 0.423958 cumulative IPC: 0.420276 (Simulation time: 1 hr 44 min 18 sec) 
Heartbeat CPU 0 instructions: 141000002 cycles: 245852109 heartbeat IPC: 0.42085 cumulative IPC: 0.420282 (Simulation time: 1 hr 44 min 28 sec) 
Heartbeat CPU 0 instructions: 142000000 cycles: 248262060 heartbeat IPC: 0.414945 cumulative IPC: 0.420224 (Simulation time: 1 hr 44 min 37 sec) 
Heartbeat CPU 0 instructions: 143000002 cycles: 250602369 heartbeat IPC: 0.427295 cumulative IPC: 0.420299 (Simulation time: 1 hr 44 min 47 sec) 
Heartbeat CPU 0 instructions: 144000000 cycles: 252918359 heartbeat IPC: 0.43178 cumulative IPC: 0.420417 (Simulation time: 1 hr 44 min 56 sec) 
Heartbeat CPU 0 instructions: 145000000 cycles: 255284333 heartbeat IPC: 0.422659 cumulative IPC: 0.420441 (Simulation time: 1 hr 45 min 4 sec) 
Heartbeat CPU 0 instructions: 146000002 cycles: 257720961 heartbeat IPC: 0.410404 cumulative IPC: 0.420334 (Simulation time: 1 hr 45 min 13 sec) 
Heartbeat CPU 0 instructions: 147000000 cycles: 260073327 heartbeat IPC: 0.425103 cumulative IPC: 0.420382 (Simulation time: 1 hr 45 min 22 sec) 
Heartbeat CPU 0 instructions: 148000000 cycles: 262495192 heartbeat IPC: 0.412905 cumulative IPC: 0.420305 (Simulation time: 1 hr 45 min 30 sec) 
Heartbeat CPU 0 instructions: 149000001 cycles: 264865348 heartbeat IPC: 0.421914 cumulative IPC: 0.420321 (Simulation time: 1 hr 45 min 38 sec) 
Heartbeat CPU 0 instructions: 150000002 cycles: 267197168 heartbeat IPC: 0.42885 cumulative IPC: 0.420405 (Simulation time: 1 hr 45 min 46 sec) 
Finished CPU 0 instructions: 100000000 cycles: 237866101 cummulative IPC: 0.420405 (Simulation time: 1 hr 45 min 46 sec) 

ChampSim completed all CPUs

Region of Interest Statistics

CPU 0 cummulative IPC: 0.420405 instructions: 100000000 cycles: 237866101
LLC TOTAL     ACCESS:      45230  HIT:      43127  MISS:       2103
LLC LOAD      ACCESS:      21126  HIT:      20614  MISS:        512
LLC RFO       ACCESS:       2813  HIT:       1794  MISS:       1019
LLC PREFETCH  ACCESS:      14816  HIT:      14245  MISS:        571
LLC WRITEBACK ACCESS:       6475  HIT:       6474  MISS:          1
OPTgen accesses: 501
OPTgen hits: 650
OPTgen hit rate: 129.741


