
*** ChampSim Multicore Out-of-Order Simulator ***

Warmup Instructions: 50000000
Simulation Instructions: 100000000
Configuration: 2
Number of CPUs: 1
LLC sets: 2048
LLC ways: 16
Off-chip DRAM Channels: 1 Width: 64-bit Data Rate: 1600 MT/s

CPU 0 runs /datasets/cs240c-wi22-a00-public/data/Assignment2-gz/wrf_1650B.trace.gz
CPU 0 L1D next line prefetcher
CPU 0 L2C IP-based stride prefetcher
Initialize Hawkeye state
Heartbeat CPU 0 instructions: 1000000 cycles: 514299 heartbeat IPC: 1.94439 cumulative IPC: 1.94439 (Simulation time: 0 hr 0 min 42 sec) 
Heartbeat CPU 0 instructions: 2000000 cycles: 1028473 heartbeat IPC: 1.94487 cumulative IPC: 1.94463 (Simulation time: 0 hr 1 min 17 sec) 
Heartbeat CPU 0 instructions: 3000001 cycles: 1546184 heartbeat IPC: 1.93158 cumulative IPC: 1.94026 (Simulation time: 0 hr 1 min 51 sec) 
Heartbeat CPU 0 instructions: 4000000 cycles: 2063940 heartbeat IPC: 1.93141 cumulative IPC: 1.93804 (Simulation time: 0 hr 2 min 20 sec) 
Heartbeat CPU 0 instructions: 5000001 cycles: 2581687 heartbeat IPC: 1.93145 cumulative IPC: 1.93672 (Simulation time: 0 hr 2 min 49 sec) 
Heartbeat CPU 0 instructions: 6000003 cycles: 3099505 heartbeat IPC: 1.93118 cumulative IPC: 1.93579 (Simulation time: 0 hr 3 min 18 sec) 
Heartbeat CPU 0 instructions: 7000000 cycles: 3617214 heartbeat IPC: 1.93158 cumulative IPC: 1.93519 (Simulation time: 0 hr 3 min 47 sec) 
Heartbeat CPU 0 instructions: 8000000 cycles: 4135023 heartbeat IPC: 1.93121 cumulative IPC: 1.93469 (Simulation time: 0 hr 4 min 15 sec) 
Heartbeat CPU 0 instructions: 9000001 cycles: 4649336 heartbeat IPC: 1.94434 cumulative IPC: 1.93576 (Simulation time: 0 hr 4 min 48 sec) 
Heartbeat CPU 0 instructions: 10000001 cycles: 5163453 heartbeat IPC: 1.94508 cumulative IPC: 1.93669 (Simulation time: 0 hr 5 min 15 sec) 
Heartbeat CPU 0 instructions: 11000001 cycles: 5677587 heartbeat IPC: 1.94502 cumulative IPC: 1.93744 (Simulation time: 0 hr 5 min 45 sec) 
Heartbeat CPU 0 instructions: 12000000 cycles: 6193737 heartbeat IPC: 1.93742 cumulative IPC: 1.93744 (Simulation time: 0 hr 6 min 18 sec) 
Heartbeat CPU 0 instructions: 13000002 cycles: 6711432 heartbeat IPC: 1.93164 cumulative IPC: 1.93699 (Simulation time: 0 hr 6 min 53 sec) 
Heartbeat CPU 0 instructions: 14000002 cycles: 7229229 heartbeat IPC: 1.93126 cumulative IPC: 1.93658 (Simulation time: 0 hr 7 min 24 sec) 
Heartbeat CPU 0 instructions: 15000001 cycles: 7746913 heartbeat IPC: 1.93168 cumulative IPC: 1.93626 (Simulation time: 0 hr 7 min 54 sec) 
Heartbeat CPU 0 instructions: 16000000 cycles: 8264628 heartbeat IPC: 1.93156 cumulative IPC: 1.93596 (Simulation time: 0 hr 8 min 24 sec) 
Heartbeat CPU 0 instructions: 17000000 cycles: 8782346 heartbeat IPC: 1.93155 cumulative IPC: 1.9357 (Simulation time: 0 hr 8 min 59 sec) 
Heartbeat CPU 0 instructions: 18000001 cycles: 9298211 heartbeat IPC: 1.93849 cumulative IPC: 1.93586 (Simulation time: 0 hr 9 min 36 sec) 
Heartbeat CPU 0 instructions: 19000003 cycles: 9812269 heartbeat IPC: 1.94531 cumulative IPC: 1.93635 (Simulation time: 0 hr 10 min 6 sec) 
Heartbeat CPU 0 instructions: 20000000 cycles: 10326480 heartbeat IPC: 1.94472 cumulative IPC: 1.93677 (Simulation time: 0 hr 10 min 39 sec) 
Heartbeat CPU 0 instructions: 21000000 cycles: 10841175 heartbeat IPC: 1.9429 cumulative IPC: 1.93706 (Simulation time: 0 hr 11 min 9 sec) 
Heartbeat CPU 0 instructions: 22000000 cycles: 11358990 heartbeat IPC: 1.93119 cumulative IPC: 1.93679 (Simulation time: 0 hr 11 min 43 sec) 
Heartbeat CPU 0 instructions: 23000003 cycles: 11876757 heartbeat IPC: 1.93138 cumulative IPC: 1.93656 (Simulation time: 0 hr 12 min 14 sec) 
Heartbeat CPU 0 instructions: 24000000 cycles: 12394524 heartbeat IPC: 1.93136 cumulative IPC: 1.93634 (Simulation time: 0 hr 12 min 46 sec) 
Heartbeat CPU 0 instructions: 25000000 cycles: 12912214 heartbeat IPC: 1.93166 cumulative IPC: 1.93615 (Simulation time: 0 hr 13 min 16 sec) 
Heartbeat CPU 0 instructions: 26000001 cycles: 13429933 heartbeat IPC: 1.93155 cumulative IPC: 1.93597 (Simulation time: 0 hr 13 min 48 sec) 
Heartbeat CPU 0 instructions: 27000002 cycles: 13947348 heartbeat IPC: 1.93269 cumulative IPC: 1.93585 (Simulation time: 0 hr 14 min 21 sec) 
Heartbeat CPU 0 instructions: 28000000 cycles: 14461488 heartbeat IPC: 1.94499 cumulative IPC: 1.93618 (Simulation time: 0 hr 14 min 51 sec) 
Heartbeat CPU 0 instructions: 29000003 cycles: 14975725 heartbeat IPC: 1.94463 cumulative IPC: 1.93647 (Simulation time: 0 hr 15 min 29 sec) 
Heartbeat CPU 0 instructions: 30000002 cycles: 15489912 heartbeat IPC: 1.94482 cumulative IPC: 1.93674 (Simulation time: 0 hr 16 min 7 sec) 
Heartbeat CPU 0 instructions: 31000001 cycles: 16006549 heartbeat IPC: 1.93559 cumulative IPC: 1.93671 (Simulation time: 0 hr 16 min 37 sec) 
Heartbeat CPU 0 instructions: 32000000 cycles: 16524170 heartbeat IPC: 1.93191 cumulative IPC: 1.93656 (Simulation time: 0 hr 17 min 8 sec) 
Heartbeat CPU 0 instructions: 33000001 cycles: 17041842 heartbeat IPC: 1.93173 cumulative IPC: 1.93641 (Simulation time: 0 hr 17 min 50 sec) 
Heartbeat CPU 0 instructions: 34000002 cycles: 17559440 heartbeat IPC: 1.932 cumulative IPC: 1.93628 (Simulation time: 0 hr 18 min 23 sec) 
Heartbeat CPU 0 instructions: 35000001 cycles: 18077270 heartbeat IPC: 1.93113 cumulative IPC: 1.93613 (Simulation time: 0 hr 18 min 53 sec) 
Heartbeat CPU 0 instructions: 36000000 cycles: 18594991 heartbeat IPC: 1.93154 cumulative IPC: 1.93601 (Simulation time: 0 hr 19 min 29 sec) 
Heartbeat CPU 0 instructions: 37000003 cycles: 19110667 heartbeat IPC: 1.93921 cumulative IPC: 1.93609 (Simulation time: 0 hr 20 min 2 sec) 
Heartbeat CPU 0 instructions: 38000000 cycles: 19624818 heartbeat IPC: 1.94495 cumulative IPC: 1.93632 (Simulation time: 0 hr 20 min 35 sec) 
Heartbeat CPU 0 instructions: 39000001 cycles: 20138999 heartbeat IPC: 1.94484 cumulative IPC: 1.93654 (Simulation time: 0 hr 21 min 6 sec) 
Heartbeat CPU 0 instructions: 40000000 cycles: 20654040 heartbeat IPC: 1.94159 cumulative IPC: 1.93667 (Simulation time: 0 hr 21 min 36 sec) 
Heartbeat CPU 0 instructions: 41000000 cycles: 21171690 heartbeat IPC: 1.93181 cumulative IPC: 1.93655 (Simulation time: 0 hr 22 min 12 sec) 
Heartbeat CPU 0 instructions: 42000003 cycles: 21689691 heartbeat IPC: 1.9305 cumulative IPC: 1.9364 (Simulation time: 0 hr 22 min 41 sec) 
Heartbeat CPU 0 instructions: 43000001 cycles: 22207425 heartbeat IPC: 1.93149 cumulative IPC: 1.93629 (Simulation time: 0 hr 23 min 10 sec) 
Heartbeat CPU 0 instructions: 44000000 cycles: 22725175 heartbeat IPC: 1.93143 cumulative IPC: 1.93618 (Simulation time: 0 hr 23 min 41 sec) 
Heartbeat CPU 0 instructions: 45000000 cycles: 23242894 heartbeat IPC: 1.93155 cumulative IPC: 1.93608 (Simulation time: 0 hr 24 min 11 sec) 
Heartbeat CPU 0 instructions: 46000003 cycles: 23740910 heartbeat IPC: 2.00797 cumulative IPC: 1.93758 (Simulation time: 0 hr 24 min 42 sec) 
Heartbeat CPU 0 instructions: 47000002 cycles: 24391820 heartbeat IPC: 1.53631 cumulative IPC: 1.92688 (Simulation time: 0 hr 25 min 22 sec) 
Heartbeat CPU 0 instructions: 48000000 cycles: 25044155 heartbeat IPC: 1.53295 cumulative IPC: 1.91661 (Simulation time: 0 hr 26 min 6 sec) 
Heartbeat CPU 0 instructions: 49000001 cycles: 25692671 heartbeat IPC: 1.54198 cumulative IPC: 1.90716 (Simulation time: 0 hr 26 min 51 sec) 
Heartbeat CPU 0 instructions: 50000000 cycles: 26341308 heartbeat IPC: 1.54169 cumulative IPC: 1.89816 (Simulation time: 0 hr 27 min 35 sec) 

Warmup complete CPU 0 instructions: 50000001 cycles: 26341311 (Simulation time: 0 hr 27 min 35 sec) 

Heartbeat CPU 0 instructions: 51000000 cycles: 28276563 heartbeat IPC: 0.516728 cumulative IPC: 0.516728 (Simulation time: 0 hr 28 min 26 sec) 
Heartbeat CPU 0 instructions: 52000000 cycles: 30055921 heartbeat IPC: 0.562 cumulative IPC: 0.538414 (Simulation time: 0 hr 29 min 15 sec) 
Heartbeat CPU 0 instructions: 53000002 cycles: 31112950 heartbeat IPC: 0.94605 cumulative IPC: 0.628715 (Simulation time: 0 hr 30 min 0 sec) 
Heartbeat CPU 0 instructions: 54000001 cycles: 32049731 heartbeat IPC: 1.06748 cumulative IPC: 0.700719 (Simulation time: 0 hr 30 min 41 sec) 
Heartbeat CPU 0 instructions: 55000001 cycles: 32965240 heartbeat IPC: 1.09229 cumulative IPC: 0.754839 (Simulation time: 0 hr 31 min 23 sec) 
Heartbeat CPU 0 instructions: 56000000 cycles: 33846733 heartbeat IPC: 1.13444 cumulative IPC: 0.799422 (Simulation time: 0 hr 32 min 5 sec) 
Heartbeat CPU 0 instructions: 57000001 cycles: 34726996 heartbeat IPC: 1.13603 cumulative IPC: 0.834756 (Simulation time: 0 hr 32 min 51 sec) 
Heartbeat CPU 0 instructions: 58000002 cycles: 35610161 heartbeat IPC: 1.13229 cumulative IPC: 0.863106 (Simulation time: 0 hr 33 min 36 sec) 
Heartbeat CPU 0 instructions: 59000003 cycles: 36495987 heartbeat IPC: 1.12889 cumulative IPC: 0.886291 (Simulation time: 0 hr 34 min 19 sec) 
Heartbeat CPU 0 instructions: 60000000 cycles: 37378564 heartbeat IPC: 1.13304 cumulative IPC: 0.906022 (Simulation time: 0 hr 35 min 1 sec) 
Heartbeat CPU 0 instructions: 61000003 cycles: 38672810 heartbeat IPC: 0.772653 cumulative IPC: 0.892025 (Simulation time: 0 hr 35 min 45 sec) 
Heartbeat CPU 0 instructions: 62000002 cycles: 40160553 heartbeat IPC: 0.672158 cumulative IPC: 0.868354 (Simulation time: 0 hr 36 min 28 sec) 
Heartbeat CPU 0 instructions: 63000002 cycles: 41647158 heartbeat IPC: 0.672674 cumulative IPC: 0.849349 (Simulation time: 0 hr 37 min 11 sec) 
Heartbeat CPU 0 instructions: 64000000 cycles: 43132960 heartbeat IPC: 0.673036 cumulative IPC: 0.833748 (Simulation time: 0 hr 37 min 56 sec) 
Heartbeat CPU 0 instructions: 65000001 cycles: 44620874 heartbeat IPC: 0.672083 cumulative IPC: 0.820589 (Simulation time: 0 hr 38 min 41 sec) 
Heartbeat CPU 0 instructions: 66000000 cycles: 46106266 heartbeat IPC: 0.673222 cumulative IPC: 0.809514 (Simulation time: 0 hr 39 min 25 sec) 
Heartbeat CPU 0 instructions: 67000001 cycles: 47594926 heartbeat IPC: 0.671746 cumulative IPC: 0.799864 (Simulation time: 0 hr 40 min 9 sec) 
Heartbeat CPU 0 instructions: 68000000 cycles: 49080744 heartbeat IPC: 0.673029 cumulative IPC: 0.791576 (Simulation time: 0 hr 40 min 50 sec) 
Heartbeat CPU 0 instructions: 69000002 cycles: 50566206 heartbeat IPC: 0.673193 cumulative IPC: 0.784317 (Simulation time: 0 hr 41 min 36 sec) 
Heartbeat CPU 0 instructions: 70000000 cycles: 52052815 heartbeat IPC: 0.67267 cumulative IPC: 0.777862 (Simulation time: 0 hr 42 min 21 sec) 
Heartbeat CPU 0 instructions: 71000001 cycles: 53539937 heartbeat IPC: 0.67244 cumulative IPC: 0.772098 (Simulation time: 0 hr 43 min 5 sec) 
Heartbeat CPU 0 instructions: 72000000 cycles: 55027603 heartbeat IPC: 0.672193 cumulative IPC: 0.766917 (Simulation time: 0 hr 43 min 48 sec) 
Heartbeat CPU 0 instructions: 73000000 cycles: 56513765 heartbeat IPC: 0.672874 cumulative IPC: 0.762285 (Simulation time: 0 hr 44 min 30 sec) 
Heartbeat CPU 0 instructions: 74000003 cycles: 57999464 heartbeat IPC: 0.673086 cumulative IPC: 0.758099 (Simulation time: 0 hr 45 min 12 sec) 
Heartbeat CPU 0 instructions: 75000003 cycles: 59485964 heartbeat IPC: 0.672721 cumulative IPC: 0.75427 (Simulation time: 0 hr 45 min 56 sec) 
Heartbeat CPU 0 instructions: 76000000 cycles: 60971629 heartbeat IPC: 0.673097 cumulative IPC: 0.750787 (Simulation time: 0 hr 46 min 40 sec) 
Heartbeat CPU 0 instructions: 77000002 cycles: 62459995 heartbeat IPC: 0.671879 cumulative IPC: 0.747536 (Simulation time: 0 hr 47 min 23 sec) 
Heartbeat CPU 0 instructions: 78000001 cycles: 63946202 heartbeat IPC: 0.672853 cumulative IPC: 0.744584 (Simulation time: 0 hr 48 min 5 sec) 
Heartbeat CPU 0 instructions: 79000001 cycles: 65434161 heartbeat IPC: 0.672062 cumulative IPC: 0.741824 (Simulation time: 0 hr 48 min 49 sec) 
Heartbeat CPU 0 instructions: 80000000 cycles: 66919728 heartbeat IPC: 0.673143 cumulative IPC: 0.739309 (Simulation time: 0 hr 49 min 40 sec) 
Heartbeat CPU 0 instructions: 81000000 cycles: 68407377 heartbeat IPC: 0.672202 cumulative IPC: 0.736936 (Simulation time: 0 hr 50 min 25 sec) 
Heartbeat CPU 0 instructions: 82000003 cycles: 69892830 heartbeat IPC: 0.673197 cumulative IPC: 0.734762 (Simulation time: 0 hr 51 min 11 sec) 
Heartbeat CPU 0 instructions: 83000003 cycles: 71382453 heartbeat IPC: 0.671311 cumulative IPC: 0.732664 (Simulation time: 0 hr 51 min 54 sec) 
Heartbeat CPU 0 instructions: 84000000 cycles: 72868402 heartbeat IPC: 0.672969 cumulative IPC: 0.730757 (Simulation time: 0 hr 52 min 38 sec) 
Heartbeat CPU 0 instructions: 85000002 cycles: 74354655 heartbeat IPC: 0.672834 cumulative IPC: 0.728964 (Simulation time: 0 hr 53 min 27 sec) 
Heartbeat CPU 0 instructions: 86000001 cycles: 75840448 heartbeat IPC: 0.673041 cumulative IPC: 0.727285 (Simulation time: 0 hr 54 min 17 sec) 
Heartbeat CPU 0 instructions: 87000001 cycles: 77326457 heartbeat IPC: 0.672943 cumulative IPC: 0.725702 (Simulation time: 0 hr 55 min 1 sec) 
Heartbeat CPU 0 instructions: 88000000 cycles: 78834098 heartbeat IPC: 0.663287 cumulative IPC: 0.723909 (Simulation time: 0 hr 55 min 48 sec) 
Heartbeat CPU 0 instructions: 89000003 cycles: 80332656 heartbeat IPC: 0.66731 cumulative IPC: 0.722338 (Simulation time: 0 hr 56 min 37 sec) 
Heartbeat CPU 0 instructions: 90000003 cycles: 81832600 heartbeat IPC: 0.666692 cumulative IPC: 0.720834 (Simulation time: 0 hr 57 min 23 sec) 
Heartbeat CPU 0 instructions: 91000001 cycles: 83341310 heartbeat IPC: 0.662817 cumulative IPC: 0.719298 (Simulation time: 0 hr 58 min 13 sec) 
Heartbeat CPU 0 instructions: 92000000 cycles: 84850912 heartbeat IPC: 0.662426 cumulative IPC: 0.717831 (Simulation time: 0 hr 59 min 0 sec) 
Heartbeat CPU 0 instructions: 93000001 cycles: 86360456 heartbeat IPC: 0.662452 cumulative IPC: 0.716438 (Simulation time: 0 hr 59 min 46 sec) 
Heartbeat CPU 0 instructions: 94000001 cycles: 87868796 heartbeat IPC: 0.66298 cumulative IPC: 0.715128 (Simulation time: 1 hr 0 min 34 sec) 
Heartbeat CPU 0 instructions: 95000001 cycles: 89376429 heartbeat IPC: 0.663291 cumulative IPC: 0.713888 (Simulation time: 1 hr 1 min 22 sec) 
Heartbeat CPU 0 instructions: 96000000 cycles: 90886721 heartbeat IPC: 0.662123 cumulative IPC: 0.712677 (Simulation time: 1 hr 2 min 15 sec) 
Heartbeat CPU 0 instructions: 97000000 cycles: 92401989 heartbeat IPC: 0.659949 cumulative IPC: 0.711467 (Simulation time: 1 hr 3 min 4 sec) 
Heartbeat CPU 0 instructions: 98000000 cycles: 93915572 heartbeat IPC: 0.660684 cumulative IPC: 0.71033 (Simulation time: 1 hr 3 min 54 sec) 
Heartbeat CPU 0 instructions: 99000000 cycles: 95426906 heartbeat IPC: 0.661667 cumulative IPC: 0.709265 (Simulation time: 1 hr 4 min 43 sec) 
Heartbeat CPU 0 instructions: 100000000 cycles: 96942386 heartbeat IPC: 0.659857 cumulative IPC: 0.708205 (Simulation time: 1 hr 5 min 31 sec) 
Heartbeat CPU 0 instructions: 101000002 cycles: 98459542 heartbeat IPC: 0.659129 cumulative IPC: 0.707172 (Simulation time: 1 hr 6 min 21 sec) 
Heartbeat CPU 0 instructions: 102000002 cycles: 99972814 heartbeat IPC: 0.66082 cumulative IPC: 0.706219 (Simulation time: 1 hr 7 min 10 sec) 
Heartbeat CPU 0 instructions: 103000002 cycles: 101486803 heartbeat IPC: 0.660507 cumulative IPC: 0.705298 (Simulation time: 1 hr 7 min 56 sec) 
Heartbeat CPU 0 instructions: 104000000 cycles: 103002946 heartbeat IPC: 0.659567 cumulative IPC: 0.704394 (Simulation time: 1 hr 8 min 45 sec) 
Heartbeat CPU 0 instructions: 105000001 cycles: 104517998 heartbeat IPC: 0.660044 cumulative IPC: 0.703535 (Simulation time: 1 hr 9 min 34 sec) 
Heartbeat CPU 0 instructions: 106000001 cycles: 106034117 heartbeat IPC: 0.659579 cumulative IPC: 0.702698 (Simulation time: 1 hr 10 min 22 sec) 
Heartbeat CPU 0 instructions: 107000000 cycles: 107545697 heartbeat IPC: 0.661559 cumulative IPC: 0.701932 (Simulation time: 1 hr 11 min 10 sec) 
Heartbeat CPU 0 instructions: 108000000 cycles: 109060251 heartbeat IPC: 0.66026 cumulative IPC: 0.701169 (Simulation time: 1 hr 11 min 57 sec) 
Heartbeat CPU 0 instructions: 109000000 cycles: 110576891 heartbeat IPC: 0.659352 cumulative IPC: 0.700417 (Simulation time: 1 hr 12 min 45 sec) 
Heartbeat CPU 0 instructions: 110000001 cycles: 112092439 heartbeat IPC: 0.659828 cumulative IPC: 0.699699 (Simulation time: 1 hr 13 min 37 sec) 
Heartbeat CPU 0 instructions: 111000003 cycles: 113604823 heartbeat IPC: 0.661209 cumulative IPC: 0.699032 (Simulation time: 1 hr 14 min 26 sec) 
Heartbeat CPU 0 instructions: 112000000 cycles: 115119134 heartbeat IPC: 0.660364 cumulative IPC: 0.698373 (Simulation time: 1 hr 15 min 9 sec) 
Heartbeat CPU 0 instructions: 113000003 cycles: 116631949 heartbeat IPC: 0.661021 cumulative IPC: 0.697747 (Simulation time: 1 hr 15 min 57 sec) 
Heartbeat CPU 0 instructions: 114000002 cycles: 118144019 heartbeat IPC: 0.661344 cumulative IPC: 0.697147 (Simulation time: 1 hr 16 min 40 sec) 
Heartbeat CPU 0 instructions: 115000002 cycles: 119651255 heartbeat IPC: 0.663466 cumulative IPC: 0.696603 (Simulation time: 1 hr 17 min 26 sec) 
Heartbeat CPU 0 instructions: 116000000 cycles: 121157881 heartbeat IPC: 0.663733 cumulative IPC: 0.696081 (Simulation time: 1 hr 18 min 11 sec) 
Heartbeat CPU 0 instructions: 117000000 cycles: 122670853 heartbeat IPC: 0.660951 cumulative IPC: 0.695529 (Simulation time: 1 hr 18 min 53 sec) 
Heartbeat CPU 0 instructions: 118000003 cycles: 124185273 heartbeat IPC: 0.660321 cumulative IPC: 0.694984 (Simulation time: 1 hr 19 min 36 sec) 
Heartbeat CPU 0 instructions: 119000001 cycles: 125698278 heartbeat IPC: 0.660935 cumulative IPC: 0.694466 (Simulation time: 1 hr 20 min 20 sec) 
Heartbeat CPU 0 instructions: 120000000 cycles: 127214299 heartbeat IPC: 0.659621 cumulative IPC: 0.693942 (Simulation time: 1 hr 21 min 6 sec) 
Heartbeat CPU 0 instructions: 121000001 cycles: 128727864 heartbeat IPC: 0.660692 cumulative IPC: 0.69345 (Simulation time: 1 hr 21 min 52 sec) 
Heartbeat CPU 0 instructions: 122000000 cycles: 130242430 heartbeat IPC: 0.660254 cumulative IPC: 0.692967 (Simulation time: 1 hr 22 min 34 sec) 
Heartbeat CPU 0 instructions: 123000000 cycles: 131755630 heartbeat IPC: 0.660851 cumulative IPC: 0.692506 (Simulation time: 1 hr 23 min 17 sec) 
Heartbeat CPU 0 instructions: 124000000 cycles: 133270518 heartbeat IPC: 0.660115 cumulative IPC: 0.692047 (Simulation time: 1 hr 24 min 3 sec) 
Heartbeat CPU 0 instructions: 125000002 cycles: 134783661 heartbeat IPC: 0.660877 cumulative IPC: 0.691612 (Simulation time: 1 hr 24 min 46 sec) 
Heartbeat CPU 0 instructions: 126000003 cycles: 136297886 heartbeat IPC: 0.660405 cumulative IPC: 0.691182 (Simulation time: 1 hr 25 min 26 sec) 
Heartbeat CPU 0 instructions: 127000002 cycles: 137810595 heartbeat IPC: 0.661065 cumulative IPC: 0.690773 (Simulation time: 1 hr 26 min 5 sec) 
Heartbeat CPU 0 instructions: 128000000 cycles: 139589240 heartbeat IPC: 0.562225 cumulative IPC: 0.688754 (Simulation time: 1 hr 26 min 46 sec) 
Heartbeat CPU 0 instructions: 129000001 cycles: 142002270 heartbeat IPC: 0.414417 cumulative IPC: 0.683031 (Simulation time: 1 hr 27 min 32 sec) 
Heartbeat CPU 0 instructions: 130000002 cycles: 143721865 heartbeat IPC: 0.581533 cumulative IPC: 0.681544 (Simulation time: 1 hr 28 min 11 sec) 
Heartbeat CPU 0 instructions: 131000002 cycles: 145350672 heartbeat IPC: 0.613946 cumulative IPC: 0.680619 (Simulation time: 1 hr 28 min 47 sec) 
Heartbeat CPU 0 instructions: 132000000 cycles: 148450084 heartbeat IPC: 0.322641 cumulative IPC: 0.671532 (Simulation time: 1 hr 29 min 30 sec) 
Heartbeat CPU 0 instructions: 133000000 cycles: 151734528 heartbeat IPC: 0.304466 cumulative IPC: 0.661918 (Simulation time: 1 hr 30 min 15 sec) 
Heartbeat CPU 0 instructions: 134000000 cycles: 155147648 heartbeat IPC: 0.292987 cumulative IPC: 0.652142 (Simulation time: 1 hr 31 min 3 sec) 
Heartbeat CPU 0 instructions: 135000001 cycles: 158495342 heartbeat IPC: 0.298713 cumulative IPC: 0.643189 (Simulation time: 1 hr 31 min 49 sec) 
Heartbeat CPU 0 instructions: 136000000 cycles: 159586744 heartbeat IPC: 0.916252 cumulative IPC: 0.645425 (Simulation time: 1 hr 32 min 12 sec) 
Heartbeat CPU 0 instructions: 137000001 cycles: 160644475 heartbeat IPC: 0.945421 cumulative IPC: 0.647788 (Simulation time: 1 hr 32 min 37 sec) 
Heartbeat CPU 0 instructions: 138000000 cycles: 161651907 heartbeat IPC: 0.992622 cumulative IPC: 0.650356 (Simulation time: 1 hr 33 min 2 sec) 
Heartbeat CPU 0 instructions: 139000000 cycles: 162620632 heartbeat IPC: 1.03228 cumulative IPC: 0.65307 (Simulation time: 1 hr 33 min 26 sec) 
Heartbeat CPU 0 instructions: 140000000 cycles: 163553761 heartbeat IPC: 1.07166 cumulative IPC: 0.655917 (Simulation time: 1 hr 33 min 50 sec) 
Heartbeat CPU 0 instructions: 141000002 cycles: 164463485 heartbeat IPC: 1.09924 cumulative IPC: 0.658837 (Simulation time: 1 hr 34 min 15 sec) 
Heartbeat CPU 0 instructions: 142000001 cycles: 165369065 heartbeat IPC: 1.10426 cumulative IPC: 0.661738 (Simulation time: 1 hr 34 min 41 sec) 
Heartbeat CPU 0 instructions: 143000000 cycles: 166256864 heartbeat IPC: 1.12638 cumulative IPC: 0.664687 (Simulation time: 1 hr 35 min 3 sec) 
Heartbeat CPU 0 instructions: 144000000 cycles: 167177643 heartbeat IPC: 1.08604 cumulative IPC: 0.667441 (Simulation time: 1 hr 35 min 26 sec) 
Heartbeat CPU 0 instructions: 145000003 cycles: 168104889 heartbeat IPC: 1.07847 cumulative IPC: 0.67013 (Simulation time: 1 hr 35 min 49 sec) 
Heartbeat CPU 0 instructions: 146000000 cycles: 169059435 heartbeat IPC: 1.04762 cumulative IPC: 0.672655 (Simulation time: 1 hr 36 min 12 sec) 
Heartbeat CPU 0 instructions: 147000002 cycles: 170043725 heartbeat IPC: 1.01596 cumulative IPC: 0.675006 (Simulation time: 1 hr 36 min 34 sec) 
Heartbeat CPU 0 instructions: 148000000 cycles: 170940983 heartbeat IPC: 1.1145 cumulative IPC: 0.677733 (Simulation time: 1 hr 36 min 56 sec) 
Heartbeat CPU 0 instructions: 149000001 cycles: 171826486 heartbeat IPC: 1.1293 cumulative IPC: 0.680482 (Simulation time: 1 hr 37 min 17 sec) 
Heartbeat CPU 0 instructions: 150000001 cycles: 172704424 heartbeat IPC: 1.13903 cumulative IPC: 0.683232 (Simulation time: 1 hr 37 min 38 sec) 
Finished CPU 0 instructions: 100000000 cycles: 146363113 cummulative IPC: 0.683232 (Simulation time: 1 hr 37 min 38 sec) 

ChampSim completed all CPUs

Region of Interest Statistics

CPU 0 cummulative IPC: 0.683232 instructions: 100000000 cycles: 146363113
LLC TOTAL     ACCESS:    2156976  HIT:     275339  MISS:    1881637
LLC LOAD      ACCESS:     100875  HIT:      15642  MISS:      85233
LLC RFO       ACCESS:     516041  HIT:       2593  MISS:     513448
LLC PREFETCH  ACCESS:     928273  HIT:      65017  MISS:     863256
LLC WRITEBACK ACCESS:     611787  HIT:     192087  MISS:     419700
OPTgen accesses: 6117
OPTgen hits: 999
OPTgen hit rate: 16.3315


